CHEMBL1375049
     RDKit          3D

  0  0  0  0  0  0  0  0  0  0999 V3000
M  V30 BEGIN CTAB
M  V30 COUNTS 47 49 0 0 0
M  V30 BEGIN ATOM
M  V30 1 C -1.568721 0.138998 -2.660852 0
M  V30 2 O -1.203015 0.808440 -1.453806 0
M  V30 3 C -0.447339 0.088253 -0.555365 0
M  V30 4 O -0.105631 -1.098995 -0.802718 0
M  V30 5 C -0.021268 0.719217 0.737881 0 CFG=2
M  V30 6 C 0.860176 1.906484 0.406440 0
M  V30 7 C 2.090221 1.802300 1.268315 0 CFG=2
M  V30 8 C 3.292752 1.820115 0.349863 0
M  V30 9 C 3.299800 0.638018 -0.592728 0
M  V30 10 C 3.328028 -0.668239 0.154329 0 CFG=1
M  V30 11 O 4.612846 -1.240277 0.008091 0
M  V30 12 C 3.110870 -0.455543 1.619775 0
M  V30 13 C 1.972318 0.470534 1.932697 0 CFG=2
M  V30 14 N 0.745575 -0.150134 1.544072 0
M  V30 15 C 0.113053 -0.816704 2.619935 0
M  V30 16 C -1.146839 -1.492658 2.364264 0
M  V30 17 C -2.375061 -0.845787 2.503764 0
M  V30 18 C -3.584972 -1.472816 2.264778 0
M  V30 19 C -3.589206 -2.813026 1.865574 0
M  V30 20 C -4.946639 -3.393931 1.633921 0
M  V30 21 F -5.795752 -2.403727 1.119489 0
M  V30 22 F -5.489537 -3.945826 2.762379 0
M  V30 23 F -4.899736 -4.358753 0.632753 0
M  V30 24 C -2.389680 -3.480369 1.718741 0
M  V30 25 C -1.191848 -2.834937 1.962685 0
M  V30 26 H -1.632924 0.827682 -3.518543 0
M  V30 27 H -0.749783 -0.589538 -2.927644 0
M  V30 28 H -2.502398 -0.431635 -2.557886 0
M  V30 29 H -0.933221 1.126837 1.184898 0
M  V30 30 H 1.076890 1.977325 -0.680625 0
M  V30 31 H 0.369435 2.886990 0.645718 0
M  V30 32 H 2.211776 2.642221 1.978288 0
M  V30 33 H 3.308668 2.743951 -0.259713 0
M  V30 34 H 4.217654 1.751882 0.955639 0
M  V30 35 H 4.233803 0.760435 -1.200621 0
M  V30 36 H 2.454485 0.599438 -1.284986 0
M  V30 37 H 2.569496 -1.385515 -0.202113 0
M  V30 38 H 5.283159 -0.660353 0.442209 0
M  V30 39 H 2.855755 -1.441228 2.092763 0
M  V30 40 H 4.031059 -0.036065 2.085282 0
M  V30 41 H 1.999983 0.658136 3.035972 0
M  V30 42 H -0.002355 -0.091462 3.478147 0
M  V30 43 H 0.848856 -1.569877 3.008326 0
M  V30 44 H -2.432155 0.195983 2.811503 0
M  V30 45 H -4.524613 -0.911879 2.391180 0
M  V30 46 H -2.476231 -4.504075 1.410211 0
M  V30 47 H -0.287645 -3.414161 1.829314 0
M  V30 END ATOM
M  V30 BEGIN BOND
M  V30 1 1 1 2
M  V30 2 1 2 3
M  V30 3 2 3 4
M  V30 4 1 3 5
M  V30 5 1 5 6
M  V30 6 1 6 7
M  V30 7 1 7 8
M  V30 8 1 8 9
M  V30 9 1 9 10
M  V30 10 1 10 11
M  V30 11 1 10 12
M  V30 12 1 12 13
M  V30 13 1 13 14
M  V30 14 1 14 15
M  V30 15 1 15 16
M  V30 16 2 16 17
M  V30 17 1 17 18
M  V30 18 2 18 19
M  V30 19 1 19 20
M  V30 20 1 20 21
M  V30 21 1 20 22
M  V30 22 1 20 23
M  V30 23 1 19 24
M  V30 24 2 24 25
M  V30 25 1 14 5
M  V30 26 1 25 16
M  V30 27 1 13 7
M  V30 28 1 1 26
M  V30 29 1 1 27
M  V30 30 1 1 28
M  V30 31 1 5 29 CFG=1
M  V30 32 1 6 30
M  V30 33 1 6 31
M  V30 34 1 7 32 CFG=1
M  V30 35 1 8 33
M  V30 36 1 8 34
M  V30 37 1 9 35
M  V30 38 1 9 36
M  V30 39 1 10 37 CFG=3
M  V30 40 1 11 38
M  V30 41 1 12 39
M  V30 42 1 12 40
M  V30 43 1 13 41 CFG=1
M  V30 44 1 15 42
M  V30 45 1 15 43
M  V30 46 1 17 44
M  V30 47 1 18 45
M  V30 48 1 24 46
M  V30 49 1 25 47
M  V30 END BOND
M  V30 END CTAB
M  END
>  <Dataset>  (1) 
ChEMBL_Kinases

>  <Ligand_Instance>  (1) 
nan

>  <PDB_ID>  (1) 
nan

>  <Standardized_SMILES>  (1) 
COC(=O)[C@@H]1C[C@@H]2CC[C@@H](O)C[C@@H]2N1Cc1ccc(C(F)(F)F)cc1

>  <Name>  (1) 
nan

>  <Pocket>  (1) 
nan

>  <ATP_Site>  (1) 
nan

>  <Peripheral>  (1) 
nan

>  <Num_H_Atoms_ProtBoundConf>  (1) 
nan

>  <Num_Resolved_Atoms>  (1) 
nan

>  <Num_Not_Resolved_Atoms>  (1) 
nan

$$$$
CHEMBL1375068
     RDKit          3D

  0  0  0  0  0  0  0  0  0  0999 V3000
M  V30 BEGIN CTAB
M  V30 COUNTS 41 43 0 0 0
M  V30 BEGIN ATOM
M  V30 1 C 2.624740 -4.882810 1.839343 0
M  V30 2 O 2.346136 -3.840351 0.955823 0
M  V30 3 C 2.715247 -3.790153 -0.381163 0
M  V30 4 C 3.414902 -4.713649 -1.130911 0
M  V30 5 C 3.672302 -4.451619 -2.460991 0
M  V30 6 C 3.246612 -3.285320 -3.063691 0
M  V30 7 C 2.544366 -2.344386 -2.335721 0
M  V30 8 C 2.281683 -2.605576 -0.989230 0
M  V30 9 N 1.545034 -1.567438 -0.315042 0
M  V30 10 C 2.261638 -0.535080 0.312261 0
M  V30 11 O 3.516320 -0.615148 0.224605 0
M  V30 12 C 1.698482 0.594608 1.038813 0
M  V30 13 C 2.575632 1.506990 1.585845 0
M  V30 14 C 2.036111 2.574776 2.272818 0
M  V30 15 C 0.677524 2.732234 2.412313 0
M  V30 16 C -0.228626 1.843760 1.881165 0
M  V30 17 N -1.611634 2.055027 2.055171 0
M  V30 18 C -2.727725 1.304004 1.616655 0
M  V30 19 O -2.509951 0.275512 0.964008 0
M  V30 20 C -4.095954 1.698042 1.905043 0
M  V30 21 C -4.478047 2.816055 2.618863 0
M  V30 22 C -5.862457 2.849846 2.681396 0
M  V30 23 C -6.224452 1.707885 1.974731 0
M  V30 24 O -5.182115 1.063939 1.539057 0
M  V30 25 C 0.350228 0.795838 1.205498 0
M  V30 26 H 1.723648 -4.995618 2.494595 0
M  V30 27 H 2.859044 -5.792099 1.279277 0
M  V30 28 H 3.441892 -4.542786 2.512197 0
M  V30 29 H 3.702376 -5.590674 -0.567241 0
M  V30 30 H 4.224304 -5.208270 -3.003387 0
M  V30 31 H 3.457158 -3.094048 -4.111245 0
M  V30 32 H 2.215179 -1.432193 -2.819820 0
M  V30 33 H 0.503314 -1.535868 -0.264212 0
M  V30 34 H 3.651803 1.472143 1.531814 0
M  V30 35 H 2.677213 3.320340 2.722098 0
M  V30 36 H 0.310384 3.603397 2.970607 0
M  V30 37 H -1.898872 2.915663 2.604451 0
M  V30 38 H -3.828693 3.562702 3.068581 0
M  V30 39 H -6.532028 3.560223 3.147683 0
M  V30 40 H -7.272340 1.429666 1.831195 0
M  V30 41 H -0.267546 0.044387 0.751831 0
M  V30 END ATOM
M  V30 BEGIN BOND
M  V30 1 1 1 2
M  V30 2 1 2 3
M  V30 3 2 3 4
M  V30 4 1 4 5
M  V30 5 2 5 6
M  V30 6 1 6 7
M  V30 7 2 7 8
M  V30 8 1 8 9
M  V30 9 1 9 10
M  V30 10 2 10 11
M  V30 11 1 10 12
M  V30 12 2 12 13
M  V30 13 1 13 14
M  V30 14 2 14 15
M  V30 15 1 15 16
M  V30 16 1 16 17
M  V30 17 1 17 18
M  V30 18 2 18 19
M  V30 19 1 18 20
M  V30 20 2 20 21
M  V30 21 1 21 22
M  V30 22 2 22 23
M  V30 23 1 23 24
M  V30 24 2 16 25
M  V30 25 1 8 3
M  V30 26 1 25 12
M  V30 27 1 24 20
M  V30 28 1 1 26
M  V30 29 1 1 27
M  V30 30 1 1 28
M  V30 31 1 4 29
M  V30 32 1 5 30
M  V30 33 1 6 31
M  V30 34 1 7 32
M  V30 35 1 9 33
M  V30 36 1 13 34
M  V30 37 1 14 35
M  V30 38 1 15 36
M  V30 39 1 17 37
M  V30 40 1 21 38
M  V30 41 1 22 39
M  V30 42 1 23 40
M  V30 43 1 25 41
M  V30 END BOND
M  V30 END CTAB
M  END
>  <Dataset>  (2) 
ChEMBL_Kinases

>  <Ligand_Instance>  (2) 
nan

>  <PDB_ID>  (2) 
nan

>  <Standardized_SMILES>  (2) 
COc1ccccc1NC(=O)c1cccc(NC(=O)c2ccco2)c1

>  <Name>  (2) 
nan

>  <Pocket>  (2) 
nan

>  <ATP_Site>  (2) 
nan

>  <Peripheral>  (2) 
nan

>  <Num_H_Atoms_ProtBoundConf>  (2) 
nan

>  <Num_Resolved_Atoms>  (2) 
nan

>  <Num_Not_Resolved_Atoms>  (2) 
nan

$$$$
CHEMBL1376341
     RDKit          3D

  0  0  0  0  0  0  0  0  0  0999 V3000
M  V30 BEGIN CTAB
M  V30 COUNTS 62 65 0 0 0
M  V30 BEGIN ATOM
M  V30 1 C 4.429801 -3.557685 2.570919 0
M  V30 2 C 4.263369 -3.187744 4.029753 0
M  V30 3 O 3.228598 -2.244929 4.155975 0
M  V30 4 C 3.213661 -1.012358 3.562963 0
M  V30 5 O 4.177444 -0.625955 2.828354 0
M  V30 6 N 2.154755 -0.072461 3.704276 0
M  V30 7 C 2.260858 1.203384 3.021771 0
M  V30 8 C 1.081173 1.423275 2.083531 0
M  V30 9 N -0.063429 0.680999 2.600157 0
M  V30 10 C -1.115147 0.022769 1.904009 0
M  V30 11 O -2.131562 -0.634279 2.257211 0
M  V30 12 C -1.289239 -0.059043 0.457601 0
M  V30 13 C -2.011552 0.894583 -0.242956 0
M  V30 14 N -2.193112 0.848001 -1.593201 0
M  V30 15 C -2.981935 1.947628 -2.106915 0
M  V30 16 C -4.466008 1.659385 -2.129036 0
M  V30 17 C -5.126177 2.916711 -2.693031 0
M  V30 18 C -4.800713 0.527775 -3.078240 0
M  V30 19 C -1.648728 -0.167769 -2.283967 0
M  V30 20 O -1.848776 -0.154588 -3.508895 0
M  V30 21 C -0.917768 -1.150514 -1.647393 0
M  V30 22 C -0.744697 -1.086693 -0.280421 0
M  V30 23 C 0.015365 -2.189568 0.049309 0
M  V30 24 C 0.496543 -2.643611 1.259717 0
M  V30 25 C 1.244841 -3.812466 1.243797 0
M  V30 26 C 1.530126 -4.535229 0.100878 0
M  V30 27 C 1.026108 -4.042863 -1.098110 0
M  V30 28 C 0.278540 -2.883138 -1.115044 0
M  V30 29 N -0.294907 -2.241292 -2.144174 0
M  V30 30 C -0.290919 -2.595255 -3.570735 0
M  V30 31 C -0.147675 0.597831 4.046610 0
M  V30 32 C 0.969085 -0.334260 4.503561 0
M  V30 33 H 3.889114 -2.826752 1.951182 0
M  V30 34 H 5.517554 -3.529932 2.333427 0
M  V30 35 H 3.985826 -4.559676 2.327690 0
M  V30 36 H 5.212789 -2.836546 4.486364 0
M  V30 37 H 3.905763 -4.111435 4.542386 0
M  V30 38 H 3.230256 1.298684 2.511293 0
M  V30 39 H 2.253722 1.991601 3.824215 0
M  V30 40 H 0.815559 2.497955 2.148372 0
M  V30 41 H 1.312490 1.168688 1.031707 0
M  V30 42 H -2.426069 1.694041 0.389453 0
M  V30 43 H -2.809801 2.878071 -1.545797 0
M  V30 44 H -2.713485 2.156147 -3.178275 0
M  V30 45 H -4.804977 1.428991 -1.103550 0
M  V30 46 H -5.951727 2.635539 -3.376626 0
M  V30 47 H -5.472182 3.548638 -1.849588 0
M  V30 48 H -4.401292 3.498042 -3.319588 0
M  V30 49 H -4.440778 -0.437019 -2.642864 0
M  V30 50 H -5.900050 0.421968 -3.182471 0
M  V30 51 H -4.391735 0.701768 -4.088153 0
M  V30 52 H 0.263466 -2.070894 2.120815 0
M  V30 53 H 1.606438 -4.139111 2.213006 0
M  V30 54 H 2.123569 -5.448419 0.144973 0
M  V30 55 H 1.247764 -4.610986 -2.013097 0
M  V30 56 H 0.426832 -1.949220 -4.109974 0
M  V30 57 H 0.012816 -3.652204 -3.663935 0
M  V30 58 H -1.312993 -2.450788 -3.996535 0
M  V30 59 H 0.077302 1.631922 4.435993 0
M  V30 60 H -1.123414 0.299655 4.426985 0
M  V30 61 H 1.186629 -0.175912 5.585311 0
M  V30 62 H 0.581509 -1.365696 4.392713 0
M  V30 END ATOM
M  V30 BEGIN BOND
M  V30 1 1 1 2
M  V30 2 1 2 3
M  V30 3 1 3 4
M  V30 4 2 4 5
M  V30 5 1 4 6
M  V30 6 1 6 7
M  V30 7 1 7 8
M  V30 8 1 8 9
M  V30 9 1 9 10
M  V30 10 2 10 11
M  V30 11 1 10 12
M  V30 12 2 12 13
M  V30 13 1 13 14
M  V30 14 1 14 15
M  V30 15 1 15 16
M  V30 16 1 16 17
M  V30 17 1 16 18
M  V30 18 1 14 19
M  V30 19 2 19 20
M  V30 20 1 19 21
M  V30 21 2 21 22
M  V30 22 1 22 23
M  V30 23 2 23 24
M  V30 24 1 24 25
M  V30 25 2 25 26
M  V30 26 1 26 27
M  V30 27 2 27 28
M  V30 28 1 28 29
M  V30 29 1 29 30
M  V30 30 1 9 31
M  V30 31 1 31 32
M  V30 32 1 32 6
M  V30 33 1 22 12
M  V30 34 1 28 23
M  V30 35 1 29 21
M  V30 36 1 1 33
M  V30 37 1 1 34
M  V30 38 1 1 35
M  V30 39 1 2 36
M  V30 40 1 2 37
M  V30 41 1 7 38
M  V30 42 1 7 39
M  V30 43 1 8 40
M  V30 44 1 8 41
M  V30 45 1 13 42
M  V30 46 1 15 43
M  V30 47 1 15 44
M  V30 48 1 16 45
M  V30 49 1 17 46
M  V30 50 1 17 47
M  V30 51 1 17 48
M  V30 52 1 18 49
M  V30 53 1 18 50
M  V30 54 1 18 51
M  V30 55 1 24 52
M  V30 56 1 25 53
M  V30 57 1 26 54
M  V30 58 1 27 55
M  V30 59 1 30 56
M  V30 60 1 30 57
M  V30 61 1 30 58
M  V30 62 1 31 59
M  V30 63 1 31 60
M  V30 64 1 32 61
M  V30 65 1 32 62
M  V30 END BOND
M  V30 END CTAB
M  END
>  <Dataset>  (3) 
ChEMBL_Kinases

>  <Ligand_Instance>  (3) 
nan

>  <PDB_ID>  (3) 
nan

>  <Standardized_SMILES>  (3) 
CCOC(=O)N1CCN(C(=O)c2cn(CC(C)C)c(=O)c3c2c2ccccc2n3C)CC1

>  <Name>  (3) 
nan

>  <Pocket>  (3) 
nan

>  <ATP_Site>  (3) 
nan

>  <Peripheral>  (3) 
nan

>  <Num_H_Atoms_ProtBoundConf>  (3) 
nan

>  <Num_Resolved_Atoms>  (3) 
nan

>  <Num_Not_Resolved_Atoms>  (3) 
nan

$$$$
CHEMBL1375563
     RDKit          3D

  0  0  0  0  0  0  0  0  0  0999 V3000
M  V30 BEGIN CTAB
M  V30 COUNTS 54 56 0 0 0
M  V30 BEGIN ATOM
M  V30 1 C 0.942480 -3.499864 4.940535 0
M  V30 2 C 0.754156 -2.441614 3.847298 0
M  V30 3 C -0.732833 -2.288103 3.666314 0
M  V30 4 C -1.078879 -1.267476 2.610038 0
M  V30 5 N -0.579047 -1.544533 1.307474 0
M  V30 6 C 0.538973 -1.171165 0.660932 0
M  V30 7 C 1.592066 -0.281952 1.131586 0
M  V30 8 N 1.369036 1.106444 0.780122 0
M  V30 9 C 2.496886 1.843129 1.318945 0
M  V30 10 C 1.282810 1.314921 -0.637029 0
M  V30 11 C 1.053725 2.745588 -0.975580 0
M  V30 12 C 2.004012 3.702492 -1.205145 0
M  V30 13 C 1.608863 4.982251 -1.507427 0
M  V30 14 C 0.270123 5.339143 -1.588230 0
M  V30 15 C -0.667767 4.364109 -1.354401 0
M  V30 16 C -0.293263 3.064899 -1.047450 0
M  V30 17 N 0.553624 -1.738637 -0.569330 0
M  V30 18 C -0.550724 -2.485451 -0.740205 0
M  V30 19 C -1.246663 -2.351652 0.443407 0
M  V30 20 C -2.446079 -3.063653 0.469093 0
M  V30 21 O -3.165987 -3.027231 1.475542 0
M  V30 22 N -2.866699 -3.804519 -0.571464 0
M  V30 23 C -4.112703 -4.538985 -0.533694 0
M  V30 24 C -2.133010 -3.888030 -1.696288 0
M  V30 25 O -2.522370 -4.579899 -2.672457 0
M  V30 26 N -0.965694 -3.224558 -1.784272 0
M  V30 27 C -0.207929 -3.343268 -3.015337 0
M  V30 28 H 2.010815 -3.718650 5.030212 0
M  V30 29 H 0.343045 -4.382964 4.602526 0
M  V30 30 H 0.515059 -3.042675 5.864721 0
M  V30 31 H 1.273410 -2.739996 2.935865 0
M  V30 32 H 1.184069 -1.487564 4.248017 0
M  V30 33 H -1.112848 -3.282465 3.281800 0
M  V30 34 H -1.259672 -2.100968 4.617475 0
M  V30 35 H -0.690099 -0.301483 3.002230 0
M  V30 36 H -2.206849 -1.216778 2.578324 0
M  V30 37 H 2.558540 -0.555164 0.626569 0
M  V30 38 H 1.771236 -0.389754 2.195460 0
M  V30 39 H 2.216636 2.913856 1.470150 0
M  V30 40 H 3.364949 1.750676 0.610027 0
M  V30 41 H 2.821208 1.438690 2.310921 0
M  V30 42 H 0.581943 0.631952 -1.135242 0
M  V30 43 H 2.288978 1.078437 -1.092178 0
M  V30 44 H 3.014598 3.372271 -1.129731 0
M  V30 45 H 2.387251 5.728193 -1.686488 0
M  V30 46 H 0.073778 6.379217 -1.834254 0
M  V30 47 H -1.711296 4.651905 -1.419663 0
M  V30 48 H -1.109245 2.377807 -0.882235 0
M  V30 49 H -3.879570 -5.624735 -0.417160 0
M  V30 50 H -4.727999 -4.355338 -1.451451 0
M  V30 51 H -4.738101 -4.254876 0.334525 0
M  V30 52 H -0.040421 -4.446957 -3.185280 0
M  V30 53 H -0.747777 -2.944018 -3.900281 0
M  V30 54 H 0.812218 -2.924459 -2.919133 0
M  V30 END ATOM
M  V30 BEGIN BOND
M  V30 1 1 1 2
M  V30 2 1 2 3
M  V30 3 1 3 4
M  V30 4 1 4 5
M  V30 5 1 5 6
M  V30 6 1 6 7
M  V30 7 1 7 8
M  V30 8 1 8 9
M  V30 9 1 8 10
M  V30 10 1 10 11
M  V30 11 2 11 12
M  V30 12 1 12 13
M  V30 13 2 13 14
M  V30 14 1 14 15
M  V30 15 2 15 16
M  V30 16 2 6 17
M  V30 17 1 17 18
M  V30 18 2 18 19
M  V30 19 1 19 20
M  V30 20 2 20 21
M  V30 21 1 20 22
M  V30 22 1 22 23
M  V30 23 1 22 24
M  V30 24 2 24 25
M  V30 25 1 24 26
M  V30 26 1 26 27
M  V30 27 1 19 5
M  V30 28 1 16 11
M  V30 29 1 26 18
M  V30 30 1 1 28
M  V30 31 1 1 29
M  V30 32 1 1 30
M  V30 33 1 2 31
M  V30 34 1 2 32
M  V30 35 1 3 33
M  V30 36 1 3 34
M  V30 37 1 4 35
M  V30 38 1 4 36
M  V30 39 1 7 37
M  V30 40 1 7 38
M  V30 41 1 9 39
M  V30 42 1 9 40
M  V30 43 1 9 41
M  V30 44 1 10 42
M  V30 45 1 10 43
M  V30 46 1 12 44
M  V30 47 1 13 45
M  V30 48 1 14 46
M  V30 49 1 15 47
M  V30 50 1 16 48
M  V30 51 1 23 49
M  V30 52 1 23 50
M  V30 53 1 23 51
M  V30 54 1 27 52
M  V30 55 1 27 53
M  V30 56 1 27 54
M  V30 END BOND
M  V30 END CTAB
M  END
>  <Dataset>  (4) 
ChEMBL_Kinases

>  <Ligand_Instance>  (4) 
nan

>  <PDB_ID>  (4) 
nan

>  <Standardized_SMILES>  (4) 
CCCCn1c(CN(C)Cc2ccccc2)nc2c1c(=O)n(C)c(=O)n2C

>  <Name>  (4) 
nan

>  <Pocket>  (4) 
nan

>  <ATP_Site>  (4) 
nan

>  <Peripheral>  (4) 
nan

>  <Num_H_Atoms_ProtBoundConf>  (4) 
nan

>  <Num_Resolved_Atoms>  (4) 
nan

>  <Num_Not_Resolved_Atoms>  (4) 
nan

$$$$
CHEMBL1375640
     RDKit          3D

  0  0  0  0  0  0  0  0  0  0999 V3000
M  V30 BEGIN CTAB
M  V30 COUNTS 35 37 0 0 0
M  V30 BEGIN ATOM
M  V30 1 C -1.282381 -3.061125 2.453096 0
M  V30 2 C -0.354405 -1.930175 2.074247 0
M  V30 3 N 0.874946 -2.133570 1.666106 0
M  V30 4 C 1.668403 -1.271930 1.347892 0
M  V30 5 C 3.093663 -1.520766 0.894219 0
M  V30 6 O 3.223761 -1.772690 -0.456053 0
M  V30 7 C 2.926840 -0.994136 -1.525669 0
M  V30 8 C 2.424851 0.265571 -1.759332 0
M  V30 9 C 2.233255 0.790128 -3.015754 0
M  V30 10 C 2.550905 0.041286 -4.126784 0
M  V30 11 C 3.058228 -1.228090 -3.960396 0
M  V30 12 C 3.245956 -1.744791 -2.670331 0
M  V30 13 Cl 3.907001 -3.387207 -2.755462 0
M  V30 14 S 0.672767 0.198344 1.606406 0
M  V30 15 C -0.805431 -0.669517 2.158551 0
M  V30 16 C -1.986954 0.049607 2.521886 0
M  V30 17 C -3.194634 -0.444306 2.961694 0
M  V30 18 C -4.311925 0.274284 3.302989 0
M  V30 19 N -4.216369 1.610910 3.195791 0
M  V30 20 C -3.066876 2.162847 2.772613 0
M  V30 21 N -2.923122 3.585536 2.644164 0
M  V30 22 N -2.007248 1.414477 2.452661 0
M  V30 23 H -2.131806 -3.099569 1.741083 0
M  V30 24 H -1.554758 -3.047006 3.512560 0
M  V30 25 H -0.767912 -4.061927 2.318257 0
M  V30 26 H 3.669813 -0.606409 1.183592 0
M  V30 27 H 3.438550 -2.368249 1.493775 0
M  V30 28 H 2.225487 0.748183 -0.816538 0
M  V30 29 H 1.825073 1.804681 -2.970354 0
M  V30 30 H 2.367039 0.534753 -5.070539 0
M  V30 31 H 3.270601 -1.720999 -4.896404 0
M  V30 32 H -3.263660 -1.505923 3.044581 0
M  V30 33 H -5.211680 -0.215881 3.637473 0
M  V30 34 H -2.749849 4.075609 1.732129 0
M  V30 35 H -2.953964 4.356596 3.337143 0
M  V30 END ATOM
M  V30 BEGIN BOND
M  V30 1 1 1 2
M  V30 2 1 2 3
M  V30 3 2 3 4
M  V30 4 1 4 5
M  V30 5 1 5 6
M  V30 6 1 6 7
M  V30 7 2 7 8
M  V30 8 1 8 9
M  V30 9 2 9 10
M  V30 10 1 10 11
M  V30 11 2 11 12
M  V30 12 1 12 13
M  V30 13 1 4 14
M  V30 14 1 14 15
M  V30 15 1 15 16
M  V30 16 2 16 17
M  V30 17 1 17 18
M  V30 18 2 18 19
M  V30 19 1 19 20
M  V30 20 1 20 21
M  V30 21 2 20 22
M  V30 22 2 15 2
M  V30 23 1 22 16
M  V30 24 1 12 7
M  V30 25 1 1 23
M  V30 26 1 1 24
M  V30 27 1 1 25
M  V30 28 1 5 26
M  V30 29 1 5 27
M  V30 30 1 8 28
M  V30 31 1 9 29
M  V30 32 1 10 30
M  V30 33 1 11 31
M  V30 34 1 17 32
M  V30 35 1 18 33
M  V30 36 1 21 34
M  V30 37 1 21 35
M  V30 END BOND
M  V30 END CTAB
M  END
>  <Dataset>  (5) 
ChEMBL_Kinases

>  <Ligand_Instance>  (5) 
nan

>  <PDB_ID>  (5) 
nan

>  <Standardized_SMILES>  (5) 
Cc1nc(COc2ccccc2Cl)sc1-c1ccnc(N)n1

>  <Name>  (5) 
nan

>  <Pocket>  (5) 
nan

>  <ATP_Site>  (5) 
nan

>  <Peripheral>  (5) 
nan

>  <Num_H_Atoms_ProtBoundConf>  (5) 
nan

>  <Num_Resolved_Atoms>  (5) 
nan

>  <Num_Not_Resolved_Atoms>  (5) 
nan

$$$$
CHEMBL1375753
     RDKit          3D

  0  0  0  0  0  0  0  0  0  0999 V3000
M  V30 BEGIN CTAB
M  V30 COUNTS 41 44 0 0 0
M  V30 BEGIN ATOM
M  V30 1 C 1.698680 -7.333612 1.205283 0
M  V30 2 O 0.920964 -6.262411 0.769080 0
M  V30 3 C 1.395352 -4.974867 0.556360 0
M  V30 4 C 2.700224 -4.581794 0.747894 0
M  V30 5 C 3.100257 -3.262190 0.510840 0
M  V30 6 C 2.158305 -2.351592 0.077978 0
M  V30 7 C 0.857138 -2.772645 -0.105837 0
M  V30 8 N -0.100795 -1.814800 -0.553882 0
M  V30 9 C 0.302682 -0.470437 -0.796277 0
M  V30 10 N 0.756579 0.017019 -1.972637 0
M  V30 11 C 1.116497 1.302844 -2.112502 0
M  V30 12 C 1.024936 2.171275 -1.022790 0
M  V30 13 N 1.366369 3.467723 -1.087866 0
M  V30 14 C 1.266497 4.286046 -0.012908 0
M  V30 15 C 0.801463 3.769356 1.177089 0
M  V30 16 O 0.703644 4.528007 2.192144 0
M  V30 17 N 0.456100 2.473699 1.256770 0
M  V30 18 C -0.040060 1.890944 2.498615 0
M  V30 19 C -1.515964 2.050214 2.489474 0
M  V30 20 C -2.317246 3.028083 2.942250 0
M  V30 21 C -3.667029 2.956314 2.822564 0
M  V30 22 C -4.140454 1.738267 2.168228 0
M  V30 23 S -2.540926 0.833308 1.801851 0
M  V30 24 C 0.561946 1.675398 0.178326 0
M  V30 25 N 0.217745 0.368328 0.243840 0
M  V30 26 C 0.447614 -4.071606 0.124025 0
M  V30 27 H 2.213690 -7.884760 0.371951 0
M  V30 28 H 2.427968 -7.065263 2.003656 0
M  V30 29 H 1.005467 -8.072536 1.679004 0
M  V30 30 H 3.358069 -5.364874 1.086491 0
M  V30 31 H 4.165874 -3.063819 0.697502 0
M  V30 32 H 2.503985 -1.342291 -0.094543 0
M  V30 33 H -1.101196 -2.078410 -0.710021 0
M  V30 34 H 1.473681 1.675233 -3.048069 0
M  V30 35 H 1.543401 5.327783 -0.074224 0
M  V30 36 H 0.315530 2.457459 3.382819 0
M  V30 37 H 0.215206 0.815372 2.602419 0
M  V30 38 H -1.833962 3.875613 3.406947 0
M  V30 39 H -4.369060 3.702104 3.162320 0
M  V30 40 H -5.298248 1.607968 2.030282 0
M  V30 41 H -0.598085 -4.346501 -0.039363 0
M  V30 END ATOM
M  V30 BEGIN BOND
M  V30 1 1 1 2
M  V30 2 1 2 3
M  V30 3 2 3 4
M  V30 4 1 4 5
M  V30 5 2 5 6
M  V30 6 1 6 7
M  V30 7 1 7 8
M  V30 8 1 8 9
M  V30 9 2 9 10
M  V30 10 1 10 11
M  V30 11 2 11 12
M  V30 12 1 12 13
M  V30 13 2 13 14
M  V30 14 1 14 15
M  V30 15 2 15 16
M  V30 16 1 15 17
M  V30 17 1 17 18
M  V30 18 1 18 19
M  V30 19 2 19 20
M  V30 20 1 20 21
M  V30 21 2 21 22
M  V30 22 1 22 23
M  V30 23 1 17 24
M  V30 24 2 24 25
M  V30 25 2 7 26
M  V30 26 1 26 3
M  V30 27 1 25 9
M  V30 28 1 24 12
M  V30 29 1 23 19
M  V30 30 1 1 27
M  V30 31 1 1 28
M  V30 32 1 1 29
M  V30 33 1 4 30
M  V30 34 1 5 31
M  V30 35 1 6 32
M  V30 36 1 8 33
M  V30 37 1 11 34
M  V30 38 1 14 35
M  V30 39 1 18 36
M  V30 40 1 18 37
M  V30 41 1 20 38
M  V30 42 1 21 39
M  V30 43 1 22 40
M  V30 44 1 26 41
M  V30 END BOND
M  V30 END CTAB
M  END
>  <Dataset>  (6) 
ChEMBL_Kinases

>  <Ligand_Instance>  (6) 
nan

>  <PDB_ID>  (6) 
nan

>  <Standardized_SMILES>  (6) 
COc1cccc(Nc2ncc3ncc(=O)n(Cc4cccs4)c3n2)c1

>  <Name>  (6) 
nan

>  <Pocket>  (6) 
nan

>  <ATP_Site>  (6) 
nan

>  <Peripheral>  (6) 
nan

>  <Num_H_Atoms_ProtBoundConf>  (6) 
nan

>  <Num_Resolved_Atoms>  (6) 
nan

>  <Num_Not_Resolved_Atoms>  (6) 
nan

$$$$
CHEMBL1375942
     RDKit          3D

  0  0  0  0  0  0  0  0  0  0999 V3000
M  V30 BEGIN CTAB
M  V30 COUNTS 94 98 0 0 0
M  V30 BEGIN ATOM
M  V30 1 C -3.711972 -0.979888 4.361352 0
M  V30 2 O -4.548135 -1.137743 3.236938 0
M  V30 3 C -4.060014 -1.645194 2.048206 0
M  V30 4 C -2.738627 -2.009449 1.931866 0
M  V30 5 C -2.222040 -2.513951 0.775143 0
M  V30 6 C -0.856970 -2.950442 0.417516 0
M  V30 7 C -0.022814 -3.085957 1.697062 0
M  V30 8 C 1.365050 -3.529822 1.392464 0
M  V30 9 N 2.187530 -3.686271 2.554485 0
M  V30 10 C 3.528181 -4.184806 2.171804 0
M  V30 11 C 4.598643 -3.767148 3.119672 0
M  V30 12 C 4.115628 -3.688468 4.563305 0
M  V30 13 C 2.977924 -2.717857 4.644702 0
M  V30 14 C 3.385646 -1.438373 5.310517 0
M  V30 15 C 2.433567 -2.443658 3.234963 0
M  V30 16 C -0.261138 -1.894757 -0.465657 0
M  V30 17 C 0.313553 -2.315648 -1.670111 0
M  V30 18 O 0.305980 -3.669072 -1.972288 0
M  V30 19 C 0.857634 -4.198289 -3.157168 0
M  V30 20 C 0.883571 -1.431003 -2.560042 0
M  V30 21 C 0.878643 -0.089295 -2.237297 0
M  V30 22 O 1.444892 0.825348 -3.113517 0
M  V30 23 C 2.023056 0.387024 -4.328347 0
M  V30 24 C 0.332501 0.363205 -1.080397 0
M  V30 25 C -0.240380 -0.552414 -0.191641 0
M  V30 26 O -0.819605 -0.181089 1.011316 0
M  V30 27 C -0.879174 1.124234 1.432751 0
M  V30 28 O -0.942855 1.519170 2.624523 0
M  V30 29 C -0.859435 2.059985 0.277386 0
M  V30 30 C 0.279294 1.765257 -0.660384 0
M  V30 31 C 0.283159 2.757853 -1.729562 0
M  V30 32 C -0.864876 3.110836 -2.363306 0
M  V30 33 C -0.929694 4.045264 -3.381055 0
M  V30 34 C 0.219504 4.682464 -3.810312 0
M  V30 35 N 0.182710 5.648739 -4.855294 0
M  V30 36 C 1.398319 6.316735 -5.300282 0
M  V30 37 C -1.112609 5.956241 -5.473499 0
M  V30 38 C 1.415796 4.364112 -3.202966 0
M  V30 39 C 1.424708 3.417795 -2.184924 0
M  V30 40 C -3.079055 -2.661063 -0.323359 0
M  V30 41 C -4.423980 -2.291424 -0.208616 0
M  V30 42 O -5.345650 -2.396291 -1.229837 0
M  V30 43 C -4.974143 -2.894294 -2.477789 0
M  V30 44 C -4.929602 -1.783760 0.964551 0
M  V30 45 O -6.262713 -1.403197 1.121293 0
M  V30 46 C -6.694285 -0.077021 0.840100 0
M  V30 47 H -4.401541 -0.906937 5.250207 0
M  V30 48 H -3.175545 -0.027484 4.294716 0
M  V30 49 H -2.988396 -1.808672 4.505630 0
M  V30 50 H -2.028026 -1.931221 2.721998 0
M  V30 51 H -0.812512 -3.922116 -0.065430 0
M  V30 52 H -0.077786 -2.106944 2.256177 0
M  V30 53 H -0.529794 -3.863425 2.306277 0
M  V30 54 H 1.285755 -4.503367 0.856656 0
M  V30 55 H 1.790636 -2.799154 0.663978 0
M  V30 56 H 3.514874 -5.271936 2.066136 0
M  V30 57 H 3.715332 -3.727174 1.163182 0
M  V30 58 H 5.411430 -4.552162 3.110832 0
M  V30 59 H 5.057117 -2.798368 2.902386 0
M  V30 60 H 3.843927 -4.689358 4.951404 0
M  V30 61 H 4.942034 -3.311751 5.176604 0
M  V30 62 H 2.169034 -3.204465 5.242406 0
M  V30 63 H 4.318473 -1.603085 5.890452 0
M  V30 64 H 3.567760 -0.633395 4.591093 0
M  V30 65 H 2.595025 -1.143345 6.051275 0
M  V30 66 H 3.234734 -1.914331 2.675454 0
M  V30 67 H 1.527658 -1.860095 3.364429 0
M  V30 68 H 1.826821 -3.688143 -3.398042 0
M  V30 69 H 1.146022 -5.274682 -3.028296 0
M  V30 70 H 0.136067 -4.143061 -3.982469 0
M  V30 71 H 1.337213 -1.712803 -3.499077 0
M  V30 72 H 2.926800 -0.241816 -4.177457 0
M  V30 73 H 1.236574 -0.207489 -4.877612 0
M  V30 74 H 2.223718 1.264147 -4.974107 0
M  V30 75 H -1.838604 2.061309 -0.224486 0
M  V30 76 H -0.679848 3.078461 0.696845 0
M  V30 77 H 1.216266 1.943105 -0.052304 0
M  V30 78 H -1.838175 2.705532 -2.146343 0
M  V30 79 H -1.842789 4.338439 -3.899074 0
M  V30 80 H 1.770240 7.059024 -4.586401 0
M  V30 81 H 1.252739 6.735564 -6.324463 0
M  V30 82 H 2.132371 5.475440 -5.455251 0
M  V30 83 H -1.037653 6.758030 -6.206056 0
M  V30 84 H -1.506192 5.056251 -6.012621 0
M  V30 85 H -1.828589 6.304115 -4.694559 0
M  V30 86 H 2.362838 4.830096 -3.493555 0
M  V30 87 H 2.389138 3.176699 -1.711891 0
M  V30 88 H -2.831444 -3.044250 -1.308953 0
M  V30 89 H -5.759968 -2.591163 -3.227271 0
M  V30 90 H -4.798314 -3.981752 -2.449081 0
M  V30 91 H -4.034177 -2.423312 -2.879833 0
M  V30 92 H -7.068992 0.375876 1.763598 0
M  V30 93 H -7.526654 -0.075722 0.104133 0
M  V30 94 H -5.863069 0.565336 0.475508 0
M  V30 END ATOM
M  V30 BEGIN BOND
M  V30 1 1 1 2
M  V30 2 1 2 3
M  V30 3 2 3 4
M  V30 4 1 4 5
M  V30 5 1 5 6
M  V30 6 1 6 7
M  V30 7 1 7 8
M  V30 8 1 8 9
M  V30 9 1 9 10
M  V30 10 1 10 11
M  V30 11 1 11 12
M  V30 12 1 12 13
M  V30 13 1 13 14
M  V30 14 1 13 15
M  V30 15 1 6 16
M  V30 16 2 16 17
M  V30 17 1 17 18
M  V30 18 1 18 19
M  V30 19 1 17 20
M  V30 20 2 20 21
M  V30 21 1 21 22
M  V30 22 1 22 23
M  V30 23 1 21 24
M  V30 24 2 24 25
M  V30 25 1 25 26
M  V30 26 1 26 27
M  V30 27 2 27 28
M  V30 28 1 27 29
M  V30 29 1 29 30
M  V30 30 1 30 31
M  V30 31 2 31 32
M  V30 32 1 32 33
M  V30 33 2 33 34
M  V30 34 1 34 35
M  V30 35 1 35 36
M  V30 36 1 35 37
M  V30 37 1 34 38
M  V30 38 2 38 39
M  V30 39 2 5 40
M  V30 40 1 40 41
M  V30 41 1 41 42
M  V30 42 1 42 43
M  V30 43 2 41 44
M  V30 44 1 44 45
M  V30 45 1 45 46
M  V30 46 1 44 3
M  V30 47 1 15 9
M  V30 48 1 25 16
M  V30 49 1 39 31
M  V30 50 1 30 24
M  V30 51 1 1 47
M  V30 52 1 1 48
M  V30 53 1 1 49
M  V30 54 1 4 50
M  V30 55 1 6 51
M  V30 56 1 7 52
M  V30 57 1 7 53
M  V30 58 1 8 54
M  V30 59 1 8 55
M  V30 60 1 10 56
M  V30 61 1 10 57
M  V30 62 1 11 58
M  V30 63 1 11 59
M  V30 64 1 12 60
M  V30 65 1 12 61
M  V30 66 1 13 62
M  V30 67 1 14 63
M  V30 68 1 14 64
M  V30 69 1 14 65
M  V30 70 1 15 66
M  V30 71 1 15 67
M  V30 72 1 19 68
M  V30 73 1 19 69
M  V30 74 1 19 70
M  V30 75 1 20 71
M  V30 76 1 23 72
M  V30 77 1 23 73
M  V30 78 1 23 74
M  V30 79 1 29 75
M  V30 80 1 29 76
M  V30 81 1 30 77
M  V30 82 1 32 78
M  V30 83 1 33 79
M  V30 84 1 36 80
M  V30 85 1 36 81
M  V30 86 1 36 82
M  V30 87 1 37 83
M  V30 88 1 37 84
M  V30 89 1 37 85
M  V30 90 1 38 86
M  V30 91 1 39 87
M  V30 92 1 40 88
M  V30 93 1 43 89
M  V30 94 1 43 90
M  V30 95 1 43 91
M  V30 96 1 46 92
M  V30 97 1 46 93
M  V30 98 1 46 94
M  V30 END BOND
M  V30 END CTAB
M  END
>  <Dataset>  (7) 
ChEMBL_Kinases

>  <Ligand_Instance>  (7) 
nan

>  <PDB_ID>  (7) 
nan

>  <Standardized_SMILES>  (7) 
COc1cc(C(CCN2CCCC(C)C2)c2c(OC)cc(OC)c3c2OC(=O)CC3c2ccc(N(C)C)cc2)cc(OC)c1OC

>  <Name>  (7) 
nan

>  <Pocket>  (7) 
nan

>  <ATP_Site>  (7) 
nan

>  <Peripheral>  (7) 
nan

>  <Num_H_Atoms_ProtBoundConf>  (7) 
nan

>  <Num_Resolved_Atoms>  (7) 
nan

>  <Num_Not_Resolved_Atoms>  (7) 
nan

$$$$
CHEMBL137597
     RDKit          3D

  0  0  0  0  0  0  0  0  0  0999 V3000
M  V30 BEGIN CTAB
M  V30 COUNTS 77 77 0 0 0
M  V30 BEGIN ATOM
M  V30 1 C 1.319893 -0.482163 1.445348 0
M  V30 2 C 2.171659 -1.706255 1.240884 0
M  V30 3 C 2.718031 -2.129001 2.635874 0
M  V30 4 C 3.302638 -1.504749 0.315620 0
M  V30 5 C 3.097591 -1.086763 -1.074557 0
M  V30 6 C 2.324719 -1.910153 -2.039157 0
M  V30 7 C 0.948495 -2.096026 -1.694453 0
M  V30 8 C -0.017028 -1.579959 -2.467457 0
M  V30 9 C -1.520864 -1.580524 -2.409277 0
M  V30 10 C -1.856360 -0.223177 -2.981496 0
M  V30 11 C -3.209725 -0.158940 -3.632689 0
M  V30 12 O -3.318712 -1.001450 -4.724273 0
M  V30 13 C -1.887061 0.720470 -1.774190 0
M  V30 14 O -2.988906 0.280808 -0.962100 0
M  V30 15 C -3.257571 0.921319 0.201856 0
M  V30 16 O -2.266473 1.701740 -0.016137 0
M  V30 17 C -3.973992 1.187663 1.431814 0
M  V30 18 C -3.276038 0.669810 2.689505 0
M  V30 19 C -3.097769 -0.795718 2.698661 0
M  V30 20 C -2.314845 -1.346849 1.542263 0
M  V30 21 C -2.266331 -1.195476 3.935760 0
M  V30 22 C -4.108690 1.245455 3.802018 0
M  V30 23 C -4.122226 2.767099 3.734043 0
M  V30 24 C -3.847766 0.845794 5.185352 0
M  V30 25 O -0.817782 0.140161 -3.866154 0
M  V30 26 C 0.228257 -0.793884 -3.706038 0
M  V30 27 O 1.155145 -0.866336 -4.522940 0
M  V30 28 C 4.416952 -0.563294 -1.637230 0
M  V30 29 C 5.516363 -1.551890 -1.612255 0
M  V30 30 C 5.324018 -2.814964 -2.400773 0
M  V30 31 C 6.839730 -0.931211 -2.073352 0
M  V30 32 H 1.927343 0.420292 1.673850 0
M  V30 33 H 0.601542 -0.707670 2.261441 0
M  V30 34 H 0.719993 -0.314201 0.533829 0
M  V30 35 H 1.551918 -2.549333 0.951859 0
M  V30 36 H 3.430053 -2.932766 2.453395 0
M  V30 37 H 3.104404 -1.259901 3.185672 0
M  V30 38 H 1.846720 -2.535973 3.180973 0
M  V30 39 H 3.848323 -2.511684 0.278677 0
M  V30 40 H 4.098920 -0.862648 0.821576 0
M  V30 41 H 2.513835 -0.069259 -0.953125 0
M  V30 42 H 2.597515 -1.607826 -3.033717 0
M  V30 43 H 2.782729 -2.970972 -1.955236 0
M  V30 44 H 0.403667 -2.603877 -0.915638 0
M  V30 45 H -1.790633 -1.664095 -1.358668 0
M  V30 46 H -1.941484 -2.407339 -2.991662 0
M  V30 47 H -3.336308 0.891087 -3.982105 0
M  V30 48 H -4.015796 -0.309914 -2.888210 0
M  V30 49 H -3.930100 -1.747727 -4.583505 0
M  V30 50 H -0.934805 0.543816 -1.240601 0
M  V30 51 H -2.032308 1.742922 -2.140185 0
M  V30 52 H -5.042234 0.850107 1.415946 0
M  V30 53 H -4.080615 2.304885 1.539229 0
M  V30 54 H -2.283552 1.162211 2.719187 0
M  V30 55 H -4.076477 -1.302004 2.738015 0
M  V30 56 H -1.561307 -0.626032 1.192965 0
M  V30 57 H -1.703074 -2.216381 1.927816 0
M  V30 58 H -2.927144 -1.779758 0.749359 0
M  V30 59 H -1.706891 -2.162808 3.688217 0
M  V30 60 H -2.872211 -1.474531 4.792633 0
M  V30 61 H -1.442227 -0.482247 4.103407 0
M  V30 62 H -5.172084 0.939472 3.557619 0
M  V30 63 H -3.233127 3.152957 3.193933 0
M  V30 64 H -4.097946 3.202332 4.753241 0
M  V30 65 H -4.994084 3.137058 3.158423 0
M  V30 66 H -2.793301 0.792052 5.502386 0
M  V30 67 H -4.244427 1.706484 5.837808 0
M  V30 68 H -4.482297 -0.000179 5.557455 0
M  V30 69 H 4.663816 0.386560 -1.120330 0
M  V30 70 H 4.166320 -0.292160 -2.707681 0
M  V30 71 H 5.676477 -1.878675 -0.538927 0
M  V30 72 H 6.337089 -3.186938 -2.789336 0
M  V30 73 H 4.993659 -3.689209 -1.774975 0
M  V30 74 H 4.687953 -2.716887 -3.290577 0
M  V30 75 H 7.580414 -1.741931 -2.155417 0
M  V30 76 H 7.169411 -0.137714 -1.399074 0
M  V30 77 H 6.638715 -0.564122 -3.108737 0
M  V30 END ATOM
M  V30 BEGIN BOND
M  V30 1 1 1 2
M  V30 2 1 2 3
M  V30 3 1 2 4
M  V30 4 1 4 5
M  V30 5 1 5 6
M  V30 6 1 6 7
M  V30 7 2 7 8
M  V30 8 1 8 9
M  V30 9 1 9 10
M  V30 10 1 10 11
M  V30 11 1 11 12
M  V30 12 1 10 13
M  V30 13 1 13 14
M  V30 14 1 14 15
M  V30 15 2 15 16
M  V30 16 1 15 17
M  V30 17 1 17 18
M  V30 18 1 18 19
M  V30 19 1 19 20
M  V30 20 1 19 21
M  V30 21 1 18 22
M  V30 22 1 22 23
M  V30 23 1 22 24
M  V30 24 1 10 25
M  V30 25 1 25 26
M  V30 26 2 26 27
M  V30 27 1 5 28
M  V30 28 1 28 29
M  V30 29 1 29 30
M  V30 30 1 29 31
M  V30 31 1 26 8
M  V30 32 1 1 32
M  V30 33 1 1 33
M  V30 34 1 1 34
M  V30 35 1 2 35
M  V30 36 1 3 36
M  V30 37 1 3 37
M  V30 38 1 3 38
M  V30 39 1 4 39
M  V30 40 1 4 40
M  V30 41 1 5 41
M  V30 42 1 6 42
M  V30 43 1 6 43
M  V30 44 1 7 44
M  V30 45 1 9 45
M  V30 46 1 9 46
M  V30 47 1 11 47
M  V30 48 1 11 48
M  V30 49 1 12 49
M  V30 50 1 13 50
M  V30 51 1 13 51
M  V30 52 1 17 52
M  V30 53 1 17 53
M  V30 54 1 18 54
M  V30 55 1 19 55
M  V30 56 1 20 56
M  V30 57 1 20 57
M  V30 58 1 20 58
M  V30 59 1 21 59
M  V30 60 1 21 60
M  V30 61 1 21 61
M  V30 62 1 22 62
M  V30 63 1 23 63
M  V30 64 1 23 64
M  V30 65 1 23 65
M  V30 66 1 24 66
M  V30 67 1 24 67
M  V30 68 1 24 68
M  V30 69 1 28 69
M  V30 70 1 28 70
M  V30 71 1 29 71
M  V30 72 1 30 72
M  V30 73 1 30 73
M  V30 74 1 30 74
M  V30 75 1 31 75
M  V30 76 1 31 76
M  V30 77 1 31 77
M  V30 END BOND
M  V30 END CTAB
M  END
>  <Dataset>  (8) 
ChEMBL_Kinases

>  <Ligand_Instance>  (8) 
nan

>  <PDB_ID>  (8) 
nan

>  <Standardized_SMILES>  (8) 
CC(C)CC(C/C=C1/CC(CO)(COC(=O)CC(C(C)C)C(C)C)OC1=O)CC(C)C

>  <Name>  (8) 
nan

>  <Pocket>  (8) 
nan

>  <ATP_Site>  (8) 
nan

>  <Peripheral>  (8) 
nan

>  <Num_H_Atoms_ProtBoundConf>  (8) 
nan

>  <Num_Resolved_Atoms>  (8) 
nan

>  <Num_Not_Resolved_Atoms>  (8) 
nan

$$$$
CHEMBL1376116
     RDKit          3D

  0  0  0  0  0  0  0  0  0  0999 V3000
M  V30 BEGIN CTAB
M  V30 COUNTS 39 41 0 0 0
M  V30 BEGIN ATOM
M  V30 1 N 0.189819 -3.898358 3.932715 0
M  V30 2 C 0.190888 -2.848169 2.951808 0
M  V30 3 N 0.941553 -3.025397 1.872181 0
M  V30 4 C 1.070896 -2.164838 0.856022 0
M  V30 5 N 1.904480 -2.463521 -0.251927 0
M  V30 6 C 2.159218 -1.682852 -1.383519 0
M  V30 7 C 1.667190 -0.423675 -1.634546 0
M  V30 8 C 1.914912 0.347022 -2.749505 0
M  V30 9 C 2.735754 -0.183511 -3.719652 0
M  V30 10 C 3.262762 -1.442166 -3.531340 0
M  V30 11 F 4.070324 -1.961357 -4.489296 0
M  V30 12 C 2.972297 -2.154780 -2.391961 0
M  V30 13 N 0.356016 -1.067624 1.019410 0
M  V30 14 C -0.439269 -0.760902 2.052158 0
M  V30 15 N -1.161150 0.464021 2.113514 0
M  V30 16 C -1.195173 1.613918 3.007107 0
M  V30 17 C -0.788315 2.845123 2.221507 0
M  V30 18 O -1.527608 3.014529 1.077572 0
M  V30 19 C -1.640317 1.899620 0.283081 0
M  V30 20 C -2.131846 0.684799 1.042157 0
M  V30 21 C -0.533598 -1.684137 3.068052 0
M  V30 22 N -1.334250 -1.490644 4.212807 0 CHG=1 VAL=4
M  V30 23 O -1.185235 -0.755738 5.209182 0
M  V30 24 O -2.453043 -2.278127 4.154859 0 CHG=-1 VAL=1
M  V30 25 H 0.744096 -4.310738 4.707899 0
M  V30 26 H -0.703537 -4.448591 3.819077 0
M  V30 27 H 2.397890 -3.405971 -0.210017 0
M  V30 28 H 1.021094 0.043631 -0.911874 0
M  V30 29 H 1.479952 1.345362 -2.870727 0
M  V30 30 H 2.946196 0.402772 -4.605168 0
M  V30 31 H 3.434704 -3.150045 -2.326101 0
M  V30 32 H -2.235889 1.765201 3.360279 0
M  V30 33 H -0.462219 1.495360 3.818558 0
M  V30 34 H 0.310419 2.798658 2.038958 0
M  V30 35 H -0.954579 3.719436 2.885963 0
M  V30 36 H -0.675884 1.610254 -0.224657 0
M  V30 37 H -2.404599 2.116487 -0.489236 0
M  V30 38 H -3.133738 0.956982 1.479408 0
M  V30 39 H -2.223244 -0.162838 0.351369 0
M  V30 END ATOM
M  V30 BEGIN BOND
M  V30 1 1 1 2
M  V30 2 2 2 3
M  V30 3 1 3 4
M  V30 4 1 4 5
M  V30 5 1 5 6
M  V30 6 2 6 7
M  V30 7 1 7 8
M  V30 8 2 8 9
M  V30 9 1 9 10
M  V30 10 1 10 11
M  V30 11 2 10 12
M  V30 12 2 4 13
M  V30 13 1 13 14
M  V30 14 1 14 15
M  V30 15 1 15 16
M  V30 16 1 16 17
M  V30 17 1 17 18
M  V30 18 1 18 19
M  V30 19 1 19 20
M  V30 20 2 14 21
M  V30 21 1 21 22
M  V30 22 2 22 23
M  V30 23 1 22 24
M  V30 24 1 21 2
M  V30 25 1 12 6
M  V30 26 1 20 15
M  V30 27 1 1 25
M  V30 28 1 1 26
M  V30 29 1 5 27
M  V30 30 1 7 28
M  V30 31 1 8 29
M  V30 32 1 9 30
M  V30 33 1 12 31
M  V30 34 1 16 32
M  V30 35 1 16 33
M  V30 36 1 17 34
M  V30 37 1 17 35
M  V30 38 1 19 36
M  V30 39 1 19 37
M  V30 40 1 20 38
M  V30 41 1 20 39
M  V30 END BOND
M  V30 END CTAB
M  END
>  <Dataset>  (9) 
ChEMBL_Kinases

>  <Ligand_Instance>  (9) 
nan

>  <PDB_ID>  (9) 
nan

>  <Standardized_SMILES>  (9) 
Nc1nc(Nc2cccc(F)c2)nc(N2CCOCC2)c1[N+](=O)[O-]

>  <Name>  (9) 
nan

>  <Pocket>  (9) 
nan

>  <ATP_Site>  (9) 
nan

>  <Peripheral>  (9) 
nan

>  <Num_H_Atoms_ProtBoundConf>  (9) 
nan

>  <Num_Resolved_Atoms>  (9) 
nan

>  <Num_Not_Resolved_Atoms>  (9) 
nan

$$$$
CHEMBL1376234
     RDKit          3D

  0  0  0  0  0  0  0  0  0  0999 V3000
M  V30 BEGIN CTAB
M  V30 COUNTS 43 45 0 0 0
M  V30 BEGIN ATOM
M  V30 1 C 1.931334 -5.191831 2.219700 0
M  V30 2 O 1.110478 -5.182725 1.063777 0
M  V30 3 C 1.213524 -4.219318 0.075601 0
M  V30 4 C 2.107280 -3.172675 0.092816 0
M  V30 5 C 2.174620 -2.230127 -0.920675 0
M  V30 6 C 1.309363 -2.325249 -2.016113 0
M  V30 7 S 1.465778 -1.105378 -3.231184 0
M  V30 8 O 1.109881 -1.643451 -4.579028 0
M  V30 9 O 2.903695 -0.635533 -3.291247 0
M  V30 10 C 0.421218 0.293020 -2.906433 0
M  V30 11 C 0.746126 0.933399 -1.604301 0
M  V30 12 C 1.657756 1.955870 -1.380091 0
M  V30 13 C 1.657481 2.263319 -0.017138 0
M  V30 14 C 0.723896 1.389157 0.519157 0
M  V30 15 C 0.358359 1.320324 1.940175 0
M  V30 16 O 0.956171 2.131684 2.711561 0
M  V30 17 N -0.610131 0.386078 2.374642 0
M  V30 18 C -0.980986 0.307634 3.778245 0
M  V30 19 C -1.540814 1.574832 4.303943 0
M  V30 20 C -2.863747 1.990045 4.329080 0
M  V30 21 C -2.855075 3.232484 4.916490 0
M  V30 22 C -1.534266 3.495162 5.210966 0
M  V30 23 O -0.778526 2.483220 4.831013 0
M  V30 24 O 0.235764 0.652175 -0.440177 0
M  V30 25 C 0.425588 -3.371319 -2.020080 0
M  V30 26 C 0.364648 -4.309819 -1.002414 0
M  V30 27 H 2.966422 -4.823120 1.983262 0
M  V30 28 H 2.049197 -6.231770 2.613855 0
M  V30 29 H 1.516619 -4.524263 2.974667 0
M  V30 30 H 2.783818 -3.084006 0.932543 0
M  V30 31 H 2.893126 -1.446821 -0.838555 0
M  V30 32 H 0.396520 0.996784 -3.740595 0
M  V30 33 H -0.637274 -0.082586 -2.808250 0
M  V30 34 H 2.251124 2.409287 -2.173489 0
M  V30 35 H 2.262258 3.015697 0.459629 0
M  V30 36 H -1.033291 -0.232930 1.630550 0
M  V30 37 H -0.172537 -0.101136 4.409572 0
M  V30 38 H -1.810018 -0.433909 3.837970 0
M  V30 39 H -3.670816 1.369288 3.931961 0
M  V30 40 H -3.744018 3.823027 5.080392 0
M  V30 41 H -1.172248 4.415238 5.691876 0
M  V30 42 H -0.220166 -3.393695 -2.894742 0
M  V30 43 H -0.393164 -5.075444 -1.160139 0
M  V30 END ATOM
M  V30 BEGIN BOND
M  V30 1 1 1 2
M  V30 2 1 2 3
M  V30 3 2 3 4
M  V30 4 1 4 5
M  V30 5 2 5 6
M  V30 6 1 6 7
M  V30 7 2 7 8
M  V30 8 2 7 9
M  V30 9 1 7 10
M  V30 10 1 10 11
M  V30 11 2 11 12
M  V30 12 1 12 13
M  V30 13 2 13 14
M  V30 14 1 14 15
M  V30 15 2 15 16
M  V30 16 1 15 17
M  V30 17 1 17 18
M  V30 18 1 18 19
M  V30 19 2 19 20
M  V30 20 1 20 21
M  V30 21 2 21 22
M  V30 22 1 22 23
M  V30 23 1 14 24
M  V30 24 1 6 25
M  V30 25 2 25 26
M  V30 26 1 26 3
M  V30 27 1 24 11
M  V30 28 1 23 19
M  V30 29 1 1 27
M  V30 30 1 1 28
M  V30 31 1 1 29
M  V30 32 1 4 30
M  V30 33 1 5 31
M  V30 34 1 10 32
M  V30 35 1 10 33
M  V30 36 1 12 34
M  V30 37 1 13 35
M  V30 38 1 17 36
M  V30 39 1 18 37
M  V30 40 1 18 38
M  V30 41 1 20 39
M  V30 42 1 21 40
M  V30 43 1 22 41
M  V30 44 1 25 42
M  V30 45 1 26 43
M  V30 END BOND
M  V30 END CTAB
M  END
>  <Dataset>  (10) 
ChEMBL_Kinases

>  <Ligand_Instance>  (10) 
nan

>  <PDB_ID>  (10) 
nan

>  <Standardized_SMILES>  (10) 
COc1ccc(S(=O)(=O)Cc2ccc(C(=O)NCc3ccco3)o2)cc1

>  <Name>  (10) 
nan

>  <Pocket>  (10) 
nan

>  <ATP_Site>  (10) 
nan

>  <Peripheral>  (10) 
nan

>  <Num_H_Atoms_ProtBoundConf>  (10) 
nan

>  <Num_Resolved_Atoms>  (10) 
nan

>  <Num_Not_Resolved_Atoms>  (10) 
nan

$$$$
CHEMBL1376318
     RDKit          3D

  0  0  0  0  0  0  0  0  0  0999 V3000
M  V30 BEGIN CTAB
M  V30 COUNTS 43 46 0 0 0
M  V30 BEGIN ATOM
M  V30 1 O -5.773613 -2.094645 -1.918375 0
M  V30 2 C -4.595000 -1.645030 -1.962130 0
M  V30 3 O -3.861117 -1.866303 -0.897972 0
M  V30 4 C -2.601708 -1.438374 -0.830620 0
M  V30 5 C -1.838752 -1.687590 0.317411 0
M  V30 6 C -0.514023 -1.236789 0.386623 0
M  V30 7 O 0.067013 -1.580855 1.596303 0
M  V30 8 C 1.352873 -1.243174 1.986418 0
M  V30 9 C 2.262747 -2.244324 2.260930 0
M  V30 10 C 3.551329 -1.945919 2.652401 0
M  V30 11 C 3.913204 -0.614974 2.764327 0
M  V30 12 C 5.300897 -0.212547 3.186540 0
M  V30 13 F 6.233129 -1.186370 2.889978 0
M  V30 14 F 5.693383 0.952999 2.563242 0
M  V30 15 F 5.316986 0.003981 4.566838 0
M  V30 16 C 3.016591 0.411836 2.493904 0
M  V30 17 C 1.721304 0.081515 2.100409 0
M  V30 18 N 0.845030 1.156635 1.841817 0 CHG=1 VAL=4
M  V30 19 O -0.388756 1.298791 1.970528 0
M  V30 20 O 1.385226 2.324564 1.343994 0 CHG=-1 VAL=1
M  V30 21 C 0.001281 -0.552562 -0.695085 0
M  V30 22 C -0.778573 -0.324647 -1.809916 0
M  V30 23 C -2.086121 -0.752860 -1.914412 0
M  V30 24 C -2.815206 -0.493536 -3.057587 0
M  V30 25 C -4.110840 -0.970745 -3.046308 0
M  V30 26 C -4.978274 -0.749438 -4.215712 0
M  V30 27 C -4.631076 0.567667 -4.813207 0
M  V30 28 C -3.199830 0.770403 -5.162975 0
M  V30 29 C -2.198499 0.250930 -4.188265 0
M  V30 30 H -2.360398 -2.233811 1.092849 0
M  V30 31 H 1.983784 -3.283637 2.174647 0
M  V30 32 H 4.283434 -2.708458 2.873374 0
M  V30 33 H 3.335345 1.445801 2.592121 0
M  V30 34 H 1.026817 -0.249429 -0.549855 0
M  V30 35 H -0.269268 0.219823 -2.592330 0
M  V30 36 H -4.879677 -1.546810 -4.979819 0
M  V30 37 H -6.023567 -0.672103 -3.846582 0
M  V30 38 H -4.985059 1.415544 -4.177034 0
M  V30 39 H -5.231566 0.666024 -5.757410 0
M  V30 40 H -3.024375 0.324461 -6.185972 0
M  V30 41 H -3.086900 1.877704 -5.357074 0
M  V30 42 H -1.607875 1.120368 -3.833240 0
M  V30 43 H -1.537791 -0.502729 -4.704189 0
M  V30 END ATOM
M  V30 BEGIN BOND
M  V30 1 2 1 2
M  V30 2 1 2 3
M  V30 3 1 3 4
M  V30 4 2 4 5
M  V30 5 1 5 6
M  V30 6 1 6 7
M  V30 7 1 7 8
M  V30 8 2 8 9
M  V30 9 1 9 10
M  V30 10 2 10 11
M  V30 11 1 11 12
M  V30 12 1 12 13
M  V30 13 1 12 14
M  V30 14 1 12 15
M  V30 15 1 11 16
M  V30 16 2 16 17
M  V30 17 1 17 18
M  V30 18 2 18 19
M  V30 19 1 18 20
M  V30 20 2 6 21
M  V30 21 1 21 22
M  V30 22 2 22 23
M  V30 23 1 23 24
M  V30 24 2 24 25
M  V30 25 1 25 26
M  V30 26 1 26 27
M  V30 27 1 27 28
M  V30 28 1 28 29
M  V30 29 1 25 2
M  V30 30 1 23 4
M  V30 31 1 29 24
M  V30 32 1 17 8
M  V30 33 1 5 30
M  V30 34 1 9 31
M  V30 35 1 10 32
M  V30 36 1 16 33
M  V30 37 1 21 34
M  V30 38 1 22 35
M  V30 39 1 26 36
M  V30 40 1 26 37
M  V30 41 1 27 38
M  V30 42 1 27 39
M  V30 43 1 28 40
M  V30 44 1 28 41
M  V30 45 1 29 42
M  V30 46 1 29 43
M  V30 END BOND
M  V30 END CTAB
M  END
>  <Dataset>  (11) 
ChEMBL_Kinases

>  <Ligand_Instance>  (11) 
nan

>  <PDB_ID>  (11) 
nan

>  <Standardized_SMILES>  (11) 
O=c1oc2cc(Oc3ccc(C(F)(F)F)cc3[N+](=O)[O-])ccc2c2c1CCCC2

>  <Name>  (11) 
nan

>  <Pocket>  (11) 
nan

>  <ATP_Site>  (11) 
nan

>  <Peripheral>  (11) 
nan

>  <Num_H_Atoms_ProtBoundConf>  (11) 
nan

>  <Num_Resolved_Atoms>  (11) 
nan

>  <Num_Not_Resolved_Atoms>  (11) 
nan

$$$$
CHEMBL1375223
     RDKit          3D

  0  0  0  0  0  0  0  0  0  0999 V3000
M  V30 BEGIN CTAB
M  V30 COUNTS 31 32 0 0 0
M  V30 BEGIN ATOM
M  V30 1 O 0.080333 -0.539807 0.946280 0
M  V30 2 C 0.658624 -0.438847 -0.152201 0
M  V30 3 C 1.181877 -1.423555 -1.120461 0
M  V30 4 C 0.980373 -2.842737 -0.704722 0
M  V30 5 S 1.832213 -3.116237 0.871297 0
M  V30 6 C 0.565652 -3.699949 2.031402 0
M  V30 7 C -0.325563 -4.642662 1.238605 0
M  V30 8 N -1.173321 -3.938337 0.310366 0
M  V30 9 C -0.423862 -3.275157 -0.705974 0
M  V30 10 O -0.876553 -2.928730 -1.849080 0
M  V30 11 N 0.813114 0.937897 -0.477868 0
M  V30 12 C 0.282545 1.848683 0.506018 0
M  V30 13 C 1.212978 2.198400 1.462520 0
M  V30 14 C 0.816637 3.069614 2.460389 0
M  V30 15 C -0.485463 3.541322 2.445758 0
M  V30 16 Cl -0.996174 4.657273 3.722376 0
M  V30 17 C -1.414888 3.179366 1.472911 0
M  V30 18 C -0.995358 2.302137 0.478590 0
M  V30 19 H 2.261942 -1.247878 -1.270209 0
M  V30 20 H 0.707146 -1.216689 -2.102039 0
M  V30 21 H 1.543384 -3.471892 -1.444427 0
M  V30 22 H -0.074736 -2.875277 2.389984 0
M  V30 23 H 1.011621 -4.293674 2.847791 0
M  V30 24 H -1.010796 -5.078422 2.003896 0
M  V30 25 H 0.236222 -5.482552 0.808042 0
M  V30 26 H -2.225402 -3.805784 0.217749 0
M  V30 27 H 1.267148 1.339858 -1.348015 0
M  V30 28 H 2.243322 1.838827 1.492949 0
M  V30 29 H 1.507233 3.374878 3.233279 0
M  V30 30 H -2.427989 3.548522 1.464476 0
M  V30 31 H -1.617622 1.957097 -0.314218 0
M  V30 END ATOM
M  V30 BEGIN BOND
M  V30 1 2 1 2
M  V30 2 1 2 3
M  V30 3 1 3 4
M  V30 4 1 4 5
M  V30 5 1 5 6
M  V30 6 1 6 7
M  V30 7 1 7 8
M  V30 8 1 8 9
M  V30 9 2 9 10
M  V30 10 1 2 11
M  V30 11 1 11 12
M  V30 12 2 12 13
M  V30 13 1 13 14
M  V30 14 2 14 15
M  V30 15 1 15 16
M  V30 16 1 15 17
M  V30 17 2 17 18
M  V30 18 1 9 4
M  V30 19 1 18 12
M  V30 20 1 3 19
M  V30 21 1 3 20
M  V30 22 1 4 21
M  V30 23 1 6 22
M  V30 24 1 6 23
M  V30 25 1 7 24
M  V30 26 1 7 25
M  V30 27 1 8 26
M  V30 28 1 11 27
M  V30 29 1 13 28
M  V30 30 1 14 29
M  V30 31 1 17 30
M  V30 32 1 18 31
M  V30 END BOND
M  V30 END CTAB
M  END
>  <Dataset>  (12) 
ChEMBL_Kinases

>  <Ligand_Instance>  (12) 
nan

>  <PDB_ID>  (12) 
nan

>  <Standardized_SMILES>  (12) 
O=C(CC1SCCNC1=O)Nc1ccc(Cl)cc1

>  <Name>  (12) 
nan

>  <Pocket>  (12) 
nan

>  <ATP_Site>  (12) 
nan

>  <Peripheral>  (12) 
nan

>  <Num_H_Atoms_ProtBoundConf>  (12) 
nan

>  <Num_Resolved_Atoms>  (12) 
nan

>  <Num_Not_Resolved_Atoms>  (12) 
nan

$$$$
CHEMBL1380047
     RDKit          3D

  0  0  0  0  0  0  0  0  0  0999 V3000
M  V30 BEGIN CTAB
M  V30 COUNTS 50 51 0 0 0
M  V30 BEGIN ATOM
M  V30 1 C 1.382838 -7.934571 -0.114333 0
M  V30 2 C 1.187264 -6.431629 -0.091545 0
M  V30 3 C 1.611165 -5.791687 -1.377988 0
M  V30 4 O 1.442307 -4.392628 -1.390391 0
M  V30 5 C 2.070530 -3.543072 -0.495663 0
M  V30 6 O 2.842667 -3.949087 0.400460 0
M  V30 7 C 1.814031 -2.110811 -0.611274 0
M  V30 8 C 2.438434 -1.230270 0.280975 0
M  V30 9 C 2.146254 0.128565 0.112072 0
M  V30 10 C 1.303882 0.643479 -0.852501 0
M  V30 11 O 1.051657 1.997659 -0.972748 0
M  V30 12 C 1.481251 3.036997 -0.204948 0
M  V30 13 C 0.971555 3.375001 1.129823 0
M  V30 14 O 1.960937 4.319378 1.612750 0
M  V30 15 C 0.600667 2.464285 2.192166 0
M  V30 16 N -0.476189 1.557863 2.033467 0
M  V30 17 C -1.154973 0.353400 1.752960 0
M  V30 18 O -0.434024 -0.639700 1.541390 0
M  V30 19 N -2.564806 0.343765 1.733857 0
M  V30 20 C -3.028330 1.676782 1.998635 0
M  V30 21 C -3.631732 2.212993 0.739191 0
M  V30 22 C -3.929528 1.750725 3.202042 0
M  V30 23 C -1.708738 2.362599 2.207252 0
M  V30 24 O -2.041232 3.564045 2.505007 0
M  V30 25 C 0.696122 -0.238108 -1.724429 0
M  V30 26 C 0.970328 -1.597908 -1.577816 0
M  V30 27 H 2.291842 -8.139854 -0.706881 0
M  V30 28 H 1.540728 -8.270349 0.950075 0
M  V30 29 H 0.529055 -8.451377 -0.579484 0
M  V30 30 H 0.093178 -6.231606 0.048861 0
M  V30 31 H 1.772548 -6.019325 0.751543 0
M  V30 32 H 1.048529 -6.194906 -2.230353 0
M  V30 33 H 2.695093 -5.997168 -1.552781 0
M  V30 34 H 3.102588 -1.588293 1.048258 0
M  V30 35 H 2.664631 0.756247 0.815336 0
M  V30 36 H 1.448858 3.955559 -0.895800 0
M  V30 37 H 2.629707 2.910691 -0.066179 0
M  V30 38 H 0.094936 4.161304 0.996833 0
M  V30 39 H 2.534385 3.834378 2.259124 0
M  V30 40 H 0.459429 3.036944 3.171937 0
M  V30 41 H 1.521872 1.832935 2.518593 0
M  V30 42 H -3.130914 -0.483257 1.559202 0
M  V30 43 H -3.184103 1.701183 -0.124734 0
M  V30 44 H -4.747026 2.101482 0.792730 0
M  V30 45 H -3.395216 3.315644 0.724552 0
M  V30 46 H -3.672458 2.606581 3.848039 0
M  V30 47 H -4.959129 1.934641 2.783535 0
M  V30 48 H -3.960387 0.824142 3.787028 0
M  V30 49 H 0.031720 0.110886 -2.493419 0
M  V30 50 H 0.489316 -2.275987 -2.265161 0
M  V30 END ATOM
M  V30 BEGIN BOND
M  V30 1 1 1 2
M  V30 2 1 2 3
M  V30 3 1 3 4
M  V30 4 1 4 5
M  V30 5 2 5 6
M  V30 6 1 5 7
M  V30 7 2 7 8
M  V30 8 1 8 9
M  V30 9 2 9 10
M  V30 10 1 10 11
M  V30 11 1 11 12
M  V30 12 1 12 13
M  V30 13 1 13 14
M  V30 14 1 13 15
M  V30 15 1 15 16
M  V30 16 1 16 17
M  V30 17 2 17 18
M  V30 18 1 17 19
M  V30 19 1 19 20
M  V30 20 1 20 21
M  V30 21 1 20 22
M  V30 22 1 20 23
M  V30 23 2 23 24
M  V30 24 1 10 25
M  V30 25 2 25 26
M  V30 26 1 26 7
M  V30 27 1 23 16
M  V30 28 1 1 27
M  V30 29 1 1 28
M  V30 30 1 1 29
M  V30 31 1 2 30
M  V30 32 1 2 31
M  V30 33 1 3 32
M  V30 34 1 3 33
M  V30 35 1 8 34
M  V30 36 1 9 35
M  V30 37 1 12 36
M  V30 38 1 12 37
M  V30 39 1 13 38
M  V30 40 1 14 39
M  V30 41 1 15 40
M  V30 42 1 15 41
M  V30 43 1 19 42
M  V30 44 1 21 43
M  V30 45 1 21 44
M  V30 46 1 21 45
M  V30 47 1 22 46
M  V30 48 1 22 47
M  V30 49 1 22 48
M  V30 50 1 25 49
M  V30 51 1 26 50
M  V30 END BOND
M  V30 END CTAB
M  END
>  <Dataset>  (13) 
ChEMBL_Kinases

>  <Ligand_Instance>  (13) 
nan

>  <PDB_ID>  (13) 
nan

>  <Standardized_SMILES>  (13) 
CCCOC(=O)c1ccc(OCC(O)CN2C(=O)NC(C)(C)C2=O)cc1

>  <Name>  (13) 
nan

>  <Pocket>  (13) 
nan

>  <ATP_Site>  (13) 
nan

>  <Peripheral>  (13) 
nan

>  <Num_H_Atoms_ProtBoundConf>  (13) 
nan

>  <Num_Resolved_Atoms>  (13) 
nan

>  <Num_Not_Resolved_Atoms>  (13) 
nan

$$$$
CHEMBL1380020
     RDKit          3D

  0  0  0  0  0  0  0  0  0  0999 V3000
M  V30 BEGIN CTAB
M  V30 COUNTS 51 54 0 0 0
M  V30 BEGIN ATOM
M  V30 1 O -2.485077 -2.942282 4.307954 0
M  V30 2 C -1.802388 -2.310258 3.447352 0
M  V30 3 C -0.746688 -1.664420 4.258078 0
M  V30 4 O 0.068606 -0.921400 3.373265 0
M  V30 5 C 1.159091 -0.172692 3.712573 0
M  V30 6 O 1.268502 -0.294349 4.967850 0
M  V30 7 C 1.972401 0.582159 2.746994 0
M  V30 8 C 2.604980 -0.289531 1.675866 0
M  V30 9 C 2.986601 0.772023 0.676605 0
M  V30 10 O 3.815386 0.746055 -0.254117 0
M  V30 11 N 2.210384 1.952069 0.934084 0
M  V30 12 C 2.334863 3.312300 0.419385 0
M  V30 13 C 3.215310 4.164970 1.261369 0
M  V30 14 C 2.723901 4.918949 2.324968 0
M  V30 15 C 3.874483 5.544426 2.816053 0
M  V30 16 C 4.970723 5.144010 2.041577 0
M  V30 17 O 4.523285 4.324408 1.131768 0
M  V30 18 C 1.172848 1.537228 1.886756 0
M  V30 19 C -2.199104 -2.383871 2.050941 0
M  V30 20 C -3.312374 -3.158023 1.813936 0
M  V30 21 C -3.721024 -3.249102 0.478207 0
M  V30 22 C -3.069604 -2.614546 -0.556981 0
M  V30 23 O -3.490527 -2.718504 -1.864911 0
M  V30 24 C -3.146050 -3.608348 -2.806074 0
M  V30 25 O -3.433934 -2.809520 -1.905770 0
M  V30 26 C -2.737426 -4.587289 -3.766085 0
M  V30 27 C -1.867636 -5.646027 -3.710807 0
M  V30 28 C -2.020988 -6.086390 -5.004580 0
M  V30 29 C -2.922487 -5.330984 -5.762076 0
M  V30 30 O -3.330121 -4.407309 -4.912719 0
M  V30 31 C -1.953100 -1.840043 -0.306886 0
M  V30 32 C -1.555273 -1.754275 1.011685 0
M  V30 33 H -0.141095 -2.397556 4.848374 0
M  V30 34 H -1.216157 -0.912816 4.928729 0
M  V30 35 H 2.803000 1.098789 3.287721 0
M  V30 36 H 1.873762 -0.985896 1.231323 0
M  V30 37 H 3.541961 -0.760634 1.997024 0
M  V30 38 H 2.784874 3.282918 -0.609819 0
M  V30 39 H 1.329109 3.763647 0.275510 0
M  V30 40 H 1.703706 4.987769 2.667097 0
M  V30 41 H 3.817363 6.215333 3.666776 0
M  V30 42 H 5.942257 5.544269 2.296770 0
M  V30 43 H 0.734720 2.377210 2.437325 0
M  V30 44 H 0.451681 0.954257 1.317939 0
M  V30 45 H -3.901199 -3.699438 2.540012 0
M  V30 46 H -4.585129 -3.842283 0.242125 0
M  V30 47 H -1.301100 -5.929543 -2.844259 0
M  V30 48 H -1.453376 -6.966815 -5.356164 0
M  V30 49 H -3.129485 -5.578292 -6.797157 0
M  V30 50 H -1.427452 -1.333699 -1.102289 0
M  V30 51 H -0.687299 -1.153358 1.211364 0
M  V30 END ATOM
M  V30 BEGIN BOND
M  V30 1 2 1 2
M  V30 2 1 2 3
M  V30 3 1 3 4
M  V30 4 1 4 5
M  V30 5 2 5 6
M  V30 6 1 5 7
M  V30 7 1 7 8
M  V30 8 1 8 9
M  V30 9 2 9 10
M  V30 10 1 9 11
M  V30 11 1 11 12
M  V30 12 1 12 13
M  V30 13 2 13 14
M  V30 14 1 14 15
M  V30 15 2 15 16
M  V30 16 1 16 17
M  V30 17 1 11 18
M  V30 18 1 2 19
M  V30 19 2 19 20
M  V30 20 1 20 21
M  V30 21 2 21 22
M  V30 22 1 22 23
M  V30 23 1 23 24
M  V30 24 2 24 25
M  V30 25 1 24 26
M  V30 26 2 26 27
M  V30 27 1 27 28
M  V30 28 2 28 29
M  V30 29 1 29 30
M  V30 30 1 22 31
M  V30 31 2 31 32
M  V30 32 1 18 7
M  V30 33 1 32 19
M  V30 34 1 17 13
M  V30 35 1 30 26
M  V30 36 1 3 33
M  V30 37 1 3 34
M  V30 38 1 7 35
M  V30 39 1 8 36
M  V30 40 1 8 37
M  V30 41 1 12 38
M  V30 42 1 12 39
M  V30 43 1 14 40
M  V30 44 1 15 41
M  V30 45 1 16 42
M  V30 46 1 18 43
M  V30 47 1 18 44
M  V30 48 1 20 45
M  V30 49 1 21 46
M  V30 50 1 27 47
M  V30 51 1 28 48
M  V30 52 1 29 49
M  V30 53 1 31 50
M  V30 54 1 32 51
M  V30 END BOND
M  V30 END CTAB
M  END
>  <Dataset>  (14) 
ChEMBL_Kinases

>  <Ligand_Instance>  (14) 
nan

>  <PDB_ID>  (14) 
nan

>  <Standardized_SMILES>  (14) 
O=C(COC(=O)C1CC(=O)N(Cc2ccco2)C1)c1ccc(OC(=O)c2ccco2)cc1

>  <Name>  (14) 
nan

>  <Pocket>  (14) 
nan

>  <ATP_Site>  (14) 
nan

>  <Peripheral>  (14) 
nan

>  <Num_H_Atoms_ProtBoundConf>  (14) 
nan

>  <Num_Resolved_Atoms>  (14) 
nan

>  <Num_Not_Resolved_Atoms>  (14) 
nan

$$$$
CHEMBL1380014
     RDKit          3D

  0  0  0  0  0  0  0  0  0  0999 V3000
M  V30 BEGIN CTAB
M  V30 COUNTS 65 67 0 0 0
M  V30 BEGIN ATOM
M  V30 1 C 3.893942 0.256296 3.787049 0
M  V30 2 C 4.022776 -1.012038 3.013770 0
M  V30 3 O 3.532075 -0.992663 1.715216 0
M  V30 4 C 3.902627 -0.223855 0.657141 0
M  V30 5 C 4.919826 0.668113 0.898173 0
M  V30 6 C 5.355976 1.483313 -0.120812 0
M  V30 7 C 4.742365 1.360685 -1.344077 0
M  V30 8 C 3.731214 0.456852 -1.539401 0
M  V30 9 C 3.245936 -0.398128 -0.540450 0
M  V30 10 N 2.221153 -1.289407 -0.857455 0
M  V30 11 C 1.817093 -1.391649 -2.268226 0
M  V30 12 C 0.739847 -0.427864 -2.610594 0
M  V30 13 O 0.387123 -0.508467 -3.815665 0
M  V30 14 N 0.141921 0.500409 -1.715357 0
M  V30 15 C -0.897070 1.422811 -2.060009 0
M  V30 16 C -2.238083 0.813749 -2.181748 0
M  V30 17 C -3.057338 0.742019 -1.054062 0
M  V30 18 C -4.337201 0.180812 -1.092248 0
M  V30 19 C -4.825633 -0.326432 -2.281433 0
M  V30 20 C -4.040645 -0.271080 -3.415807 0
M  V30 21 C -2.787885 0.290192 -3.330612 0
M  V30 22 C 1.489120 -2.145331 0.015000 0
M  V30 23 O 1.515519 -2.342444 1.255883 0
M  V30 24 C 0.463616 -3.029194 -0.528965 0
M  V30 25 C -0.386031 -3.756195 0.472808 0
M  V30 26 C -1.130402 -2.784628 1.353231 0
M  V30 27 O -1.060662 -1.511965 1.271275 0
M  V30 28 N -2.006700 -3.204702 2.388867 0
M  V30 29 C -2.534528 -2.015684 3.011903 0
M  V30 30 C -3.708009 -1.433535 2.546910 0
M  V30 31 C -4.206089 -0.297401 3.146575 0
M  V30 32 C -5.449896 0.377211 2.705966 0
M  V30 33 C -3.467538 0.205531 4.218612 0
M  V30 34 C -2.315603 -0.342949 4.695877 0
M  V30 35 N -1.915957 -1.444939 4.043919 0
M  V30 36 H 3.260019 0.153457 4.695741 0
M  V30 37 H 4.884521 0.559801 4.165884 0
M  V30 38 H 3.478444 1.111738 3.202813 0
M  V30 39 H 3.460619 -1.795448 3.607120 0
M  V30 40 H 5.105616 -1.332485 3.060639 0
M  V30 41 H 5.409880 0.768839 1.853520 0
M  V30 42 H 6.148322 2.182771 0.053488 0
M  V30 43 H 5.120263 2.022100 -2.110525 0
M  V30 44 H 3.359673 0.498554 -2.552045 0
M  V30 45 H 2.668383 -1.288207 -2.966472 0
M  V30 46 H 1.470550 -2.452968 -2.483939 0
M  V30 47 H 0.543923 0.446867 -0.749739 0
M  V30 48 H -0.660372 1.989069 -2.985616 0
M  V30 49 H -0.960011 2.182042 -1.253860 0
M  V30 50 H -2.753417 1.118539 -0.071319 0
M  V30 51 H -4.970317 0.124711 -0.222979 0
M  V30 52 H -5.802818 -0.776572 -2.396393 0
M  V30 53 H -4.412918 -0.665934 -4.354151 0
M  V30 54 H -2.196027 0.323869 -4.220411 0
M  V30 55 H -0.238560 -2.571089 -1.249572 0
M  V30 56 H 0.953340 -3.855239 -1.133099 0
M  V30 57 H 0.195916 -4.458954 1.095352 0
M  V30 58 H -1.179692 -4.344133 -0.028318 0
M  V30 59 H -2.148514 -4.242033 2.556980 0
M  V30 60 H -4.248475 -1.867498 1.703791 0
M  V30 61 H -5.905541 0.949125 3.555847 0
M  V30 62 H -6.143658 -0.327931 2.250404 0
M  V30 63 H -5.224851 1.149518 1.932883 0
M  V30 64 H -3.878977 1.102731 4.677048 0
M  V30 65 H -1.773250 0.079510 5.530462 0
M  V30 END ATOM
M  V30 BEGIN BOND
M  V30 1 1 1 2
M  V30 2 1 2 3
M  V30 3 1 3 4
M  V30 4 2 4 5
M  V30 5 1 5 6
M  V30 6 2 6 7
M  V30 7 1 7 8
M  V30 8 2 8 9
M  V30 9 1 9 10
M  V30 10 1 10 11
M  V30 11 1 11 12
M  V30 12 2 12 13
M  V30 13 1 12 14
M  V30 14 1 14 15
M  V30 15 1 15 16
M  V30 16 2 16 17
M  V30 17 1 17 18
M  V30 18 2 18 19
M  V30 19 1 19 20
M  V30 20 2 20 21
M  V30 21 1 10 22
M  V30 22 2 22 23
M  V30 23 1 22 24
M  V30 24 1 24 25
M  V30 25 1 25 26
M  V30 26 2 26 27
M  V30 27 1 26 28
M  V30 28 1 28 29
M  V30 29 2 29 30
M  V30 30 1 30 31
M  V30 31 1 31 32
M  V30 32 2 31 33
M  V30 33 1 33 34
M  V30 34 2 34 35
M  V30 35 1 9 4
M  V30 36 1 21 16
M  V30 37 1 35 29
M  V30 38 1 1 36
M  V30 39 1 1 37
M  V30 40 1 1 38
M  V30 41 1 2 39
M  V30 42 1 2 40
M  V30 43 1 5 41
M  V30 44 1 6 42
M  V30 45 1 7 43
M  V30 46 1 8 44
M  V30 47 1 11 45
M  V30 48 1 11 46
M  V30 49 1 14 47
M  V30 50 1 15 48
M  V30 51 1 15 49
M  V30 52 1 17 50
M  V30 53 1 18 51
M  V30 54 1 19 52
M  V30 55 1 20 53
M  V30 56 1 21 54
M  V30 57 1 24 55
M  V30 58 1 24 56
M  V30 59 1 25 57
M  V30 60 1 25 58
M  V30 61 1 28 59
M  V30 62 1 30 60
M  V30 63 1 32 61
M  V30 64 1 32 62
M  V30 65 1 32 63
M  V30 66 1 33 64
M  V30 67 1 34 65
M  V30 END BOND
M  V30 END CTAB
M  END
>  <Dataset>  (15) 
ChEMBL_Kinases

>  <Ligand_Instance>  (15) 
nan

>  <PDB_ID>  (15) 
nan

>  <Standardized_SMILES>  (15) 
CCOc1ccccc1N(CC(=O)NCc1ccccc1)C(=O)CCC(=O)Nc1cc(C)ccn1

>  <Name>  (15) 
nan

>  <Pocket>  (15) 
nan

>  <ATP_Site>  (15) 
nan

>  <Peripheral>  (15) 
nan

>  <Num_H_Atoms_ProtBoundConf>  (15) 
nan

>  <Num_Resolved_Atoms>  (15) 
nan

>  <Num_Not_Resolved_Atoms>  (15) 
nan

$$$$
CHEMBL1379997
     RDKit          3D

  0  0  0  0  0  0  0  0  0  0999 V3000
M  V30 BEGIN CTAB
M  V30 COUNTS 50 53 0 0 0
M  V30 BEGIN ATOM
M  V30 1 C -2.167587 -1.484293 3.374932 0
M  V30 2 C -0.660966 -1.498134 3.489022 0
M  V30 3 N -0.099853 -0.954407 2.288431 0
M  V30 4 C -0.224344 0.426329 1.945790 0
M  V30 5 C 0.525248 1.384332 2.826710 0
M  V30 6 C 0.393272 2.745374 2.132739 0
M  V30 7 O 0.851757 2.581229 0.784147 0
M  V30 8 C 2.120771 2.066620 0.524171 0
M  V30 9 C 2.868497 2.226706 -0.626078 0
M  V30 10 C 4.109333 1.626515 -0.669878 0
M  V30 11 C 4.652468 0.879091 0.355390 0
M  V30 12 C 3.880164 0.726995 1.513917 0
M  V30 13 C 2.618063 1.319301 1.597075 0
M  V30 14 O 1.929546 1.107910 2.792576 0
M  V30 15 C 0.612151 -1.862511 1.409606 0
M  V30 16 S 2.069072 -2.793932 0.932927 0
M  V30 17 N -0.378241 -2.005178 0.624618 0
M  V30 18 C -0.474704 -2.793926 -0.558983 0
M  V30 19 C -0.115295 -1.988534 -1.815335 0
M  V30 20 C -1.431647 -1.766302 -2.496268 0
M  V30 21 C -2.291002 -0.908591 -1.626566 0
M  V30 22 C -2.671225 -1.795506 -0.450616 0
M  V30 23 C -1.951228 -3.092043 -0.746115 0
M  V30 24 C -2.065594 -3.143718 -2.255508 0
M  V30 25 H -2.478429 -0.605967 2.806172 0
M  V30 26 H -2.656879 -1.459344 4.373327 0
M  V30 27 H -2.517565 -2.390544 2.819955 0
M  V30 28 H -0.350089 -0.943242 4.398455 0
M  V30 29 H -0.374137 -2.565559 3.587631 0
M  V30 30 H 0.187721 0.562121 0.908447 0
M  V30 31 H -1.269823 0.726268 1.927308 0
M  V30 32 H 0.147136 1.464058 3.844548 0
M  V30 33 H 0.896719 3.552711 2.663432 0
M  V30 34 H -0.708453 2.957986 2.046976 0
M  V30 35 H 2.415352 2.810263 -1.394124 0
M  V30 36 H 4.665299 1.767511 -1.573066 0
M  V30 37 H 5.644301 0.431998 0.253211 0
M  V30 38 H 4.266836 0.150322 2.340956 0
M  V30 39 H 3.149514 -2.422472 1.773641 0
M  V30 40 H 0.089483 -3.736872 -0.521376 0
M  V30 41 H 0.383610 -1.043431 -1.557892 0
M  V30 42 H 0.550713 -2.551547 -2.494894 0
M  V30 43 H -1.374739 -1.508205 -3.547412 0
M  V30 44 H -3.216837 -0.583015 -2.147786 0
M  V30 45 H -1.735118 -0.007421 -1.298882 0
M  V30 46 H -2.219644 -1.351822 0.477585 0
M  V30 47 H -3.757286 -1.895675 -0.348765 0
M  V30 48 H -2.327128 -3.959597 -0.237009 0
M  V30 49 H -3.126162 -3.100369 -2.562052 0
M  V30 50 H -1.481534 -3.942920 -2.715828 0
M  V30 END ATOM
M  V30 BEGIN BOND
M  V30 1 1 1 2
M  V30 2 1 2 3
M  V30 3 1 3 4
M  V30 4 1 4 5
M  V30 5 1 5 6
M  V30 6 1 6 7
M  V30 7 1 7 8
M  V30 8 2 8 9
M  V30 9 1 9 10
M  V30 10 2 10 11
M  V30 11 1 11 12
M  V30 12 2 12 13
M  V30 13 1 13 14
M  V30 14 1 3 15
M  V30 15 1 15 16
M  V30 16 2 15 17 CFG=2
M  V30 17 1 17 18
M  V30 18 1 18 19
M  V30 19 1 19 20
M  V30 20 1 20 21
M  V30 21 1 21 22
M  V30 22 1 22 23
M  V30 23 1 23 24
M  V30 24 1 14 5
M  V30 25 1 23 18
M  V30 26 1 13 8
M  V30 27 1 24 20
M  V30 28 1 1 25
M  V30 29 1 1 26
M  V30 30 1 1 27
M  V30 31 1 2 28
M  V30 32 1 2 29
M  V30 33 1 4 30
M  V30 34 1 4 31
M  V30 35 1 5 32
M  V30 36 1 6 33
M  V30 37 1 6 34
M  V30 38 1 9 35
M  V30 39 1 10 36
M  V30 40 1 11 37
M  V30 41 1 12 38
M  V30 42 1 16 39
M  V30 43 1 18 40
M  V30 44 1 19 41
M  V30 45 1 19 42
M  V30 46 1 20 43
M  V30 47 1 21 44
M  V30 48 1 21 45
M  V30 49 1 22 46
M  V30 50 1 22 47
M  V30 51 1 23 48
M  V30 52 1 24 49
M  V30 53 1 24 50
M  V30 END BOND
M  V30 END CTAB
M  END
>  <Dataset>  (16) 
ChEMBL_Kinases

>  <Ligand_Instance>  (16) 
nan

>  <PDB_ID>  (16) 
nan

>  <Standardized_SMILES>  (16) 
CCN(CC1COc2ccccc2O1)C(S)=NC1CC2CCC1C2

>  <Name>  (16) 
nan

>  <Pocket>  (16) 
nan

>  <ATP_Site>  (16) 
nan

>  <Peripheral>  (16) 
nan

>  <Num_H_Atoms_ProtBoundConf>  (16) 
nan

>  <Num_Resolved_Atoms>  (16) 
nan

>  <Num_Not_Resolved_Atoms>  (16) 
nan

$$$$
CHEMBL1379988
     RDKit          3D

  0  0  0  0  0  0  0  0  0  0999 V3000
M  V30 BEGIN CTAB
M  V30 COUNTS 32 34 0 0 0
M  V30 BEGIN ATOM
M  V30 1 O -1.404643 -1.975952 3.845217 0
M  V30 2 C -1.817548 -3.103496 3.407777 0
M  V30 3 N -1.239662 -3.433858 2.172920 0
M  V30 4 C -0.262771 -2.467224 1.561616 0
M  V30 5 N 0.865845 -2.463697 1.729710 0
M  V30 6 N 1.757264 -1.665594 1.237872 0
M  V30 7 C 1.443513 -0.758738 0.478180 0
M  V30 8 C 2.073173 0.345542 -0.293676 0
M  V30 9 C 1.412410 1.178273 -1.047726 0
M  V30 10 C 2.003417 2.266480 -1.812800 0
M  V30 11 C 1.245359 3.115954 -2.594658 0
M  V30 12 C 1.781072 4.154011 -3.328678 0
M  V30 13 C 3.140977 4.386883 -3.305597 0
M  V30 14 C 3.939251 3.563683 -2.538286 0
M  V30 15 C 3.354152 2.540264 -1.823240 0
M  V30 16 S -0.345870 -0.976632 0.378403 0
M  V30 17 C -2.774913 -4.011491 4.045008 0
M  V30 18 C -3.302219 -5.236679 3.693202 0
M  V30 19 C -4.173216 -5.600752 4.720769 0
M  V30 20 C -4.122140 -4.564882 5.643850 0
M  V30 21 O -3.289626 -3.644395 5.216585 0
M  V30 22 H -1.438091 -4.297605 1.650874 0
M  V30 23 H 3.120658 0.437160 -0.206960 0
M  V30 24 H 0.341466 1.051975 -1.110749 0
M  V30 25 H 0.175401 2.964553 -2.637826 0
M  V30 26 H 1.111053 4.781123 -3.922577 0
M  V30 27 H 3.475865 5.220623 -3.909576 0
M  V30 28 H 5.003443 3.763236 -2.533844 0
M  V30 29 H 4.029906 1.935045 -1.245654 0
M  V30 30 H -2.978566 -5.670168 2.760115 0
M  V30 31 H -4.698222 -6.543087 4.639487 0
M  V30 32 H -4.728849 -4.634853 6.537635 0
M  V30 END ATOM
M  V30 BEGIN BOND
M  V30 1 2 1 2
M  V30 2 1 2 3
M  V30 3 1 3 4
M  V30 4 2 4 5
M  V30 5 1 5 6
M  V30 6 2 6 7
M  V30 7 1 7 8
M  V30 8 2 8 9
M  V30 9 1 9 10
M  V30 10 2 10 11
M  V30 11 1 11 12
M  V30 12 2 12 13
M  V30 13 1 13 14
M  V30 14 2 14 15
M  V30 15 1 7 16
M  V30 16 1 2 17
M  V30 17 2 17 18
M  V30 18 1 18 19
M  V30 19 2 19 20
M  V30 20 1 20 21
M  V30 21 1 16 4
M  V30 22 1 21 17
M  V30 23 1 15 10
M  V30 24 1 3 22
M  V30 25 1 8 23
M  V30 26 1 9 24
M  V30 27 1 11 25
M  V30 28 1 12 26
M  V30 29 1 13 27
M  V30 30 1 14 28
M  V30 31 1 15 29
M  V30 32 1 18 30
M  V30 33 1 19 31
M  V30 34 1 20 32
M  V30 END BOND
M  V30 END CTAB
M  END
>  <Dataset>  (17) 
ChEMBL_Kinases

>  <Ligand_Instance>  (17) 
nan

>  <PDB_ID>  (17) 
nan

>  <Standardized_SMILES>  (17) 
O=C(Nc1nnc(/C=C/c2ccccc2)s1)c1ccco1

>  <Name>  (17) 
nan

>  <Pocket>  (17) 
nan

>  <ATP_Site>  (17) 
nan

>  <Peripheral>  (17) 
nan

>  <Num_H_Atoms_ProtBoundConf>  (17) 
nan

>  <Num_Resolved_Atoms>  (17) 
nan

>  <Num_Not_Resolved_Atoms>  (17) 
nan

$$$$
CHEMBL1379970
     RDKit          3D

  0  0  0  0  0  0  0  0  0  0999 V3000
M  V30 BEGIN CTAB
M  V30 COUNTS 32 34 0 0 0
M  V30 BEGIN ATOM
M  V30 1 C -3.610171 -4.088017 2.487704 0
M  V30 2 C -3.095583 -4.097994 1.064607 0
M  V30 3 N -2.067103 -3.075363 0.889180 0
M  V30 4 C -2.429035 -1.706050 0.940777 0
M  V30 5 C -1.586283 -0.669990 0.791208 0
M  V30 6 C -0.181322 -0.972783 0.556296 0
M  V30 7 C 0.733578 -0.034016 0.397186 0
M  V30 8 C 2.171498 -0.128172 0.157133 0
M  V30 9 O 2.827903 -1.193671 0.054499 0
M  V30 10 C 2.790979 1.201745 0.045329 0
M  V30 11 C 4.105591 1.549935 -0.176554 0
M  V30 12 C 4.392517 2.898299 -0.233057 0
M  V30 13 C 3.424693 3.895776 -0.077034 0
M  V30 14 C 2.148944 3.419122 0.140194 0
M  V30 15 C 1.763637 2.099763 0.212240 0
M  V30 16 C 0.499860 1.406842 0.427705 0
M  V30 17 O -0.528227 2.071572 0.595892 0
M  V30 18 C 0.174857 -2.380204 0.506468 0
M  V30 19 C -0.696551 -3.389892 0.660486 0
M  V30 20 H -2.759744 -3.934898 3.185611 0
M  V30 21 H -4.243127 -3.181993 2.572246 0
M  V30 22 H -4.232293 -4.964126 2.705964 0
M  V30 23 H -2.660853 -5.077078 0.807361 0
M  V30 24 H -3.941252 -3.913192 0.349571 0
M  V30 25 H -3.474556 -1.455610 1.114348 0
M  V30 26 H -1.963182 0.316889 0.848468 0
M  V30 27 H 4.907527 0.850930 -0.307888 0
M  V30 28 H 5.420906 3.225514 -0.408860 0
M  V30 29 H 3.655220 4.947317 -0.122844 0
M  V30 30 H 1.399114 4.219022 0.262161 0
M  V30 31 H 1.171033 -2.749342 0.340062 0
M  V30 32 H -0.420689 -4.434632 0.620915 0
M  V30 END ATOM
M  V30 BEGIN BOND
M  V30 1 1 1 2
M  V30 2 1 2 3
M  V30 3 1 3 4
M  V30 4 2 4 5
M  V30 5 1 5 6
M  V30 6 2 6 7 CFG=2
M  V30 7 1 7 8
M  V30 8 2 8 9
M  V30 9 1 8 10
M  V30 10 2 10 11
M  V30 11 1 11 12
M  V30 12 2 12 13
M  V30 13 1 13 14
M  V30 14 2 14 15
M  V30 15 1 15 16
M  V30 16 2 16 17
M  V30 17 1 6 18
M  V30 18 2 18 19
M  V30 19 1 19 3
M  V30 20 1 16 7
M  V30 21 1 15 10
M  V30 22 1 1 20
M  V30 23 1 1 21
M  V30 24 1 1 22
M  V30 25 1 2 23
M  V30 26 1 2 24
M  V30 27 1 4 25
M  V30 28 1 5 26
M  V30 29 1 11 27
M  V30 30 1 12 28
M  V30 31 1 13 29
M  V30 32 1 14 30
M  V30 33 1 18 31
M  V30 34 1 19 32
M  V30 END BOND
M  V30 END CTAB
M  END
>  <Dataset>  (18) 
ChEMBL_Kinases

>  <Ligand_Instance>  (18) 
nan

>  <PDB_ID>  (18) 
nan

>  <Standardized_SMILES>  (18) 
CCN1C=CC(=C2C(=O)c3ccccc3C2=O)C=C1

>  <Name>  (18) 
nan

>  <Pocket>  (18) 
nan

>  <ATP_Site>  (18) 
nan

>  <Peripheral>  (18) 
nan

>  <Num_H_Atoms_ProtBoundConf>  (18) 
nan

>  <Num_Resolved_Atoms>  (18) 
nan

>  <Num_Not_Resolved_Atoms>  (18) 
nan

$$$$
CHEMBL1379898
     RDKit          3D

  0  0  0  0  0  0  0  0  0  0999 V3000
M  V30 BEGIN CTAB
M  V30 COUNTS 39 41 0 0 0
M  V30 BEGIN ATOM
M  V30 1 C 0.931143 -4.365190 5.050548 0
M  V30 2 O 1.728010 -3.191799 5.051401 0
M  V30 3 C 1.909049 -2.417775 3.929785 0
M  V30 4 C 1.311861 -2.745781 2.708062 0
M  V30 5 C 1.505641 -1.953822 1.583690 0
M  V30 6 C 2.288574 -0.813581 1.612467 0
M  V30 7 C 2.419095 -0.043431 0.356547 0
M  V30 8 N 1.411152 0.992853 0.206432 0
M  V30 9 C 1.691169 2.303512 0.714042 0
M  V30 10 O 2.783506 2.582783 1.282243 0
M  V30 11 N 0.754296 3.378368 0.610408 0
M  V30 12 C -0.517642 3.191738 -0.010845 0
M  V30 13 O -1.408783 4.068169 -0.151881 0
M  V30 14 C -0.811592 1.860875 -0.530020 0
M  V30 15 C -1.913360 1.526644 -1.153497 0
M  V30 16 C -2.384219 0.281143 -1.725632 0
M  V30 17 C -2.583591 -1.032849 -1.395178 0
M  V30 18 C -3.042393 -1.792436 -2.447859 0
M  V30 19 C -3.132503 -0.891214 -3.488416 0
M  V30 20 N -2.744132 0.314431 -3.046807 0
M  V30 21 C 0.152035 0.801296 -0.411162 0
M  V30 22 O -0.023217 -0.351727 -0.831140 0
M  V30 23 C 2.884596 -0.481049 2.821539 0
M  V30 24 C 2.687643 -1.280848 3.950657 0
M  V30 25 H 0.841752 -4.688012 6.110222 0
M  V30 26 H -0.097367 -4.159333 4.685456 0
M  V30 27 H 1.395617 -5.185350 4.503101 0
M  V30 28 H 0.696247 -3.658490 2.723344 0
M  V30 29 H 0.976506 -2.355058 0.735575 0
M  V30 30 H 2.298032 -0.729603 -0.518869 0
M  V30 31 H 3.448953 0.365279 0.316933 0
M  V30 32 H 0.949459 4.345345 0.979854 0
M  V30 33 H -2.601379 2.384195 -1.239289 0
M  V30 34 H -2.394309 -1.363876 -0.375275 0
M  V30 35 H -3.248999 -2.850129 -2.352974 0
M  V30 36 H -3.476172 -1.207578 -4.473741 0
M  V30 37 H -2.765142 1.106302 -3.756180 0
M  V30 38 H 3.504360 0.421029 2.840630 0
M  V30 39 H 3.163068 -1.005836 4.881941 0
M  V30 END ATOM
M  V30 BEGIN BOND
M  V30 1 1 1 2
M  V30 2 1 2 3
M  V30 3 2 3 4
M  V30 4 1 4 5
M  V30 5 2 5 6
M  V30 6 1 6 7
M  V30 7 1 7 8
M  V30 8 1 8 9
M  V30 9 2 9 10
M  V30 10 1 9 11
M  V30 11 1 11 12
M  V30 12 2 12 13
M  V30 13 1 12 14
M  V30 14 2 14 15
M  V30 15 1 15 16
M  V30 16 2 16 17
M  V30 17 1 17 18
M  V30 18 2 18 19
M  V30 19 1 19 20
M  V30 20 1 14 21
M  V30 21 2 21 22
M  V30 22 1 6 23
M  V30 23 2 23 24
M  V30 24 1 24 3
M  V30 25 1 21 8
M  V30 26 1 20 16
M  V30 27 1 1 25
M  V30 28 1 1 26
M  V30 29 1 1 27
M  V30 30 1 4 28
M  V30 31 1 5 29
M  V30 32 1 7 30
M  V30 33 1 7 31
M  V30 34 1 11 32
M  V30 35 1 15 33
M  V30 36 1 17 34
M  V30 37 1 18 35
M  V30 38 1 19 36
M  V30 39 1 20 37
M  V30 40 1 23 38
M  V30 41 1 24 39
M  V30 END BOND
M  V30 END CTAB
M  END
>  <Dataset>  (19) 
ChEMBL_Kinases

>  <Ligand_Instance>  (19) 
nan

>  <PDB_ID>  (19) 
nan

>  <Standardized_SMILES>  (19) 
COc1ccc(CN2C(=O)NC(=O)/C(=C/c3ccc[nH]3)C2=O)cc1

>  <Name>  (19) 
nan

>  <Pocket>  (19) 
nan

>  <ATP_Site>  (19) 
nan

>  <Peripheral>  (19) 
nan

>  <Num_H_Atoms_ProtBoundConf>  (19) 
nan

>  <Num_Resolved_Atoms>  (19) 
nan

>  <Num_Not_Resolved_Atoms>  (19) 
nan

$$$$
CHEMBL1379838
     RDKit          3D

  0  0  0  0  0  0  0  0  0  0999 V3000
M  V30 BEGIN CTAB
M  V30 COUNTS 43 46 0 0 0
M  V30 BEGIN ATOM
M  V30 1 C -2.697188 -4.168741 -1.130889 0
M  V30 2 N -1.555434 -3.327494 -1.376018 0
M  V30 3 N -0.606038 -3.346264 -2.293233 0
M  V30 4 C 0.256181 -2.342619 -2.112515 0
M  V30 5 C 1.400314 -2.183865 -3.037701 0
M  V30 6 C 2.645607 -1.922934 -2.454418 0
M  V30 7 C 3.760369 -1.762041 -3.243964 0
M  V30 8 C 3.696744 -1.850016 -4.620755 0
M  V30 9 Cl 5.145394 -1.636775 -5.572096 0
M  V30 10 C 2.456808 -2.107983 -5.168318 0
M  V30 11 C 1.319972 -2.274786 -4.412302 0
M  V30 12 C -0.115502 -1.591821 -1.015075 0
M  V30 13 C 0.283154 -0.493654 -0.301727 0
M  V30 14 C -0.450233 -0.123053 0.760478 0
M  V30 15 C -0.250793 0.998993 1.686180 0
M  V30 16 O 0.719541 1.739842 1.503554 0
M  V30 17 N -1.161189 1.193326 2.740970 0
M  V30 18 C -1.076377 2.257092 3.720299 0
M  V30 19 C 0.238632 2.097249 4.452220 0
M  V30 20 C 0.252813 0.774639 5.160768 0
M  V30 21 C 0.441512 1.184163 6.605858 0
M  V30 22 C 1.148141 2.515357 6.445880 0
M  V30 23 O 0.400839 3.085424 5.421132 0
M  V30 24 S -1.768788 -1.281421 0.858002 0
M  V30 25 C -1.238929 -2.251883 -0.607329 0
M  V30 26 H -2.672584 -4.620442 -0.106982 0
M  V30 27 H -2.639068 -5.031668 -1.838823 0
M  V30 28 H -3.656139 -3.642202 -1.240778 0
M  V30 29 H 2.714562 -1.850276 -1.371605 0
M  V30 30 H 4.745436 -1.557014 -2.807305 0
M  V30 31 H 2.404076 -2.177426 -6.246978 0
M  V30 32 H 0.351083 -2.475015 -4.815766 0
M  V30 33 H 1.176007 0.094060 -0.563092 0
M  V30 34 H -1.964353 0.508513 2.818662 0
M  V30 35 H -1.910950 2.191051 4.427676 0
M  V30 36 H -1.091553 3.253500 3.190633 0
M  V30 37 H 1.084127 2.127671 3.753904 0
M  V30 38 H 1.119603 0.145447 4.827292 0
M  V30 39 H -0.711020 0.230959 5.089471 0
M  V30 40 H 1.066203 0.459151 7.165140 0
M  V30 41 H -0.545907 1.378271 7.072315 0
M  V30 42 H 1.042054 3.069012 7.380341 0
M  V30 43 H 2.217842 2.336291 6.145683 0
M  V30 END ATOM
M  V30 BEGIN BOND
M  V30 1 1 1 2
M  V30 2 1 2 3
M  V30 3 2 3 4
M  V30 4 1 4 5
M  V30 5 2 5 6
M  V30 6 1 6 7
M  V30 7 2 7 8
M  V30 8 1 8 9
M  V30 9 1 8 10
M  V30 10 2 10 11
M  V30 11 1 4 12
M  V30 12 1 12 13
M  V30 13 2 13 14
M  V30 14 1 14 15
M  V30 15 2 15 16
M  V30 16 1 15 17
M  V30 17 1 17 18
M  V30 18 1 18 19
M  V30 19 1 19 20
M  V30 20 1 20 21
M  V30 21 1 21 22
M  V30 22 1 22 23
M  V30 23 1 14 24
M  V30 24 1 24 25
M  V30 25 1 25 2
M  V30 26 1 11 5
M  V30 27 2 25 12
M  V30 28 1 23 19
M  V30 29 1 1 26
M  V30 30 1 1 27
M  V30 31 1 1 28
M  V30 32 1 6 29
M  V30 33 1 7 30
M  V30 34 1 10 31
M  V30 35 1 11 32
M  V30 36 1 13 33
M  V30 37 1 17 34
M  V30 38 1 18 35
M  V30 39 1 18 36
M  V30 40 1 19 37
M  V30 41 1 20 38
M  V30 42 1 20 39
M  V30 43 1 21 40
M  V30 44 1 21 41
M  V30 45 1 22 42
M  V30 46 1 22 43
M  V30 END BOND
M  V30 END CTAB
M  END
>  <Dataset>  (20) 
ChEMBL_Kinases

>  <Ligand_Instance>  (20) 
nan

>  <PDB_ID>  (20) 
nan

>  <Standardized_SMILES>  (20) 
Cn1nc(-c2ccc(Cl)cc2)c2cc(C(=O)NCC3CCCO3)sc21

>  <Name>  (20) 
nan

>  <Pocket>  (20) 
nan

>  <ATP_Site>  (20) 
nan

>  <Peripheral>  (20) 
nan

>  <Num_H_Atoms_ProtBoundConf>  (20) 
nan

>  <Num_Resolved_Atoms>  (20) 
nan

>  <Num_Not_Resolved_Atoms>  (20) 
nan

$$$$
CHEMBL1379365
     RDKit          3D

  0  0  0  0  0  0  0  0  0  0999 V3000
M  V30 BEGIN CTAB
M  V30 COUNTS 41 43 0 0 0
M  V30 BEGIN ATOM
M  V30 1 C 0.544686 -7.647279 1.764285 0
M  V30 2 C 1.581491 -6.665054 2.288127 0
M  V30 3 N 1.032220 -5.299595 2.288206 0
M  V30 4 C 1.158026 -4.427181 1.176793 0
M  V30 5 O 1.736793 -4.709124 0.096334 0
M  V30 6 C 0.544346 -3.120355 1.376844 0
M  V30 7 C 0.670828 -1.955979 0.761235 0
M  V30 8 C -0.078931 -0.771075 1.170398 0
M  V30 9 C 0.117061 0.343775 0.493279 0
M  V30 10 C 1.007216 0.518253 -0.623831 0
M  V30 11 C 1.133534 1.695546 -1.244874 0
M  V30 12 N 0.411053 2.884556 -0.872271 0
M  V30 13 C 0.691804 4.044335 -1.667298 0
M  V30 14 C 2.097165 4.587204 -1.465481 0
M  V30 15 C -0.470983 2.732491 0.226384 0
M  V30 16 C -1.161766 3.864651 0.587498 0
M  V30 17 C -2.047435 3.847400 1.638660 0
M  V30 18 C -2.220218 2.640251 2.325975 0
M  V30 19 C -1.506053 1.533451 1.927495 0
M  V30 20 C -0.624171 1.533521 0.887537 0
M  V30 21 S -0.566903 -3.373763 2.792338 0
M  V30 22 C 0.341503 -4.806494 3.431018 0
M  V30 23 S 0.383586 -5.413693 4.943423 0
M  V30 24 H 0.794800 -8.641336 2.169192 0
M  V30 25 H 0.506797 -7.655552 0.668488 0
M  V30 26 H -0.417359 -7.365017 2.245586 0
M  V30 27 H 1.838251 -6.980161 3.309703 0
M  V30 28 H 2.493272 -6.664048 1.670624 0
M  V30 29 H 1.384035 -2.064396 -0.035600 0
M  V30 30 H -0.730682 -0.907406 1.992733 0
M  V30 31 H 1.580100 -0.320676 -0.961146 0
M  V30 32 H 1.841407 1.710202 -2.082327 0
M  V30 33 H -0.006656 4.867983 -1.551728 0
M  V30 34 H 0.592565 3.691597 -2.741751 0
M  V30 35 H 2.394031 5.185902 -2.352742 0
M  V30 36 H 2.046053 5.347219 -0.632486 0
M  V30 37 H 2.790619 3.797566 -1.179038 0
M  V30 38 H -1.066236 4.811991 0.098291 0
M  V30 39 H -2.619882 4.721343 1.962974 0
M  V30 40 H -2.928526 2.656291 3.154443 0
M  V30 41 H -1.714607 0.676610 2.517796 0
M  V30 END ATOM
M  V30 BEGIN BOND
M  V30 1 1 1 2
M  V30 2 1 2 3
M  V30 3 1 3 4
M  V30 4 2 4 5
M  V30 5 1 4 6
M  V30 6 2 6 7
M  V30 7 1 7 8
M  V30 8 2 8 9
M  V30 9 1 9 10
M  V30 10 2 10 11
M  V30 11 1 11 12
M  V30 12 1 12 13
M  V30 13 1 13 14
M  V30 14 1 12 15
M  V30 15 2 15 16
M  V30 16 1 16 17
M  V30 17 2 17 18
M  V30 18 1 18 19
M  V30 19 2 19 20
M  V30 20 1 6 21
M  V30 21 1 21 22
M  V30 22 2 22 23
M  V30 23 1 22 3
M  V30 24 1 20 9
M  V30 25 1 20 15
M  V30 26 1 1 24
M  V30 27 1 1 25
M  V30 28 1 1 26
M  V30 29 1 2 27
M  V30 30 1 2 28
M  V30 31 1 7 29
M  V30 32 1 8 30
M  V30 33 1 10 31
M  V30 34 1 11 32
M  V30 35 1 13 33
M  V30 36 1 13 34
M  V30 37 1 14 35
M  V30 38 1 14 36
M  V30 39 1 14 37
M  V30 40 1 16 38
M  V30 41 1 17 39
M  V30 42 1 18 40
M  V30 43 1 19 41
M  V30 END BOND
M  V30 END CTAB
M  END
>  <Dataset>  (21) 
ChEMBL_Kinases

>  <Ligand_Instance>  (21) 
nan

>  <PDB_ID>  (21) 
nan

>  <Standardized_SMILES>  (21) 
CCN1C(=O)/C(=C/C=C2\C=CN(CC)c3ccccc32)SC1=S

>  <Name>  (21) 
nan

>  <Pocket>  (21) 
nan

>  <ATP_Site>  (21) 
nan

>  <Peripheral>  (21) 
nan

>  <Num_H_Atoms_ProtBoundConf>  (21) 
nan

>  <Num_Resolved_Atoms>  (21) 
nan

>  <Num_Not_Resolved_Atoms>  (21) 
nan

$$$$
CHEMBL1379356
     RDKit          3D

  0  0  0  0  0  0  0  0  0  0999 V3000
M  V30 BEGIN CTAB
M  V30 COUNTS 61 65 0 0 0
M  V30 BEGIN ATOM
M  V30 1 C 1.270140 -4.075471 5.308979 0
M  V30 2 C 1.797094 -2.724208 4.996270 0
M  V30 3 C 2.883393 -2.182253 5.644408 0
M  V30 4 C 3.295821 -0.916829 5.279091 0
M  V30 5 C 2.640971 -0.206111 4.289264 0
M  V30 6 N 1.561964 -0.740482 3.642929 0
M  V30 7 C 0.778723 -0.217576 2.648014 0
M  V30 8 C 1.020053 1.121199 2.069408 0
M  V30 9 N 1.688429 1.178877 0.837272 0
M  V30 10 C 1.109118 0.706219 -0.341534 0
M  V30 11 C -0.045532 1.495584 -0.870067 0
M  V30 12 O 0.340327 2.826701 -1.163224 0
M  V30 13 C -0.738058 3.635923 -1.400034 0
M  V30 14 C -1.991347 2.922750 -1.852237 0
M  V30 15 C -1.560578 1.739678 -2.679938 0
M  V30 16 C -2.178260 1.449853 -3.888463 0
M  V30 17 C -1.721896 0.349048 -4.588526 0
M  V30 18 C -0.676184 -0.444719 -4.099921 0
M  V30 19 C -0.081284 -0.134932 -2.899880 0
M  V30 20 C -0.511099 0.956387 -2.173656 0
M  V30 21 C -0.118109 -1.227490 2.438733 0
M  V30 22 C -1.208164 -1.204475 1.478349 0
M  V30 23 O -2.093396 -0.332041 1.277816 0
M  V30 24 N -1.338863 -2.335776 0.591738 0
M  V30 25 C -2.421395 -2.286634 -0.345436 0
M  V30 26 C -2.200463 -3.049388 -1.607315 0
M  V30 27 C -0.796588 -3.590071 -1.703152 0
M  V30 28 C -0.545652 -4.408517 -0.453631 0
M  V30 29 C -0.395768 -3.461803 0.680888 0
M  V30 30 N 0.123991 -2.271091 3.254840 0
M  V30 31 C 1.200724 -1.975975 4.036264 0
M  V30 32 H 0.799833 -4.503524 4.381325 0
M  V30 33 H 2.061030 -4.718214 5.719057 0
M  V30 34 H 0.473692 -3.989583 6.076165 0
M  V30 35 H 3.370800 -2.765758 6.411765 0
M  V30 36 H 4.155587 -0.557151 5.832258 0
M  V30 37 H 3.004814 0.765807 4.051668 0
M  V30 38 H 0.054193 1.728330 2.071662 0
M  V30 39 H 1.645050 1.729985 2.788824 0
M  V30 40 H 2.602313 1.639416 0.803934 0
M  V30 41 H 1.909177 0.779871 -1.141366 0
M  V30 42 H 0.887006 -0.367783 -0.285008 0
M  V30 43 H -0.911951 1.591953 -0.223496 0
M  V30 44 H -0.969688 4.296952 -0.522011 0
M  V30 45 H -0.473088 4.345562 -2.232961 0
M  V30 46 H -2.553260 2.554823 -0.975226 0
M  V30 47 H -2.615538 3.603486 -2.470050 0
M  V30 48 H -2.994195 2.069744 -4.261866 0
M  V30 49 H -2.172676 0.074096 -5.546923 0
M  V30 50 H -0.293719 -1.312272 -4.617648 0
M  V30 51 H 0.728880 -0.652193 -2.401925 0
M  V30 52 H -3.325946 -2.709958 0.177418 0
M  V30 53 H -2.654547 -1.216186 -0.601284 0
M  V30 54 H -2.883836 -3.943551 -1.689239 0
M  V30 55 H -2.398607 -2.443497 -2.517973 0
M  V30 56 H -0.703217 -4.303815 -2.552373 0
M  V30 57 H -0.018205 -2.819890 -1.733799 0
M  V30 58 H -1.341940 -5.153578 -0.256684 0
M  V30 59 H 0.393125 -5.006338 -0.574412 0
M  V30 60 H -0.517875 -3.947561 1.670734 0
M  V30 61 H 0.626863 -3.026165 0.647614 0
M  V30 END ATOM
M  V30 BEGIN BOND
M  V30 1 1 1 2
M  V30 2 2 2 3
M  V30 3 1 3 4
M  V30 4 2 4 5
M  V30 5 1 5 6
M  V30 6 1 6 7
M  V30 7 1 7 8
M  V30 8 1 8 9
M  V30 9 1 9 10
M  V30 10 1 10 11
M  V30 11 1 11 12
M  V30 12 1 12 13
M  V30 13 1 13 14
M  V30 14 1 14 15
M  V30 15 2 15 16
M  V30 16 1 16 17
M  V30 17 2 17 18
M  V30 18 1 18 19
M  V30 19 2 19 20
M  V30 20 2 7 21
M  V30 21 1 21 22
M  V30 22 2 22 23
M  V30 23 1 22 24
M  V30 24 1 24 25
M  V30 25 1 25 26
M  V30 26 1 26 27
M  V30 27 1 27 28
M  V30 28 1 28 29
M  V30 29 1 21 30
M  V30 30 2 30 31
M  V30 31 1 31 2
M  V30 32 1 31 6
M  V30 33 1 20 11
M  V30 34 1 29 24
M  V30 35 1 20 15
M  V30 36 1 1 32
M  V30 37 1 1 33
M  V30 38 1 1 34
M  V30 39 1 3 35
M  V30 40 1 4 36
M  V30 41 1 5 37
M  V30 42 1 8 38
M  V30 43 1 8 39
M  V30 44 1 9 40
M  V30 45 1 10 41
M  V30 46 1 10 42
M  V30 47 1 11 43
M  V30 48 1 13 44
M  V30 49 1 13 45
M  V30 50 1 14 46
M  V30 51 1 14 47
M  V30 52 1 16 48
M  V30 53 1 17 49
M  V30 54 1 18 50
M  V30 55 1 19 51
M  V30 56 1 25 52
M  V30 57 1 25 53
M  V30 58 1 26 54
M  V30 59 1 26 55
M  V30 60 1 27 56
M  V30 61 1 27 57
M  V30 62 1 28 58
M  V30 63 1 28 59
M  V30 64 1 29 60
M  V30 65 1 29 61
M  V30 END BOND
M  V30 END CTAB
M  END
>  <Dataset>  (22) 
ChEMBL_Kinases

>  <Ligand_Instance>  (22) 
nan

>  <PDB_ID>  (22) 
nan

>  <Standardized_SMILES>  (22) 
Cc1cccn2c(CNCC3OCCc4ccccc43)c(C(=O)N3CCCCC3)nc12

>  <Name>  (22) 
nan

>  <Pocket>  (22) 
nan

>  <ATP_Site>  (22) 
nan

>  <Peripheral>  (22) 
nan

>  <Num_H_Atoms_ProtBoundConf>  (22) 
nan

>  <Num_Resolved_Atoms>  (22) 
nan

>  <Num_Not_Resolved_Atoms>  (22) 
nan

$$$$
CHEMBL1379297
     RDKit          3D

  0  0  0  0  0  0  0  0  0  0999 V3000
M  V30 BEGIN CTAB
M  V30 COUNTS 58 60 0 0 0
M  V30 BEGIN ATOM
M  V30 1 C 3.138425 -1.716647 8.143821 0
M  V30 2 C 3.077611 -1.393954 6.686352 0
M  V30 3 C 2.473020 -2.276248 5.807352 0
M  V30 4 C 2.388562 -2.028116 4.448757 0
M  V30 5 C 2.951234 -0.836551 4.034116 0
M  V30 6 N 2.876339 -0.553488 2.619660 0
M  V30 7 C 1.672319 0.159243 2.355218 0
M  V30 8 O 1.002352 0.347448 3.428483 0
M  V30 9 C 1.240286 0.627043 1.018513 0
M  V30 10 C 2.208565 1.574956 0.384818 0
M  V30 11 C 1.669925 1.942498 -0.982737 0
M  V30 12 C 0.221763 1.523612 -1.144558 0
M  V30 13 N 0.032894 0.115072 -0.967662 0
M  V30 14 S -1.589718 -0.182456 -0.497865 0
M  V30 15 O -1.918410 0.539428 0.784987 0
M  V30 16 O -1.829432 -1.643760 -0.209403 0
M  V30 17 C -2.734816 0.336081 -1.707470 0
M  V30 18 C -3.396928 1.512266 -1.939529 0
M  V30 19 C -3.206725 2.694614 -1.062031 0
M  V30 20 N -4.172466 1.363339 -3.025534 0
M  V30 21 O -4.024681 0.163348 -3.473712 0
M  V30 22 C -3.176075 -0.510086 -2.731465 0
M  V30 23 C -2.852208 -1.903385 -3.054194 0
M  V30 24 C -3.359779 -2.588473 -4.078441 0
M  V30 25 N -2.937059 -3.944852 -4.253161 0
M  V30 26 C -3.807447 -5.076173 -4.416999 0
M  V30 27 C -1.519235 -4.142578 -4.258538 0
M  V30 28 C 0.899095 -0.451112 0.050992 0
M  V30 29 C 3.573034 0.101248 4.837008 0
M  V30 30 C 3.620675 -0.217714 6.198993 0
M  V30 31 F 4.216894 0.663970 7.027323 0
M  V30 32 H 2.151795 -1.484295 8.637196 0
M  V30 33 H 3.348317 -2.774488 8.342634 0
M  V30 34 H 3.867772 -1.062545 8.646997 0
M  V30 35 H 2.049618 -3.195272 6.193912 0
M  V30 36 H 1.924604 -2.691558 3.728925 0
M  V30 37 H 3.511179 -0.764337 1.793220 0
M  V30 38 H 0.301395 1.215930 1.207539 0
M  V30 39 H 2.335504 2.474797 1.037457 0
M  V30 40 H 3.225481 1.140549 0.272757 0
M  V30 41 H 1.675111 3.049371 -1.069149 0
M  V30 42 H 2.259306 1.529968 -1.813250 0
M  V30 43 H -0.057751 1.797802 -2.172952 0
M  V30 44 H -0.426924 2.118488 -0.470547 0
M  V30 45 H -2.317185 3.266791 -1.402175 0
M  V30 46 H -3.139773 2.368708 -0.005690 0
M  V30 47 H -4.122957 3.347298 -1.093276 0
M  V30 48 H -2.146629 -2.404332 -2.405477 0
M  V30 49 H -4.053123 -2.039049 -4.685386 0
M  V30 50 H -4.781461 -4.795011 -4.861736 0
M  V30 51 H -3.937691 -5.588068 -3.443026 0
M  V30 52 H -3.371573 -5.832561 -5.108669 0
M  V30 53 H -1.228190 -4.446882 -5.299352 0
M  V30 54 H -1.289242 -5.032732 -3.618812 0
M  V30 55 H -0.924642 -3.293514 -3.920558 0
M  V30 56 H 1.800766 -0.818210 -0.515840 0
M  V30 57 H 0.374521 -1.322755 0.483723 0
M  V30 58 H 3.978366 0.999485 4.405704 0
M  V30 END ATOM
M  V30 BEGIN BOND
M  V30 1 1 1 2
M  V30 2 2 2 3
M  V30 3 1 3 4
M  V30 4 2 4 5
M  V30 5 1 5 6
M  V30 6 1 6 7
M  V30 7 2 7 8
M  V30 8 1 7 9
M  V30 9 1 9 10
M  V30 10 1 10 11
M  V30 11 1 11 12
M  V30 12 1 12 13
M  V30 13 1 13 14
M  V30 14 2 14 15
M  V30 15 2 14 16
M  V30 16 1 14 17
M  V30 17 1 17 18
M  V30 18 1 18 19
M  V30 19 2 18 20
M  V30 20 1 20 21
M  V30 21 1 21 22
M  V30 22 1 22 23
M  V30 23 2 23 24
M  V30 24 1 24 25
M  V30 25 1 25 26
M  V30 26 1 25 27
M  V30 27 1 13 28
M  V30 28 1 5 29
M  V30 29 2 29 30
M  V30 30 1 30 31
M  V30 31 1 30 2
M  V30 32 1 28 9
M  V30 33 2 22 17
M  V30 34 1 1 32
M  V30 35 1 1 33
M  V30 36 1 1 34
M  V30 37 1 3 35
M  V30 38 1 4 36
M  V30 39 1 6 37
M  V30 40 1 9 38
M  V30 41 1 10 39
M  V30 42 1 10 40
M  V30 43 1 11 41
M  V30 44 1 11 42
M  V30 45 1 12 43
M  V30 46 1 12 44
M  V30 47 1 19 45
M  V30 48 1 19 46
M  V30 49 1 19 47
M  V30 50 1 23 48
M  V30 51 1 24 49
M  V30 52 1 26 50
M  V30 53 1 26 51
M  V30 54 1 26 52
M  V30 55 1 27 53
M  V30 56 1 27 54
M  V30 57 1 27 55
M  V30 58 1 28 56
M  V30 59 1 28 57
M  V30 60 1 29 58
M  V30 END BOND
M  V30 END CTAB
M  END
>  <Dataset>  (23) 
ChEMBL_Kinases

>  <Ligand_Instance>  (23) 
nan

>  <PDB_ID>  (23) 
nan

>  <Standardized_SMILES>  (23) 
Cc1ccc(NC(=O)C2CCCN(S(=O)(=O)c3c(C)noc3/C=C/N(C)C)C2)cc1F

>  <Name>  (23) 
nan

>  <Pocket>  (23) 
nan

>  <ATP_Site>  (23) 
nan

>  <Peripheral>  (23) 
nan

>  <Num_H_Atoms_ProtBoundConf>  (23) 
nan

>  <Num_Resolved_Atoms>  (23) 
nan

>  <Num_Not_Resolved_Atoms>  (23) 
nan

$$$$
CHEMBL1379264
     RDKit          3D

  0  0  0  0  0  0  0  0  0  0999 V3000
M  V30 BEGIN CTAB
M  V30 COUNTS 34 36 0 0 0
M  V30 BEGIN ATOM
M  V30 1 C -1.949199 -5.132505 2.913794 0
M  V30 2 O -2.311427 -4.530284 1.687339 0
M  V30 3 C -1.732356 -3.365679 1.217000 0
M  V30 4 C -0.749760 -2.741919 1.964388 0
M  V30 5 C -0.173568 -1.578431 1.491047 0
M  V30 6 C -0.607153 -1.080728 0.277953 0
M  V30 7 C 0.015508 0.152927 -0.206457 0
M  V30 8 N -0.228474 0.831118 -1.344047 0
M  V30 9 N 0.574020 1.908233 -1.382327 0
M  V30 10 C 1.311727 1.882046 -0.256087 0
M  V30 11 C 2.337296 2.828029 0.186991 0
M  V30 12 C 2.953914 2.568598 1.399747 0
M  V30 13 C 3.934157 3.479709 1.815266 0
M  V30 14 C 4.224786 4.564568 1.007467 0
M  V30 15 N 3.587224 4.770427 -0.175188 0
M  V30 16 C 2.633758 3.914246 -0.613685 0
M  V30 17 O 0.952573 0.810797 0.434346 0
M  V30 18 C -1.588331 -1.709561 -0.461533 0
M  V30 19 C -2.180139 -2.881806 -0.001391 0
M  V30 20 O -3.172169 -3.567323 -0.692221 0
M  V30 21 C -3.588165 -3.023786 -1.931537 0
M  V30 22 H -2.399058 -4.529087 3.726270 0
M  V30 23 H -0.848707 -5.085787 3.043522 0
M  V30 24 H -2.345796 -6.146262 2.978396 0
M  V30 25 H -0.390683 -3.102431 2.909997 0
M  V30 26 H 0.598534 -1.082192 2.071356 0
M  V30 27 H 2.709926 1.713426 2.014411 0
M  V30 28 H 4.427622 3.293068 2.761826 0
M  V30 29 H 4.992613 5.218586 1.401095 0
M  V30 30 H 2.135486 4.093986 -1.559483 0
M  V30 31 H -1.914911 -1.308560 -1.405124 0
M  V30 32 H -2.778023 -2.722365 -2.597502 0
M  V30 33 H -4.174481 -3.840637 -2.436834 0
M  V30 34 H -4.258351 -2.143905 -1.780551 0
M  V30 END ATOM
M  V30 BEGIN BOND
M  V30 1 1 1 2
M  V30 2 1 2 3
M  V30 3 2 3 4
M  V30 4 1 4 5
M  V30 5 2 5 6
M  V30 6 1 6 7
M  V30 7 2 7 8
M  V30 8 1 8 9
M  V30 9 2 9 10
M  V30 10 1 10 11
M  V30 11 2 11 12
M  V30 12 1 12 13
M  V30 13 2 13 14
M  V30 14 1 14 15
M  V30 15 2 15 16
M  V30 16 1 10 17
M  V30 17 1 6 18
M  V30 18 2 18 19
M  V30 19 1 19 20
M  V30 20 1 20 21
M  V30 21 1 19 3
M  V30 22 1 17 7
M  V30 23 1 16 11
M  V30 24 1 1 22
M  V30 25 1 1 23
M  V30 26 1 1 24
M  V30 27 1 4 25
M  V30 28 1 5 26
M  V30 29 1 12 27
M  V30 30 1 13 28
M  V30 31 1 14 29
M  V30 32 1 16 30
M  V30 33 1 18 31
M  V30 34 1 21 32
M  V30 35 1 21 33
M  V30 36 1 21 34
M  V30 END BOND
M  V30 END CTAB
M  END
>  <Dataset>  (24) 
ChEMBL_Kinases

>  <Ligand_Instance>  (24) 
nan

>  <PDB_ID>  (24) 
nan

>  <Standardized_SMILES>  (24) 
COc1ccc(-c2nnc(-c3cccnc3)o2)cc1OC

>  <Name>  (24) 
nan

>  <Pocket>  (24) 
nan

>  <ATP_Site>  (24) 
nan

>  <Peripheral>  (24) 
nan

>  <Num_H_Atoms_ProtBoundConf>  (24) 
nan

>  <Num_Resolved_Atoms>  (24) 
nan

>  <Num_Not_Resolved_Atoms>  (24) 
nan

$$$$
CHEMBL1379189
     RDKit          3D

  0  0  0  0  0  0  0  0  0  0999 V3000
M  V30 BEGIN CTAB
M  V30 COUNTS 59 63 0 0 0
M  V30 BEGIN ATOM
M  V30 1 C 0.877268 -1.486937 6.111115 0
M  V30 2 C 1.607575 -0.654102 5.096080 0
M  V30 3 C 1.545122 -0.890913 3.738516 0
M  V30 4 C 2.248870 -0.071730 2.845630 0
M  V30 5 C 3.014734 0.980465 3.283583 0
M  V30 6 N 3.706622 1.783904 2.330091 0
M  V30 7 C 3.594679 1.401986 0.975646 0
M  V30 8 N 4.464998 0.631985 0.268326 0
M  V30 9 C 4.193845 0.348583 -1.037467 0
M  V30 10 N 5.141516 -0.461327 -1.733247 0
M  V30 11 N 3.087005 0.808888 -1.650704 0
M  V30 12 C 2.226444 1.580897 -0.920730 0
M  V30 13 C 1.004945 2.071140 -1.586345 0
M  V30 14 N -0.154407 1.260139 -1.436805 0
M  V30 15 C -0.645270 1.153700 -0.075833 0
M  V30 16 C -1.553325 -0.059171 0.080830 0
M  V30 17 N -0.776305 -1.207286 -0.120945 0
M  V30 18 C -1.224665 -2.477693 0.182593 0
M  V30 19 C -2.398180 -2.836086 -0.653354 0
M  V30 20 C -2.148900 -3.481021 -1.849242 0
M  V30 21 C -3.226966 -3.821372 -2.639536 0
M  V30 22 C -4.544201 -3.566699 -2.327305 0
M  V30 23 C -4.787415 -2.912275 -1.112432 0
M  V30 24 C -3.706574 -2.576616 -0.330082 0
M  V30 25 O -6.150648 -2.721933 -0.930230 0
M  V30 26 C -6.758949 -3.490654 -1.954884 0
M  V30 27 O -5.768771 -3.781687 -2.897782 0
M  V30 28 C 0.334728 -1.028981 -0.976071 0
M  V30 29 C -0.099319 -0.039025 -2.035720 0
M  V30 30 N 2.476880 1.872822 0.372203 0
M  V30 31 C 3.086459 1.228955 4.637400 0
M  V30 32 C 2.391581 0.421363 5.529645 0
M  V30 33 H 0.867626 -2.552460 5.857901 0
M  V30 34 H 1.357684 -1.333279 7.086975 0
M  V30 35 H -0.165788 -1.075060 6.166168 0
M  V30 36 H 0.935278 -1.728238 3.377696 0
M  V30 37 H 2.160306 -0.306111 1.815293 0
M  V30 38 H 4.258680 2.610958 2.690118 0
M  V30 39 H 5.413674 -1.422509 -1.442717 0
M  V30 40 H 5.542989 0.020535 -2.583219 0
M  V30 41 H 1.217488 2.141458 -2.681416 0
M  V30 42 H 0.773923 3.095406 -1.205380 0
M  V30 43 H 0.197452 1.123283 0.621756 0
M  V30 44 H -1.295840 2.040567 0.100893 0
M  V30 45 H -2.333841 0.023012 -0.693173 0
M  V30 46 H -1.957627 -0.033575 1.104101 0
M  V30 47 H -0.422389 -3.211803 -0.029099 0
M  V30 48 H -1.480064 -2.650454 1.264886 0
M  V30 49 H -1.198244 -3.754328 -2.244440 0
M  V30 50 H -3.096791 -4.336084 -3.602079 0
M  V30 51 H -3.905390 -2.071013 0.608666 0
M  V30 52 H -7.132494 -4.426250 -1.540421 0
M  V30 53 H -7.507148 -2.838637 -2.431432 0
M  V30 54 H 0.724539 -1.966098 -1.415243 0
M  V30 55 H 1.156365 -0.656365 -0.329647 0
M  V30 56 H -1.153603 -0.287631 -2.332602 0
M  V30 57 H 0.504097 -0.089409 -2.949153 0
M  V30 58 H 3.676916 2.044364 5.028168 0
M  V30 59 H 2.471692 0.645466 6.584004 0
M  V30 END ATOM
M  V30 BEGIN BOND
M  V30 1 1 1 2
M  V30 2 2 2 3
M  V30 3 1 3 4
M  V30 4 2 4 5
M  V30 5 1 5 6
M  V30 6 1 6 7
M  V30 7 2 7 8
M  V30 8 1 8 9
M  V30 9 1 9 10
M  V30 10 2 9 11
M  V30 11 1 11 12
M  V30 12 1 12 13
M  V30 13 1 13 14
M  V30 14 1 14 15
M  V30 15 1 15 16
M  V30 16 1 16 17
M  V30 17 1 17 18
M  V30 18 1 18 19
M  V30 19 2 19 20
M  V30 20 1 20 21
M  V30 21 2 21 22
M  V30 22 1 22 23
M  V30 23 2 23 24
M  V30 24 1 23 25
M  V30 25 1 25 26
M  V30 26 1 26 27
M  V30 27 1 17 28
M  V30 28 1 28 29
M  V30 29 2 12 30
M  V30 30 1 5 31
M  V30 31 2 31 32
M  V30 32 1 32 2
M  V30 33 1 30 7
M  V30 34 1 29 14
M  V30 35 1 24 19
M  V30 36 1 27 22
M  V30 37 1 1 33
M  V30 38 1 1 34
M  V30 39 1 1 35
M  V30 40 1 3 36
M  V30 41 1 4 37
M  V30 42 1 6 38
M  V30 43 1 10 39
M  V30 44 1 10 40
M  V30 45 1 13 41
M  V30 46 1 13 42
M  V30 47 1 15 43
M  V30 48 1 15 44
M  V30 49 1 16 45
M  V30 50 1 16 46
M  V30 51 1 18 47
M  V30 52 1 18 48
M  V30 53 1 20 49
M  V30 54 1 21 50
M  V30 55 1 24 51
M  V30 56 1 26 52
M  V30 57 1 26 53
M  V30 58 1 28 54
M  V30 59 1 28 55
M  V30 60 1 29 56
M  V30 61 1 29 57
M  V30 62 1 31 58
M  V30 63 1 32 59
M  V30 END BOND
M  V30 END CTAB
M  END
>  <Dataset>  (25) 
ChEMBL_Kinases

>  <Ligand_Instance>  (25) 
nan

>  <PDB_ID>  (25) 
nan

>  <Standardized_SMILES>  (25) 
Cc1ccc(Nc2nc(N)nc(CN3CCN(Cc4ccc5c(c4)OCO5)CC3)n2)cc1

>  <Name>  (25) 
nan

>  <Pocket>  (25) 
nan

>  <ATP_Site>  (25) 
nan

>  <Peripheral>  (25) 
nan

>  <Num_H_Atoms_ProtBoundConf>  (25) 
nan

>  <Num_Resolved_Atoms>  (25) 
nan

>  <Num_Not_Resolved_Atoms>  (25) 
nan

$$$$
CHEMBL1379045
     RDKit          3D

  0  0  0  0  0  0  0  0  0  0999 V3000
M  V30 BEGIN CTAB
M  V30 COUNTS 32 35 0 0 0
M  V30 BEGIN ATOM
M  V30 1 O 0.042085 -2.929039 4.168355 0
M  V30 2 S 0.063407 -1.835786 3.138712 0
M  V30 3 O 0.014421 -0.498146 3.866453 0
M  V30 4 N 1.270499 -1.883981 1.975111 0
M  V30 5 C 2.111106 -1.620833 0.875922 0
M  V30 6 N 3.108576 -2.466059 0.616115 0
M  V30 7 C 4.027276 -2.484934 -0.289299 0
M  V30 8 N 3.934066 -1.456901 -1.097014 0
M  V30 9 C 2.949110 -0.541832 -0.909346 0
M  V30 10 S 2.664663 0.977857 -1.922539 0
M  V30 11 C 1.293298 1.509038 -0.997170 0
M  V30 12 C 1.108433 0.562962 -0.001942 0
M  V30 13 C 1.953159 -0.516593 0.068796 0
M  V30 14 C -0.039353 1.084060 0.776838 0
M  V30 15 C -0.854617 1.824629 -0.261458 0
M  V30 16 C 0.276019 2.606470 -0.931416 0
M  V30 17 C -1.507817 -2.032122 2.288224 0
M  V30 18 C -1.857247 -2.200394 1.011708 0
M  V30 19 C -3.171228 -2.321977 0.683814 0
M  V30 20 C -4.080900 -2.258113 1.751970 0
M  V30 21 Cl -5.909826 -2.412321 1.426946 0
M  V30 22 S -2.928817 -2.014111 3.241534 0
M  V30 23 H 1.624732 -2.734631 2.463231 0
M  V30 24 H 4.818806 -3.170741 -0.482357 0
M  V30 25 H 0.298823 1.887204 1.493623 0
M  V30 26 H -0.603595 0.386337 1.353357 0
M  V30 27 H -1.318156 1.087014 -0.929861 0
M  V30 28 H -1.593482 2.488938 0.225590 0
M  V30 29 H 0.570725 3.414008 -0.261988 0
M  V30 30 H -0.070060 2.888688 -1.926738 0
M  V30 31 H -1.015606 -2.223880 0.334921 0
M  V30 32 H -3.480611 -2.459108 -0.342719 0
M  V30 END ATOM
M  V30 BEGIN BOND
M  V30 1 2 1 2
M  V30 2 2 2 3
M  V30 3 1 2 4
M  V30 4 1 4 5
M  V30 5 2 5 6
M  V30 6 1 6 7
M  V30 7 2 7 8
M  V30 8 1 8 9
M  V30 9 1 9 10
M  V30 10 1 10 11
M  V30 11 2 11 12
M  V30 12 1 12 13
M  V30 13 1 12 14
M  V30 14 1 14 15
M  V30 15 1 15 16
M  V30 16 1 2 17
M  V30 17 2 17 18
M  V30 18 1 18 19
M  V30 19 2 19 20
M  V30 20 1 20 21
M  V30 21 1 20 22
M  V30 22 1 13 5
M  V30 23 1 22 17
M  V30 24 2 13 9
M  V30 25 1 16 11
M  V30 26 1 4 23
M  V30 27 1 7 24
M  V30 28 1 14 25
M  V30 29 1 14 26
M  V30 30 1 15 27
M  V30 31 1 15 28
M  V30 32 1 16 29
M  V30 33 1 16 30
M  V30 34 1 18 31
M  V30 35 1 19 32
M  V30 END BOND
M  V30 END CTAB
M  END
>  <Dataset>  (26) 
ChEMBL_Kinases

>  <Ligand_Instance>  (26) 
nan

>  <PDB_ID>  (26) 
nan

>  <Standardized_SMILES>  (26) 
O=S(=O)(Nc1ncnc2sc3c(c12)CCC3)c1ccc(Cl)s1

>  <Name>  (26) 
nan

>  <Pocket>  (26) 
nan

>  <ATP_Site>  (26) 
nan

>  <Peripheral>  (26) 
nan

>  <Num_H_Atoms_ProtBoundConf>  (26) 
nan

>  <Num_Resolved_Atoms>  (26) 
nan

>  <Num_Not_Resolved_Atoms>  (26) 
nan

$$$$
CHEMBL1377491
     RDKit          3D

  0  0  0  0  0  0  0  0  0  0999 V3000
M  V30 BEGIN CTAB
M  V30 COUNTS 44 47 0 0 0
M  V30 BEGIN ATOM
M  V30 1 O 1.915837 -2.689755 1.904912 0
M  V30 2 C 1.076760 -3.439070 1.392718 0
M  V30 3 C 0.421549 -2.813424 2.596668 0
M  V30 4 S 1.457977 -1.679853 3.459334 0
M  V30 5 C 1.856698 -0.156591 2.689296 0
M  V30 6 N 2.747081 0.461717 3.522200 0
M  V30 7 N 3.083671 1.600428 2.981854 0
M  V30 8 C 2.460082 1.779385 1.822670 0
M  V30 9 C 2.536052 2.896274 0.892292 0
M  V30 10 C 3.005168 2.920793 -0.400166 0
M  V30 11 C 2.846216 4.244260 -0.824599 0
M  V30 12 C 2.293099 4.920288 0.242490 0
M  V30 13 Br 1.883680 6.786975 0.146742 0
M  V30 14 O 2.119647 4.098808 1.246690 0
M  V30 15 N 1.706206 0.681870 1.663274 0
M  V30 16 C 0.833762 0.318303 0.597371 0
M  V30 17 C -0.524000 0.945455 0.751348 0
M  V30 18 C -1.631854 0.568539 1.467500 0
M  V30 19 C -2.799505 1.277711 1.479159 0
M  V30 20 C -2.959241 2.431072 0.772100 0
M  V30 21 C -1.901889 2.866800 0.038266 0
M  V30 22 C -0.734495 2.141246 0.036983 0
M  V30 23 C 0.348071 -4.379575 0.563823 0
M  V30 24 C 1.072773 -4.781781 -0.548314 0
M  V30 25 C 0.490420 -5.673891 -1.423304 0
M  V30 26 C -0.781280 -6.091258 -1.106314 0
M  V30 27 C -1.472985 -5.672346 0.006288 0
M  V30 28 C -0.917883 -4.784585 0.894725 0
M  V30 29 F -1.594347 -4.381226 1.982080 0
M  V30 30 H -0.524040 -2.416826 2.233575 0
M  V30 31 H 0.147769 -3.671253 3.280296 0
M  V30 32 H 3.394268 2.037391 -0.886399 0
M  V30 33 H 3.140482 4.567684 -1.834878 0
M  V30 34 H 1.260175 0.713192 -0.345695 0
M  V30 35 H 0.735627 -0.773790 0.415311 0
M  V30 36 H -1.491327 -0.338432 2.022969 0
M  V30 37 H -3.586620 0.833408 2.105275 0
M  V30 38 H -3.883332 2.971638 0.795658 0
M  V30 39 H -1.982319 3.776962 -0.539555 0
M  V30 40 H 0.073156 2.546767 -0.575248 0
M  V30 41 H 2.070838 -4.446054 -0.786309 0
M  V30 42 H 0.957050 -6.056881 -2.319209 0
M  V30 43 H -1.259464 -6.785644 -1.769371 0
M  V30 44 H -2.491646 -6.025545 0.233081 0
M  V30 END ATOM
M  V30 BEGIN BOND
M  V30 1 2 1 2
M  V30 2 1 2 3
M  V30 3 1 3 4
M  V30 4 1 4 5
M  V30 5 2 5 6
M  V30 6 1 6 7
M  V30 7 2 7 8
M  V30 8 1 8 9
M  V30 9 2 9 10
M  V30 10 1 10 11
M  V30 11 2 11 12
M  V30 12 1 12 13
M  V30 13 1 12 14
M  V30 14 1 8 15
M  V30 15 1 15 16
M  V30 16 1 16 17
M  V30 17 2 17 18
M  V30 18 1 18 19
M  V30 19 2 19 20
M  V30 20 1 20 21
M  V30 21 2 21 22
M  V30 22 1 2 23
M  V30 23 2 23 24
M  V30 24 1 24 25
M  V30 25 2 25 26
M  V30 26 1 26 27
M  V30 27 2 27 28
M  V30 28 1 28 29
M  V30 29 1 15 5
M  V30 30 1 22 17
M  V30 31 1 28 23
M  V30 32 1 14 9
M  V30 33 1 3 30
M  V30 34 1 3 31
M  V30 35 1 10 32
M  V30 36 1 11 33
M  V30 37 1 16 34
M  V30 38 1 16 35
M  V30 39 1 18 36
M  V30 40 1 19 37
M  V30 41 1 20 38
M  V30 42 1 21 39
M  V30 43 1 22 40
M  V30 44 1 24 41
M  V30 45 1 25 42
M  V30 46 1 26 43
M  V30 47 1 27 44
M  V30 END BOND
M  V30 END CTAB
M  END
>  <Dataset>  (27) 
ChEMBL_Kinases

>  <Ligand_Instance>  (27) 
nan

>  <PDB_ID>  (27) 
nan

>  <Standardized_SMILES>  (27) 
O=C(CSc1nnc(-c2ccc(Br)o2)n1Cc1ccccc1)c1ccccc1F

>  <Name>  (27) 
nan

>  <Pocket>  (27) 
nan

>  <ATP_Site>  (27) 
nan

>  <Peripheral>  (27) 
nan

>  <Num_H_Atoms_ProtBoundConf>  (27) 
nan

>  <Num_Resolved_Atoms>  (27) 
nan

>  <Num_Not_Resolved_Atoms>  (27) 
nan

$$$$
CHEMBL1377499
     RDKit          3D

  0  0  0  0  0  0  0  0  0  0999 V3000
M  V30 BEGIN CTAB
M  V30 COUNTS 68 72 0 0 0
M  V30 BEGIN ATOM
M  V30 1 C 8.352332 1.329841 3.026763 0
M  V30 2 C 7.147485 1.710181 2.216855 0
M  V30 3 C 6.100282 0.893609 1.848965 0
M  V30 4 C 5.180671 1.603416 1.107927 0
M  V30 5 N 3.957503 1.179750 0.523265 0
M  V30 6 C 3.419216 -0.112277 0.590930 0
M  V30 7 O 4.076118 -1.002049 1.232794 0
M  V30 8 C 2.120277 -0.404588 -0.075649 0
M  V30 9 C 0.995012 0.422827 0.437748 0
M  V30 10 C 0.111448 1.018630 -0.593397 0
M  V30 11 O 0.777204 1.607915 -1.477530 0
M  V30 12 N -1.259620 0.754451 -0.288054 0
M  V30 13 C -2.321715 1.364738 -1.035638 0
M  V30 14 C -2.902111 0.704646 -2.197656 0
M  V30 15 C -2.049578 0.350526 -3.368579 0
M  V30 16 C -0.931434 -0.596921 -3.119482 0
M  V30 17 C -1.472931 1.597669 -4.043510 0
M  V30 18 C -1.315897 -0.143355 0.842225 0
M  V30 19 C -2.099733 -1.402386 0.568840 0
M  V30 20 O -2.716740 -2.079030 -0.289149 0
M  V30 21 N -2.220705 -2.200935 1.769300 0
M  V30 22 C -2.918041 -3.471738 1.851278 0
M  V30 23 C -4.390694 -3.323748 1.928146 0
M  V30 24 C -5.364997 -3.333244 0.953684 0
M  V30 25 C -6.689881 -3.159490 1.287372 0
M  V30 26 C -7.147005 -2.968054 2.573608 0
M  V30 27 C -6.186906 -2.956422 3.556949 0
M  V30 28 C -4.857114 -3.129038 3.236776 0
M  V30 29 C 0.068741 -0.594619 1.003769 0
M  V30 30 C 0.496600 -1.126739 2.306562 0
M  V30 31 C 1.642543 -1.763283 1.954642 0
M  V30 32 C 1.696980 -1.786272 0.445853 0
M  V30 33 C 2.390029 -2.922277 -0.148997 0
M  V30 34 O 0.329403 -1.702819 0.182821 0
M  V30 35 N 5.721266 2.832496 1.061256 0
M  V30 36 O 6.839428 2.870822 1.698244 0
M  V30 37 H 9.069484 0.856319 2.341590 0
M  V30 38 H 8.087204 0.548962 3.791421 0
M  V30 39 H 8.801017 2.217373 3.508572 0
M  V30 40 H 6.042459 -0.150667 2.121201 0
M  V30 41 H 3.401260 1.904165 -0.012301 0
M  V30 42 H 2.238193 -0.468026 -1.152820 0
M  V30 43 H 1.301975 1.203316 1.161559 0
M  V30 44 H -3.179442 1.650116 -0.315085 0
M  V30 45 H -1.960099 2.417489 -1.299737 0
M  V30 46 H -3.677887 1.434506 -2.637709 0
M  V30 47 H -3.573028 -0.166883 -1.963848 0
M  V30 48 H -2.715541 -0.123698 -4.165395 0
M  V30 49 H -1.020267 -1.442441 -3.876592 0
M  V30 50 H 0.087218 -0.180152 -3.376901 0
M  V30 51 H -0.958969 -1.123439 -2.154341 0
M  V30 52 H -1.881584 2.518921 -3.574964 0
M  V30 53 H -0.372860 1.540814 -3.947976 0
M  V30 54 H -1.691968 1.540193 -5.114330 0
M  V30 55 H -1.733974 0.339088 1.745886 0
M  V30 56 H -1.803653 -1.911139 2.711239 0
M  V30 57 H -2.649320 -4.112741 0.946416 0
M  V30 58 H -2.570935 -4.057750 2.699679 0
M  V30 59 H -4.992349 -3.489352 -0.031342 0
M  V30 60 H -7.353756 -3.187662 0.426002 0
M  V30 61 H -8.202627 -2.847634 2.679195 0
M  V30 62 H -6.533251 -2.807701 4.568195 0
M  V30 63 H -4.201794 -3.098984 4.104698 0
M  V30 64 H 0.376717 -1.271752 3.385466 0
M  V30 65 H 2.510217 -2.248242 2.439220 0
M  V30 66 H 2.924296 -2.650197 -1.085601 0
M  V30 67 H 1.648791 -3.707785 -0.459246 0
M  V30 68 H 3.189814 -3.368110 0.503684 0
M  V30 END ATOM
M  V30 BEGIN BOND
M  V30 1 1 1 2
M  V30 2 2 2 3
M  V30 3 1 3 4
M  V30 4 1 4 5
M  V30 5 1 5 6
M  V30 6 2 6 7
M  V30 7 1 6 8
M  V30 8 1 8 9
M  V30 9 1 9 10
M  V30 10 2 10 11
M  V30 11 1 10 12
M  V30 12 1 12 13
M  V30 13 1 13 14
M  V30 14 1 14 15
M  V30 15 1 15 16
M  V30 16 1 15 17
M  V30 17 1 12 18
M  V30 18 1 18 19
M  V30 19 2 19 20
M  V30 20 1 19 21
M  V30 21 1 21 22
M  V30 22 1 22 23
M  V30 23 2 23 24
M  V30 24 1 24 25
M  V30 25 2 25 26
M  V30 26 1 26 27
M  V30 27 2 27 28
M  V30 28 1 18 29
M  V30 29 1 29 30
M  V30 30 2 30 31
M  V30 31 1 31 32
M  V30 32 1 32 33
M  V30 33 1 32 34
M  V30 34 2 4 35
M  V30 35 1 35 36
M  V30 36 1 36 2
M  V30 37 1 32 8
M  V30 38 1 29 9
M  V30 39 1 28 23
M  V30 40 1 34 29
M  V30 41 1 1 37
M  V30 42 1 1 38
M  V30 43 1 1 39
M  V30 44 1 3 40
M  V30 45 1 5 41
M  V30 46 1 8 42
M  V30 47 1 9 43
M  V30 48 1 13 44
M  V30 49 1 13 45
M  V30 50 1 14 46
M  V30 51 1 14 47
M  V30 52 1 15 48
M  V30 53 1 16 49
M  V30 54 1 16 50
M  V30 55 1 16 51
M  V30 56 1 17 52
M  V30 57 1 17 53
M  V30 58 1 17 54
M  V30 59 1 18 55
M  V30 60 1 21 56
M  V30 61 1 22 57
M  V30 62 1 22 58
M  V30 63 1 24 59
M  V30 64 1 25 60
M  V30 65 1 26 61
M  V30 66 1 27 62
M  V30 67 1 28 63
M  V30 68 1 30 64
M  V30 69 1 31 65
M  V30 70 1 33 66
M  V30 71 1 33 67
M  V30 72 1 33 68
M  V30 END BOND
M  V30 END CTAB
M  END
>  <Dataset>  (28) 
ChEMBL_Kinases

>  <Ligand_Instance>  (28) 
nan

>  <PDB_ID>  (28) 
nan

>  <Standardized_SMILES>  (28) 
Cc1cc(NC(=O)C2C3C(=O)N(CCC(C)C)C(C(=O)NCc4ccccc4)C34C=CC2(C)O4)no1

>  <Name>  (28) 
nan

>  <Pocket>  (28) 
nan

>  <ATP_Site>  (28) 
nan

>  <Peripheral>  (28) 
nan

>  <Num_H_Atoms_ProtBoundConf>  (28) 
nan

>  <Num_Resolved_Atoms>  (28) 
nan

>  <Num_Not_Resolved_Atoms>  (28) 
nan

$$$$
CHEMBL1377655
     RDKit          3D

  0  0  0  0  0  0  0  0  0  0999 V3000
M  V30 BEGIN CTAB
M  V30 COUNTS 43 45 0 0 0
M  V30 BEGIN ATOM
M  V30 1 C 0.967387 -5.691388 1.581848 0
M  V30 2 O 0.072716 -4.794332 2.168552 0
M  V30 3 C -0.029177 -3.467256 1.773686 0
M  V30 4 C 0.809474 -3.088629 0.763938 0
M  V30 5 C 0.754511 -1.780213 0.327561 0
M  V30 6 C 1.554447 -1.097608 -0.756541 0
M  V30 7 C 0.633340 -0.716689 -1.830671 0
M  V30 8 C 0.924080 0.421487 -2.684857 0
M  V30 9 O 1.133503 0.191657 -3.929852 0
M  V30 10 N 1.028945 1.834332 -2.392938 0
M  V30 11 C 1.404920 2.355400 -1.099082 0
M  V30 12 C 0.963006 3.674541 -0.971982 0
M  V30 13 C 1.211873 4.374910 0.189456 0
M  V30 14 C 1.898001 3.777637 1.231549 0
M  V30 15 C 2.339872 2.474816 1.118217 0
M  V30 16 C 2.099464 1.758948 -0.037409 0
M  V30 17 S 2.700103 0.089664 -0.110310 0
M  V30 18 C -0.124188 -0.887251 0.899366 0
M  V30 19 C -0.975632 -1.293391 1.932745 0
M  V30 20 O -1.879677 -0.479329 2.560577 0
M  V30 21 C -2.120750 0.873021 2.300175 0
M  V30 22 C -0.912506 -2.612728 2.364812 0
M  V30 23 O -1.745376 -3.060445 3.394689 0
M  V30 24 C -1.257037 -2.949901 4.738446 0
M  V30 25 H 0.753194 -6.710909 1.948653 0
M  V30 26 H 0.910688 -5.684988 0.471427 0
M  V30 27 H 2.023979 -5.484310 1.849131 0
M  V30 28 H 1.544641 -3.665775 0.221487 0
M  V30 29 H 2.210240 -1.951459 -1.108490 0
M  V30 30 H -0.407890 -0.548260 -1.419732 0
M  V30 31 H 0.462966 -1.613876 -2.493256 0
M  V30 32 H 0.821932 2.540954 -3.158200 0
M  V30 33 H 0.431935 4.130249 -1.784129 0
M  V30 34 H 0.871577 5.406678 0.301019 0
M  V30 35 H 2.126407 4.257187 2.157967 0
M  V30 36 H 2.886878 1.890883 1.856894 0
M  V30 37 H -0.269894 0.151678 0.658417 0
M  V30 38 H -3.148806 1.157903 2.628449 0
M  V30 39 H -1.328017 1.451421 2.848538 0
M  V30 40 H -1.971596 1.116654 1.233536 0
M  V30 41 H -1.907587 -3.509680 5.420124 0
M  V30 42 H -0.211881 -3.345685 4.702761 0
M  V30 43 H -1.275099 -1.875298 5.022223 0
M  V30 END ATOM
M  V30 BEGIN BOND
M  V30 1 1 1 2
M  V30 2 1 2 3
M  V30 3 2 3 4
M  V30 4 1 4 5
M  V30 5 1 5 6
M  V30 6 1 6 7
M  V30 7 1 7 8
M  V30 8 2 8 9
M  V30 9 1 8 10
M  V30 10 1 10 11
M  V30 11 2 11 12
M  V30 12 1 12 13
M  V30 13 2 13 14
M  V30 14 1 14 15
M  V30 15 2 15 16
M  V30 16 1 16 17
M  V30 17 2 5 18
M  V30 18 1 18 19
M  V30 19 1 19 20
M  V30 20 1 20 21
M  V30 21 2 19 22
M  V30 22 1 22 23
M  V30 23 1 23 24
M  V30 24 1 22 3
M  V30 25 1 17 6
M  V30 26 1 16 11
M  V30 27 1 1 25
M  V30 28 1 1 26
M  V30 29 1 1 27
M  V30 30 1 4 28
M  V30 31 1 6 29
M  V30 32 1 7 30
M  V30 33 1 7 31
M  V30 34 1 10 32
M  V30 35 1 12 33
M  V30 36 1 13 34
M  V30 37 1 14 35
M  V30 38 1 15 36
M  V30 39 1 18 37
M  V30 40 1 21 38
M  V30 41 1 21 39
M  V30 42 1 21 40
M  V30 43 1 24 41
M  V30 44 1 24 42
M  V30 45 1 24 43
M  V30 END BOND
M  V30 END CTAB
M  END
>  <Dataset>  (29) 
ChEMBL_Kinases

>  <Ligand_Instance>  (29) 
nan

>  <PDB_ID>  (29) 
nan

>  <Standardized_SMILES>  (29) 
COc1cc(C2CC(=O)Nc3ccccc3S2)cc(OC)c1OC

>  <Name>  (29) 
nan

>  <Pocket>  (29) 
nan

>  <ATP_Site>  (29) 
nan

>  <Peripheral>  (29) 
nan

>  <Num_H_Atoms_ProtBoundConf>  (29) 
nan

>  <Num_Resolved_Atoms>  (29) 
nan

>  <Num_Not_Resolved_Atoms>  (29) 
nan

$$$$
CHEMBL1377686
     RDKit          3D

  0  0  0  0  0  0  0  0  0  0999 V3000
M  V30 BEGIN CTAB
M  V30 COUNTS 55 58 0 0 0
M  V30 BEGIN ATOM
M  V30 1 C 0.937676 -2.597649 6.857300 0
M  V30 2 O 1.677130 -3.487034 6.056747 0
M  V30 3 C 2.028023 -3.155873 4.747475 0
M  V30 4 C 1.603527 -1.920217 4.312394 0
M  V30 5 C 1.960681 -1.616261 3.020579 0
M  V30 6 C 2.675619 -2.389714 2.137866 0
M  V30 7 O 3.117241 -2.309370 0.896735 0
M  V30 8 C 3.139356 -1.514360 -0.189884 0
M  V30 9 C 1.855590 -1.170992 -0.854915 0
M  V30 10 C 0.845335 -0.435478 -0.059158 0
M  V30 11 N -0.104834 0.139530 -1.017087 0
M  V30 12 C 0.465601 1.322749 -1.522758 0
M  V30 13 C 0.328629 2.501486 -0.604759 0
M  V30 14 C -0.983306 2.584512 0.094158 0
M  V30 15 C -1.996963 1.544982 -0.232962 0
M  V30 16 C -2.905815 2.037415 -1.369981 0
M  V30 17 C -1.428942 0.190326 -0.520599 0
M  V30 18 C -2.376408 -0.658263 -1.331809 0
M  V30 19 C -2.310864 -0.591946 -2.711103 0
M  V30 20 C -3.184514 -1.375219 -3.444500 0
M  V30 21 C -4.104967 -2.207633 -2.857108 0
M  V30 22 Br -5.332769 -3.309096 -3.813906 0
M  V30 23 C -4.170150 -2.273583 -1.478035 0
M  V30 24 C -3.319304 -1.510857 -0.737089 0
M  V30 25 C 1.898343 1.049315 -1.827129 0
M  V30 26 O 2.622654 2.095579 -1.870293 0
M  V30 27 O 2.108449 -0.325355 -1.996530 0
M  V30 28 C 3.072816 -3.636486 2.657715 0
M  V30 29 C 2.751442 -4.028433 3.967234 0
M  V30 30 H 1.568480 -1.711032 7.140630 0
M  V30 31 H 0.047353 -2.186486 6.347146 0
M  V30 32 H 0.613140 -3.109651 7.781111 0
M  V30 33 H 1.039514 -1.190693 4.860162 0
M  V30 34 H 1.681434 -0.665505 2.608022 0
M  V30 35 H 3.775403 -0.583329 -0.018830 0
M  V30 36 H 3.756271 -2.049681 -0.990540 0
M  V30 37 H 1.396769 -2.129834 -1.196674 0
M  V30 38 H 1.319010 0.404831 0.492255 0
M  V30 39 H 0.312581 -1.052642 0.690584 0
M  V30 40 H 0.046605 1.649817 -2.514492 0
M  V30 41 H 0.591723 3.437232 -1.144650 0
M  V30 42 H 1.119450 2.406747 0.173296 0
M  V30 43 H -1.447944 3.572974 -0.198266 0
M  V30 44 H -0.860801 2.697431 1.206112 0
M  V30 45 H -2.697344 1.516586 0.633591 0
M  V30 46 H -3.578412 2.842348 -1.003359 0
M  V30 47 H -2.324311 2.465860 -2.193466 0
M  V30 48 H -3.608303 1.223203 -1.664622 0
M  V30 49 H -1.400724 -0.334630 0.460957 0
M  V30 50 H -1.604353 0.047537 -3.241550 0
M  V30 51 H -3.212426 -1.394688 -4.534426 0
M  V30 52 H -4.828979 -2.870364 -0.880700 0
M  V30 53 H -3.282899 -1.483972 0.356864 0
M  V30 54 H 3.639475 -4.434736 2.188470 0
M  V30 55 H 3.015096 -4.960335 4.441025 0
M  V30 END ATOM
M  V30 BEGIN BOND
M  V30 1 1 1 2
M  V30 2 1 2 3
M  V30 3 2 3 4
M  V30 4 1 4 5
M  V30 5 2 5 6
M  V30 6 1 6 7
M  V30 7 1 7 8
M  V30 8 1 8 9
M  V30 9 1 9 10
M  V30 10 1 10 11
M  V30 11 1 11 12
M  V30 12 1 12 13
M  V30 13 1 13 14
M  V30 14 1 14 15
M  V30 15 1 15 16
M  V30 16 1 15 17
M  V30 17 1 17 18
M  V30 18 2 18 19
M  V30 19 1 19 20
M  V30 20 2 20 21
M  V30 21 1 21 22
M  V30 22 1 21 23
M  V30 23 2 23 24
M  V30 24 1 12 25
M  V30 25 2 25 26
M  V30 26 1 25 27
M  V30 27 1 6 28
M  V30 28 2 28 29
M  V30 29 1 29 3
M  V30 30 1 27 9
M  V30 31 1 17 11
M  V30 32 1 24 18
M  V30 33 1 1 30
M  V30 34 1 1 31
M  V30 35 1 1 32
M  V30 36 1 4 33
M  V30 37 1 5 34
M  V30 38 1 8 35
M  V30 39 1 8 36
M  V30 40 1 9 37
M  V30 41 1 10 38
M  V30 42 1 10 39
M  V30 43 1 12 40
M  V30 44 1 13 41
M  V30 45 1 13 42
M  V30 46 1 14 43
M  V30 47 1 14 44
M  V30 48 1 15 45
M  V30 49 1 16 46
M  V30 50 1 16 47
M  V30 51 1 16 48
M  V30 52 1 17 49
M  V30 53 1 19 50
M  V30 54 1 20 51
M  V30 55 1 23 52
M  V30 56 1 24 53
M  V30 57 1 28 54
M  V30 58 1 29 55
M  V30 END BOND
M  V30 END CTAB
M  END
>  <Dataset>  (30) 
ChEMBL_Kinases

>  <Ligand_Instance>  (30) 
nan

>  <PDB_ID>  (30) 
nan

>  <Standardized_SMILES>  (30) 
COc1ccc(OCC2CN3C(CCC(C)C3c3ccc(Br)cc3)C(=O)O2)cc1

>  <Name>  (30) 
nan

>  <Pocket>  (30) 
nan

>  <ATP_Site>  (30) 
nan

>  <Peripheral>  (30) 
nan

>  <Num_H_Atoms_ProtBoundConf>  (30) 
nan

>  <Num_Resolved_Atoms>  (30) 
nan

>  <Num_Not_Resolved_Atoms>  (30) 
nan

$$$$
CHEMBL1377975
     RDKit          3D

  0  0  0  0  0  0  0  0  0  0999 V3000
M  V30 BEGIN CTAB
M  V30 COUNTS 63 67 0 0 0
M  V30 BEGIN ATOM
M  V30 1 C 2.200065 -1.290737 5.089014 0
M  V30 2 C 2.089513 -0.621828 3.751639 0
M  V30 3 C 3.220203 0.035558 3.320859 0
M  V30 4 C 3.082888 0.641264 2.093410 0
M  V30 5 C 4.227256 1.382848 1.517374 0
M  V30 6 C 1.924363 0.600664 1.351957 0
M  V30 7 C 0.826130 -0.059383 1.811184 0
M  V30 8 N -0.435184 -0.212091 1.219082 0
M  V30 9 C -0.946625 0.273381 0.004564 0
M  V30 10 O -0.047090 0.923205 -0.624875 0
M  V30 11 C -1.454268 0.779823 -1.245811 0
M  V30 12 N -0.482057 1.559335 -1.995558 0
M  V30 13 N -0.336904 2.883530 -1.844483 0
M  V30 14 N 0.615010 3.331185 -2.640593 0
M  V30 15 C 1.114265 2.294753 -3.334459 0
M  V30 16 C 2.120032 2.243349 -4.288716 0
M  V30 17 C 2.387992 0.995308 -4.811003 0
M  V30 18 C 1.699479 -0.132684 -4.410400 0
M  V30 19 C 0.694077 -0.062909 -3.451949 0
M  V30 20 C 0.424391 1.174051 -2.930882 0
M  V30 21 C -1.641961 -0.895536 1.594907 0
M  V30 22 C -2.000818 -2.027269 0.695544 0
M  V30 23 O -3.057666 -2.712506 0.953949 0
M  V30 24 N -1.337735 -2.507749 -0.463451 0
M  V30 25 C -1.848818 -3.627996 -1.199320 0
M  V30 26 C -1.895909 -4.867297 -0.345836 0
M  V30 27 C -0.856150 -5.769333 -0.237500 0
M  V30 28 C -1.267242 -6.755445 0.621572 0
M  V30 29 C -2.565472 -6.418975 1.016494 0
M  V30 30 O -2.864506 -5.295452 0.404583 0
M  V30 31 C -2.777372 0.051347 1.821354 0
M  V30 32 C -4.090497 0.065297 1.404745 0
M  V30 33 C -4.913716 1.099662 1.793205 0
M  V30 34 N -4.482682 2.110500 2.573002 0
M  V30 35 C -3.190816 2.126598 3.001573 0
M  V30 36 C -2.329654 1.103924 2.632688 0
M  V30 37 C 0.918389 -0.676550 3.028698 0
M  V30 38 H 1.322290 -1.960203 5.268632 0
M  V30 39 H 3.153712 -1.843370 5.135817 0
M  V30 40 H 2.141612 -0.474665 5.857980 0
M  V30 41 H 4.134790 0.086756 3.881121 0
M  V30 42 H 4.024550 2.456439 1.562587 0
M  V30 43 H 4.268711 1.123327 0.432210 0
M  V30 44 H 5.153184 1.077303 2.047149 0
M  V30 45 H 1.886035 1.084894 0.417384 0
M  V30 46 H -2.352134 1.470066 -1.115307 0
M  V30 47 H -1.835009 -0.007358 -1.942855 0
M  V30 48 H 2.616528 3.164637 -4.553622 0
M  V30 49 H 3.188685 0.978490 -5.565909 0
M  V30 50 H 1.963126 -1.065866 -4.859436 0
M  V30 51 H 0.146418 -0.923209 -3.124227 0
M  V30 52 H -1.552955 -1.408788 2.607743 0
M  V30 53 H -0.468790 -1.988621 -0.721539 0
M  V30 54 H -2.896042 -3.413832 -1.474933 0
M  V30 55 H -1.198885 -3.848591 -2.042521 0
M  V30 56 H 0.132107 -5.767397 -0.713867 0
M  V30 57 H -0.740245 -7.635129 0.959271 0
M  V30 58 H -3.150181 -7.021051 1.701948 0
M  V30 59 H -4.304973 -0.790201 0.791624 0
M  V30 60 H -5.925731 1.024122 1.418253 0
M  V30 61 H -2.904873 2.967047 3.628049 0
M  V30 62 H -1.320565 1.260901 3.053343 0
M  V30 63 H 0.142257 -1.220109 3.494835 0
M  V30 END ATOM
M  V30 BEGIN BOND
M  V30 1 1 1 2
M  V30 2 2 2 3
M  V30 3 1 3 4
M  V30 4 1 4 5
M  V30 5 2 4 6
M  V30 6 1 6 7
M  V30 7 1 7 8
M  V30 8 1 8 9
M  V30 9 2 9 10
M  V30 10 1 9 11
M  V30 11 1 11 12
M  V30 12 1 12 13
M  V30 13 2 13 14
M  V30 14 1 14 15
M  V30 15 2 15 16
M  V30 16 1 16 17
M  V30 17 2 17 18
M  V30 18 1 18 19
M  V30 19 2 19 20
M  V30 20 1 8 21
M  V30 21 1 21 22
M  V30 22 2 22 23
M  V30 23 1 22 24
M  V30 24 1 24 25
M  V30 25 1 25 26
M  V30 26 2 26 27
M  V30 27 1 27 28
M  V30 28 2 28 29
M  V30 29 1 29 30
M  V30 30 1 21 31
M  V30 31 2 31 32
M  V30 32 1 32 33
M  V30 33 2 33 34
M  V30 34 1 34 35
M  V30 35 2 35 36
M  V30 36 2 7 37
M  V30 37 1 37 2
M  V30 38 1 20 12
M  V30 39 1 30 26
M  V30 40 1 36 31
M  V30 41 1 20 15
M  V30 42 1 1 38
M  V30 43 1 1 39
M  V30 44 1 1 40
M  V30 45 1 3 41
M  V30 46 1 5 42
M  V30 47 1 5 43
M  V30 48 1 5 44
M  V30 49 1 6 45
M  V30 50 1 11 46
M  V30 51 1 11 47
M  V30 52 1 16 48
M  V30 53 1 17 49
M  V30 54 1 18 50
M  V30 55 1 19 51
M  V30 56 1 21 52
M  V30 57 1 24 53
M  V30 58 1 25 54
M  V30 59 1 25 55
M  V30 60 1 27 56
M  V30 61 1 28 57
M  V30 62 1 29 58
M  V30 63 1 32 59
M  V30 64 1 33 60
M  V30 65 1 35 61
M  V30 66 1 36 62
M  V30 67 1 37 63
M  V30 END BOND
M  V30 END CTAB
M  END
>  <Dataset>  (31) 
ChEMBL_Kinases

>  <Ligand_Instance>  (31) 
nan

>  <PDB_ID>  (31) 
nan

>  <Standardized_SMILES>  (31) 
Cc1cc(C)cc(N(C(=O)Cn2nnc3ccccc32)C(C(=O)NCc2ccco2)c2ccncc2)c1

>  <Name>  (31) 
nan

>  <Pocket>  (31) 
nan

>  <ATP_Site>  (31) 
nan

>  <Peripheral>  (31) 
nan

>  <Num_H_Atoms_ProtBoundConf>  (31) 
nan

>  <Num_Resolved_Atoms>  (31) 
nan

>  <Num_Not_Resolved_Atoms>  (31) 
nan

$$$$
CHEMBL1378002
     RDKit          3D

  0  0  0  0  0  0  0  0  0  0999 V3000
M  V30 BEGIN CTAB
M  V30 COUNTS 50 53 0 0 0
M  V30 BEGIN ATOM
M  V30 1 C -0.489406 -6.365939 1.753689 0
M  V30 2 C -0.188755 -4.915291 1.659934 0
M  V30 3 C 0.688918 -4.270149 2.512511 0
M  V30 4 C 0.909297 -2.916015 2.352455 0
M  V30 5 C 0.289288 -2.140358 1.363695 0
M  V30 6 C 0.647156 -0.726336 1.349659 0
M  V30 7 N 1.945689 -0.335279 1.466819 0
M  V30 8 N 2.041368 0.965330 1.430935 0
M  V30 9 C 3.182854 1.821863 1.515828 0
M  V30 10 C 3.209800 2.972843 2.285152 0
M  V30 11 C 4.313649 3.797988 2.365141 0
M  V30 12 C 5.400324 3.390284 1.616003 0
M  V30 13 C 5.446647 2.259851 0.828779 0
M  V30 14 C 4.310654 1.465103 0.783386 0
M  V30 15 C 0.819840 1.521409 1.288403 0
M  V30 16 C -0.055927 0.453642 1.237509 0
M  V30 17 C -1.507194 0.440640 1.091476 0
M  V30 18 O -2.219730 0.472653 2.151409 0
M  V30 19 N -2.115934 0.393689 -0.194588 0
M  V30 20 C -1.529291 0.351284 -1.543279 0
M  V30 21 C -1.942859 1.600163 -2.321180 0
M  V30 22 O -2.947200 2.278757 -1.659751 0
M  V30 23 C -3.992955 1.423970 -1.299878 0
M  V30 24 C -3.564313 0.382733 -0.281254 0
M  V30 25 C -0.583775 -2.796963 0.520209 0
M  V30 26 C -0.798939 -4.150335 0.686312 0
M  V30 27 C -1.744878 -4.837752 -0.235343 0
M  V30 28 H -1.523227 -6.559691 2.107098 0
M  V30 29 H -0.444294 -6.773301 0.707605 0
M  V30 30 H 0.254117 -6.920080 2.336813 0
M  V30 31 H 1.188482 -4.826053 3.287562 0
M  V30 32 H 1.615515 -2.450852 3.055378 0
M  V30 33 H 2.309405 3.204583 2.833876 0
M  V30 34 H 4.328896 4.696065 2.967936 0
M  V30 35 H 6.313175 4.003643 1.635354 0
M  V30 36 H 6.338840 2.004732 0.267700 0
M  V30 37 H 4.291631 0.560996 0.178115 0
M  V30 38 H 0.431600 2.518733 1.214382 0
M  V30 39 H -1.950214 -0.539429 -2.054509 0
M  V30 40 H -0.428008 0.355908 -1.518981 0
M  V30 41 H -2.206956 1.340098 -3.358067 0
M  V30 42 H -1.085500 2.330821 -2.388738 0
M  V30 43 H -4.794370 2.078104 -0.888253 0
M  V30 44 H -4.424808 0.960482 -2.228199 0
M  V30 45 H -4.062748 0.551835 0.683291 0
M  V30 46 H -3.839110 -0.612531 -0.719599 0
M  V30 47 H -1.040794 -2.189690 -0.220036 0
M  V30 48 H -1.194877 -5.072588 -1.160690 0
M  V30 49 H -2.517675 -4.094210 -0.519637 0
M  V30 50 H -2.181889 -5.746799 0.226836 0
M  V30 END ATOM
M  V30 BEGIN BOND
M  V30 1 1 1 2
M  V30 2 2 2 3
M  V30 3 1 3 4
M  V30 4 2 4 5
M  V30 5 1 5 6
M  V30 6 2 6 7
M  V30 7 1 7 8
M  V30 8 1 8 9
M  V30 9 2 9 10
M  V30 10 1 10 11
M  V30 11 2 11 12
M  V30 12 1 12 13
M  V30 13 2 13 14
M  V30 14 1 8 15
M  V30 15 2 15 16
M  V30 16 1 16 17
M  V30 17 2 17 18
M  V30 18 1 17 19
M  V30 19 1 19 20
M  V30 20 1 20 21
M  V30 21 1 21 22
M  V30 22 1 22 23
M  V30 23 1 23 24
M  V30 24 1 5 25
M  V30 25 2 25 26
M  V30 26 1 26 27
M  V30 27 1 26 2
M  V30 28 1 16 6
M  V30 29 1 24 19
M  V30 30 1 14 9
M  V30 31 1 1 28
M  V30 32 1 1 29
M  V30 33 1 1 30
M  V30 34 1 3 31
M  V30 35 1 4 32
M  V30 36 1 10 33
M  V30 37 1 11 34
M  V30 38 1 12 35
M  V30 39 1 13 36
M  V30 40 1 14 37
M  V30 41 1 15 38
M  V30 42 1 20 39
M  V30 43 1 20 40
M  V30 44 1 21 41
M  V30 45 1 21 42
M  V30 46 1 23 43
M  V30 47 1 23 44
M  V30 48 1 24 45
M  V30 49 1 24 46
M  V30 50 1 25 47
M  V30 51 1 27 48
M  V30 52 1 27 49
M  V30 53 1 27 50
M  V30 END BOND
M  V30 END CTAB
M  END
>  <Dataset>  (32) 
ChEMBL_Kinases

>  <Ligand_Instance>  (32) 
nan

>  <PDB_ID>  (32) 
nan

>  <Standardized_SMILES>  (32) 
Cc1ccc(-c2nn(-c3ccccc3)cc2C(=O)N2CCOCC2)cc1C

>  <Name>  (32) 
nan

>  <Pocket>  (32) 
nan

>  <ATP_Site>  (32) 
nan

>  <Peripheral>  (32) 
nan

>  <Num_H_Atoms_ProtBoundConf>  (32) 
nan

>  <Num_Resolved_Atoms>  (32) 
nan

>  <Num_Not_Resolved_Atoms>  (32) 
nan

$$$$
CHEMBL1378110
     RDKit          3D

  0  0  0  0  0  0  0  0  0  0999 V3000
M  V30 BEGIN CTAB
M  V30 COUNTS 35 36 0 0 0
M  V30 BEGIN ATOM
M  V30 1 C -1.687049 -2.832416 5.007935 0
M  V30 2 O -1.103104 -4.039434 4.689297 0
M  V30 3 C 0.269959 -3.919893 4.475235 0
M  V30 4 C 0.580281 -2.981581 3.350966 0
M  V30 5 N 0.800465 -1.872351 3.055196 0
M  V30 6 N 1.039934 -1.451352 1.852736 0
M  V30 7 C 1.073791 -2.115515 0.873494 0
M  V30 8 N 1.342414 -1.692815 -0.531283 0
M  V30 9 C 2.568300 -1.600118 -1.257959 0
M  V30 10 O 3.475048 -1.971169 -0.439550 0
M  V30 11 C 2.428062 -1.131084 -2.653672 0
M  V30 12 S 0.730622 -0.765513 -3.122416 0
M  V30 13 C 0.103333 0.637905 -2.222126 0
M  V30 14 C -1.169864 1.133131 -2.375590 0
M  V30 15 C -1.719652 2.208196 -1.720042 0
M  V30 16 C -0.871177 2.819744 -0.828525 0
M  V30 17 C -1.448684 4.002650 -0.094999 0
M  V30 18 C 0.441470 2.441808 -0.559073 0
M  V30 19 C 0.868516 1.335360 -1.295646 0
M  V30 20 S 0.696051 -3.790188 1.638172 0
M  V30 21 H -1.288725 -2.357178 5.924507 0
M  V30 22 H -2.770253 -3.049525 5.216563 0
M  V30 23 H -1.698286 -2.118066 4.154501 0
M  V30 24 H 0.763740 -4.885305 4.336523 0
M  V30 25 H 0.701408 -3.448978 5.377340 0
M  V30 26 H 0.369583 -1.478060 -0.858817 0
M  V30 27 H 2.871579 -1.839496 -3.372750 0
M  V30 28 H 2.991259 -0.158425 -2.778403 0
M  V30 29 H -1.820000 0.620810 -3.095044 0
M  V30 30 H -2.723259 2.556488 -1.875922 0
M  V30 31 H -0.732295 4.484781 0.570058 0
M  V30 32 H -2.397001 3.680663 0.422678 0
M  V30 33 H -1.765836 4.735168 -0.884800 0
M  V30 34 H 1.078148 2.946522 0.149003 0
M  V30 35 H 1.895383 1.023780 -1.098296 0
M  V30 END ATOM
M  V30 BEGIN BOND
M  V30 1 1 1 2
M  V30 2 1 2 3
M  V30 3 1 3 4
M  V30 4 2 4 5
M  V30 5 1 5 6
M  V30 6 2 6 7
M  V30 7 1 7 8
M  V30 8 1 8 9
M  V30 9 2 9 10
M  V30 10 1 9 11
M  V30 11 1 11 12
M  V30 12 1 12 13
M  V30 13 2 13 14
M  V30 14 1 14 15
M  V30 15 2 15 16
M  V30 16 1 16 17
M  V30 17 1 16 18
M  V30 18 2 18 19
M  V30 19 1 7 20
M  V30 20 1 20 4
M  V30 21 1 19 13
M  V30 22 1 1 21
M  V30 23 1 1 22
M  V30 24 1 1 23
M  V30 25 1 3 24
M  V30 26 1 3 25
M  V30 27 1 8 26
M  V30 28 1 11 27
M  V30 29 1 11 28
M  V30 30 1 14 29
M  V30 31 1 15 30
M  V30 32 1 17 31
M  V30 33 1 17 32
M  V30 34 1 17 33
M  V30 35 1 18 34
M  V30 36 1 19 35
M  V30 END BOND
M  V30 END CTAB
M  END
>  <Dataset>  (33) 
ChEMBL_Kinases

>  <Ligand_Instance>  (33) 
nan

>  <PDB_ID>  (33) 
nan

>  <Standardized_SMILES>  (33) 
COCc1nnc(NC(=O)CSc2ccc(C)cc2)s1

>  <Name>  (33) 
nan

>  <Pocket>  (33) 
nan

>  <ATP_Site>  (33) 
nan

>  <Peripheral>  (33) 
nan

>  <Num_H_Atoms_ProtBoundConf>  (33) 
nan

>  <Num_Resolved_Atoms>  (33) 
nan

>  <Num_Not_Resolved_Atoms>  (33) 
nan

$$$$
CHEMBL1378254
     RDKit          3D

  0  0  0  0  0  0  0  0  0  0999 V3000
M  V30 BEGIN CTAB
M  V30 COUNTS 50 53 0 0 0
M  V30 BEGIN ATOM
M  V30 1 C -2.285106 0.199037 1.369623 0
M  V30 2 C -0.830025 0.107034 1.494981 0
M  V30 3 N -0.081544 1.229808 1.286248 0
M  V30 4 C 1.258510 1.197133 1.389614 0
M  V30 5 N 2.043038 2.362038 1.173688 0
M  V30 6 C 1.428513 3.644208 0.834662 0
M  V30 7 C 2.195369 4.272791 -0.291066 0
M  V30 8 N 3.006104 3.253070 -0.919747 0
M  V30 9 C 3.490990 3.606215 -2.218176 0
M  V30 10 C 4.061302 2.800074 -0.031144 0
M  V30 11 C 3.485193 2.322980 1.281397 0
M  V30 12 N 1.877827 0.044551 1.703126 0
M  V30 13 C 1.173465 -1.100030 1.920045 0
M  V30 14 O 1.807225 -2.297790 2.245043 0
M  V30 15 C -0.221992 -1.091127 1.818232 0
M  V30 16 C -0.972376 -2.325267 2.052699 0
M  V30 17 C -1.472964 -2.978999 0.835474 0
M  V30 18 C -1.247306 -2.463431 -0.422377 0
M  V30 19 C -1.762643 -3.153787 -1.524864 0
M  V30 20 C -2.482002 -4.326498 -1.358043 0
M  V30 21 C -2.693621 -4.823657 -0.067476 0
M  V30 22 C -3.420326 -5.994816 -0.010114 0
M  V30 23 C -3.647897 -6.515308 1.262997 0
M  V30 24 C -3.156442 -5.865606 2.385176 0
M  V30 25 C -2.443299 -4.708203 2.262782 0
M  V30 26 C -2.186249 -4.144873 1.025923 0
M  V30 27 H -2.792644 -0.697409 1.715911 0
M  V30 28 H -2.606881 1.033041 2.055671 0
M  V30 29 H -2.631964 0.544990 0.363923 0
M  V30 30 H 1.372384 4.303120 1.727613 0
M  V30 31 H 0.376979 3.509814 0.511219 0
M  V30 32 H 2.831717 5.106762 0.101585 0
M  V30 33 H 1.486084 4.635948 -1.048478 0
M  V30 34 H 3.062603 4.558566 -2.606271 0
M  V30 35 H 4.590795 3.710670 -2.243120 0
M  V30 36 H 3.187710 2.784723 -2.923865 0
M  V30 37 H 4.571174 1.940720 -0.511060 0
M  V30 38 H 4.845737 3.577788 0.103516 0
M  V30 39 H 3.855879 1.316413 1.519619 0
M  V30 40 H 3.856971 3.037962 2.058424 0
M  V30 41 H 2.628260 -2.565865 1.730593 0
M  V30 42 H -0.318991 -3.052240 2.600711 0
M  V30 43 H -1.834106 -2.160838 2.763925 0
M  V30 44 H -0.690029 -1.561517 -0.497551 0
M  V30 45 H -1.553669 -2.700187 -2.492224 0
M  V30 46 H -2.868521 -4.837015 -2.244688 0
M  V30 47 H -3.792340 -6.480965 -0.905281 0
M  V30 48 H -4.213719 -7.435943 1.378902 0
M  V30 49 H -3.333368 -6.269726 3.368600 0
M  V30 50 H -2.052282 -4.189794 3.142882 0
M  V30 END ATOM
M  V30 BEGIN BOND
M  V30 1 1 1 2
M  V30 2 2 2 3
M  V30 3 1 3 4
M  V30 4 1 4 5
M  V30 5 1 5 6
M  V30 6 1 6 7
M  V30 7 1 7 8
M  V30 8 1 8 9
M  V30 9 1 8 10
M  V30 10 1 10 11
M  V30 11 2 4 12
M  V30 12 1 12 13
M  V30 13 1 13 14
M  V30 14 2 13 15
M  V30 15 1 15 16
M  V30 16 1 16 17
M  V30 17 2 17 18
M  V30 18 1 18 19
M  V30 19 2 19 20
M  V30 20 1 20 21
M  V30 21 2 21 22
M  V30 22 1 22 23
M  V30 23 2 23 24
M  V30 24 1 24 25
M  V30 25 2 25 26
M  V30 26 1 15 2
M  V30 27 1 26 17
M  V30 28 1 11 5
M  V30 29 1 26 21
M  V30 30 1 1 27
M  V30 31 1 1 28
M  V30 32 1 1 29
M  V30 33 1 6 30
M  V30 34 1 6 31
M  V30 35 1 7 32
M  V30 36 1 7 33
M  V30 37 1 9 34
M  V30 38 1 9 35
M  V30 39 1 9 36
M  V30 40 1 10 37
M  V30 41 1 10 38
M  V30 42 1 11 39
M  V30 43 1 11 40
M  V30 44 1 14 41
M  V30 45 1 16 42
M  V30 46 1 16 43
M  V30 47 1 18 44
M  V30 48 1 19 45
M  V30 49 1 20 46
M  V30 50 1 22 47
M  V30 51 1 23 48
M  V30 52 1 24 49
M  V30 53 1 25 50
M  V30 END BOND
M  V30 END CTAB
M  END
>  <Dataset>  (34) 
ChEMBL_Kinases

>  <Ligand_Instance>  (34) 
nan

>  <PDB_ID>  (34) 
nan

>  <Standardized_SMILES>  (34) 
Cc1nc(N2CCN(C)CC2)nc(O)c1Cc1cccc2ccccc12

>  <Name>  (34) 
nan

>  <Pocket>  (34) 
nan

>  <ATP_Site>  (34) 
nan

>  <Peripheral>  (34) 
nan

>  <Num_H_Atoms_ProtBoundConf>  (34) 
nan

>  <Num_Resolved_Atoms>  (34) 
nan

>  <Num_Not_Resolved_Atoms>  (34) 
nan

$$$$
CHEMBL1378991
     RDKit          3D

  0  0  0  0  0  0  0  0  0  0999 V3000
M  V30 BEGIN CTAB
M  V30 COUNTS 55 57 0 0 0
M  V30 BEGIN ATOM
M  V30 1 C 1.784197 -5.751621 2.178723 0
M  V30 2 O 0.607830 -6.267575 1.568096 0
M  V30 3 C -0.042768 -5.555814 0.585311 0
M  V30 4 C 0.415151 -4.328998 0.159316 0
M  V30 5 C -0.163597 -3.548987 -0.809936 0
M  V30 6 N 0.266067 -2.290352 -1.279157 0
M  V30 7 C 1.386411 -1.527210 -0.874581 0
M  V30 8 O 2.145158 -1.971028 0.019952 0
M  V30 9 N 1.737033 -0.260912 -1.411661 0
M  V30 10 C 2.881104 0.482421 -0.972985 0
M  V30 11 C 2.831664 0.829113 0.491868 0
M  V30 12 N 1.667037 1.634493 0.807100 0
M  V30 13 C 1.598579 1.980659 2.214360 0
M  V30 14 C 0.132928 2.284121 2.526700 0
M  V30 15 N -0.404377 3.025241 1.401964 0
M  V30 16 C -1.779623 2.977236 1.050313 0
M  V30 17 C -2.365113 3.598251 -0.031291 0
M  V30 18 C -3.707161 3.527998 -0.334888 0
M  V30 19 C -4.548590 2.794108 0.479499 0
M  V30 20 Cl -6.244585 2.709486 0.089756 0
M  V30 21 C -3.975725 2.161053 1.574820 0
M  V30 22 C -2.624553 2.253501 1.848918 0
M  V30 23 C 0.618918 3.791189 0.721679 0
M  V30 24 C 1.655492 2.882962 0.070824 0
M  V30 25 C -1.296889 -4.092379 -1.368304 0
M  V30 26 C -1.798314 -5.314532 -0.980265 0
M  V30 27 C -1.182386 -6.063830 -0.001016 0
M  V30 28 C -1.714237 -7.383879 0.426180 0
M  V30 29 H 2.156900 -6.547047 2.885571 0
M  V30 30 H 2.545100 -5.463178 1.422171 0
M  V30 31 H 1.539533 -4.879519 2.828556 0
M  V30 32 H 1.305847 -3.975932 0.645947 0
M  V30 33 H -0.270017 -1.802645 -2.023969 0
M  V30 34 H 1.105852 0.131668 -2.172692 0
M  V30 35 H 2.951183 1.425434 -1.539705 0
M  V30 36 H 3.826167 -0.065316 -1.177232 0
M  V30 37 H 2.816197 -0.055000 1.153232 0
M  V30 38 H 3.729210 1.409873 0.796699 0
M  V30 39 H 1.950035 1.124569 2.839290 0
M  V30 40 H 2.165672 2.902707 2.420241 0
M  V30 41 H -0.393587 1.319213 2.687032 0
M  V30 42 H 0.064082 2.850461 3.469067 0
M  V30 43 H -1.730263 4.178270 -0.685059 0
M  V30 44 H -4.094175 4.043258 -1.202385 0
M  V30 45 H -4.704470 1.606311 2.162320 0
M  V30 46 H -2.378394 1.704272 2.725358 0
M  V30 47 H 1.134931 4.402401 1.518644 0
M  V30 48 H 0.159588 4.463792 -0.032610 0
M  V30 49 H 2.669363 3.344997 0.241809 0
M  V30 50 H 1.480273 2.744902 -1.004283 0
M  V30 51 H -1.829083 -3.546860 -2.148450 0
M  V30 52 H -2.687879 -5.675962 -1.460638 0
M  V30 53 H -1.301198 -8.178010 -0.228906 0
M  V30 54 H -1.322926 -7.588130 1.444711 0
M  V30 55 H -2.822509 -7.390180 0.391229 0
M  V30 END ATOM
M  V30 BEGIN BOND
M  V30 1 1 1 2
M  V30 2 1 2 3
M  V30 3 2 3 4
M  V30 4 1 4 5
M  V30 5 1 5 6
M  V30 6 1 6 7
M  V30 7 2 7 8
M  V30 8 1 7 9
M  V30 9 1 9 10
M  V30 10 1 10 11
M  V30 11 1 11 12
M  V30 12 1 12 13
M  V30 13 1 13 14
M  V30 14 1 14 15
M  V30 15 1 15 16
M  V30 16 2 16 17
M  V30 17 1 17 18
M  V30 18 2 18 19
M  V30 19 1 19 20
M  V30 20 1 19 21
M  V30 21 2 21 22
M  V30 22 1 15 23
M  V30 23 1 23 24
M  V30 24 2 5 25
M  V30 25 1 25 26
M  V30 26 2 26 27
M  V30 27 1 27 28
M  V30 28 1 27 3
M  V30 29 1 24 12
M  V30 30 1 22 16
M  V30 31 1 1 29
M  V30 32 1 1 30
M  V30 33 1 1 31
M  V30 34 1 4 32
M  V30 35 1 6 33
M  V30 36 1 9 34
M  V30 37 1 10 35
M  V30 38 1 10 36
M  V30 39 1 11 37
M  V30 40 1 11 38
M  V30 41 1 13 39
M  V30 42 1 13 40
M  V30 43 1 14 41
M  V30 44 1 14 42
M  V30 45 1 17 43
M  V30 46 1 18 44
M  V30 47 1 21 45
M  V30 48 1 22 46
M  V30 49 1 23 47
M  V30 50 1 23 48
M  V30 51 1 24 49
M  V30 52 1 24 50
M  V30 53 1 25 51
M  V30 54 1 26 52
M  V30 55 1 28 53
M  V30 56 1 28 54
M  V30 57 1 28 55
M  V30 END BOND
M  V30 END CTAB
M  END
>  <Dataset>  (35) 
ChEMBL_Kinases

>  <Ligand_Instance>  (35) 
nan

>  <PDB_ID>  (35) 
nan

>  <Standardized_SMILES>  (35) 
COc1cc(NC(=O)NCCN2CCN(c3ccc(Cl)cc3)CC2)ccc1C

>  <Name>  (35) 
nan

>  <Pocket>  (35) 
nan

>  <ATP_Site>  (35) 
nan

>  <Peripheral>  (35) 
nan

>  <Num_H_Atoms_ProtBoundConf>  (35) 
nan

>  <Num_Resolved_Atoms>  (35) 
nan

>  <Num_Not_Resolved_Atoms>  (35) 
nan

$$$$
CHEMBL1378294
     RDKit          3D

  0  0  0  0  0  0  0  0  0  0999 V3000
M  V30 BEGIN CTAB
M  V30 COUNTS 38 42 0 0 0
M  V30 BEGIN ATOM
M  V30 1 O 1.085864 -2.195723 2.162139 0
M  V30 2 C 2.083798 -1.690459 1.590121 0
M  V30 3 O 3.351518 -2.000657 1.730810 0
M  V30 4 C 4.305822 -1.392258 1.069718 0
M  V30 5 C 5.599748 -1.816143 1.311040 0
M  V30 6 C 6.671288 -1.229892 0.656996 0
M  V30 7 O 8.010612 -1.608350 0.851856 0
M  V30 8 C 6.469794 -0.201545 -0.257298 0
M  V30 9 C 5.173317 0.229903 -0.505220 0
M  V30 10 C 4.125793 -0.371548 0.159981 0
M  V30 11 C 2.812062 0.002745 -0.033950 0
M  V30 12 C 1.863549 -0.683617 0.697519 0
M  V30 13 C 0.428786 -0.211348 0.427847 0
M  V30 14 N -0.577639 -0.640375 0.931287 0
M  V30 15 C -1.796809 -0.214414 0.679659 0
M  V30 16 C -1.915820 0.831856 -0.260147 0
M  V30 17 S -0.104077 1.098545 -0.705790 0
M  V30 18 C -3.049409 1.588410 -0.822916 0
M  V30 19 C -4.362567 1.149153 -0.276121 0
M  V30 20 C -4.237311 0.047405 0.713770 0
M  V30 21 C -5.440970 -0.373042 1.231362 0
M  V30 22 C -5.567174 -1.381164 2.163948 0
M  V30 23 C -4.431738 -2.033200 2.631101 0
M  V30 24 C -3.226148 -1.610428 2.111179 0
M  V30 25 C -3.113794 -0.601787 1.179670 0
M  V30 26 H 5.901485 -2.595947 1.987690 0
M  V30 27 H 8.159250 -2.456917 1.403433 0
M  V30 28 H 7.246810 0.307376 -0.807927 0
M  V30 29 H 4.864483 1.018319 -1.188916 0
M  V30 30 H 2.560124 0.793371 -0.726031 0
M  V30 31 H -3.079806 1.505464 -1.931384 0
M  V30 32 H -2.858841 2.660003 -0.620174 0
M  V30 33 H -5.060017 0.848355 -1.086914 0
M  V30 34 H -4.811176 1.998332 0.283624 0
M  V30 35 H -6.393261 0.043659 0.958155 0
M  V30 36 H -6.504628 -1.723186 2.580325 0
M  V30 37 H -4.409028 -2.830349 3.354823 0
M  V30 38 H -2.299171 -2.081679 2.436918 0
M  V30 END ATOM
M  V30 BEGIN BOND
M  V30 1 2 1 2
M  V30 2 1 2 3
M  V30 3 1 3 4
M  V30 4 2 4 5
M  V30 5 1 5 6
M  V30 6 1 6 7
M  V30 7 2 6 8
M  V30 8 1 8 9
M  V30 9 2 9 10
M  V30 10 1 10 11
M  V30 11 2 11 12
M  V30 12 1 12 13
M  V30 13 2 13 14
M  V30 14 1 14 15
M  V30 15 2 15 16
M  V30 16 1 16 17
M  V30 17 1 16 18
M  V30 18 1 18 19
M  V30 19 1 19 20
M  V30 20 2 20 21
M  V30 21 1 21 22
M  V30 22 2 22 23
M  V30 23 1 23 24
M  V30 24 2 24 25
M  V30 25 1 12 2
M  V30 26 1 17 13
M  V30 27 1 25 20
M  V30 28 1 10 4
M  V30 29 1 25 15
M  V30 30 1 5 26
M  V30 31 1 7 27
M  V30 32 1 8 28
M  V30 33 1 9 29
M  V30 34 1 11 30
M  V30 35 1 18 31
M  V30 36 1 18 32
M  V30 37 1 19 33
M  V30 38 1 19 34
M  V30 39 1 21 35
M  V30 40 1 22 36
M  V30 41 1 23 37
M  V30 42 1 24 38
M  V30 END BOND
M  V30 END CTAB
M  END
>  <Dataset>  (36) 
ChEMBL_Kinases

>  <Ligand_Instance>  (36) 
nan

>  <PDB_ID>  (36) 
nan

>  <Standardized_SMILES>  (36) 
O=c1oc2cc(O)ccc2cc1-c1nc2c(s1)CCc1ccccc1-2

>  <Name>  (36) 
nan

>  <Pocket>  (36) 
nan

>  <ATP_Site>  (36) 
nan

>  <Peripheral>  (36) 
nan

>  <Num_H_Atoms_ProtBoundConf>  (36) 
nan

>  <Num_Resolved_Atoms>  (36) 
nan

>  <Num_Not_Resolved_Atoms>  (36) 
nan

$$$$
CHEMBL1378383
     RDKit          3D

  0  0  0  0  0  0  0  0  0  0999 V3000
M  V30 BEGIN CTAB
M  V30 COUNTS 42 45 0 0 0
M  V30 BEGIN ATOM
M  V30 1 C 0.988664 -4.128251 4.522008 0
M  V30 2 O 0.777414 -2.832590 4.031057 0
M  V30 3 C 0.728362 -2.599622 2.667014 0
M  V30 4 N 0.519523 -1.308093 2.376621 0
M  V30 5 C 0.431664 -0.826549 1.130302 0
M  V30 6 N 0.212043 0.564637 0.813671 0
M  V30 7 C 0.069659 1.052602 -0.512158 0
M  V30 8 C -0.414521 0.334202 -1.581898 0
M  V30 9 C -0.524655 0.817432 -2.868148 0
M  V30 10 C -0.128779 2.111183 -3.131995 0
M  V30 11 C 0.366273 2.879306 -2.092535 0
M  V30 12 C 0.453806 2.342633 -0.825391 0
M  V30 13 C 0.134376 1.521153 1.858552 0
M  V30 14 C 0.788300 1.463849 3.066884 0
M  V30 15 C 0.654418 2.410912 4.059115 0
M  V30 16 C -0.162064 3.489063 3.883963 0
M  V30 17 C -0.845952 3.604317 2.693342 0
M  V30 18 C -0.693665 2.641163 1.716572 0
M  V30 19 N 0.573687 -1.766716 0.186547 0
M  V30 20 C 0.781899 -3.059375 0.373756 0
M  V30 21 N 0.924630 -4.011693 -0.671959 0
M  V30 22 C 2.060925 -4.643531 -1.042016 0
M  V30 23 C 1.856461 -5.513594 -2.101790 0
M  V30 24 N 0.547341 -5.395649 -2.373781 0
M  V30 25 C -0.003963 -4.511784 -1.533148 0
M  V30 26 N 0.860629 -3.482824 1.648337 0
M  V30 27 H 1.949265 -4.548725 4.148658 0
M  V30 28 H 0.971734 -4.182955 5.620795 0
M  V30 29 H 0.177131 -4.765833 4.069325 0
M  V30 30 H -0.738454 -0.680133 -1.413446 0
M  V30 31 H -0.913457 0.206562 -3.672500 0
M  V30 32 H -0.227669 2.460488 -4.148514 0
M  V30 33 H 0.653448 3.872275 -2.371547 0
M  V30 34 H 0.862033 3.046282 -0.128179 0
M  V30 35 H 1.444747 0.643385 3.252000 0
M  V30 36 H 1.199273 2.305548 4.991007 0
M  V30 37 H -0.275869 4.230255 4.642889 0
M  V30 38 H -1.485013 4.467385 2.580675 0
M  V30 39 H -1.289331 2.839899 0.831455 0
M  V30 40 H 3.038098 -4.500753 -0.574211 0
M  V30 41 H 2.581975 -6.137968 -2.590679 0
M  V30 42 H -1.039496 -4.200439 -1.498938 0
M  V30 END ATOM
M  V30 BEGIN BOND
M  V30 1 1 1 2
M  V30 2 1 2 3
M  V30 3 2 3 4
M  V30 4 1 4 5
M  V30 5 1 5 6
M  V30 6 1 6 7
M  V30 7 2 7 8
M  V30 8 1 8 9
M  V30 9 2 9 10
M  V30 10 1 10 11
M  V30 11 2 11 12
M  V30 12 1 6 13
M  V30 13 2 13 14
M  V30 14 1 14 15
M  V30 15 2 15 16
M  V30 16 1 16 17
M  V30 17 2 17 18
M  V30 18 2 5 19
M  V30 19 1 19 20
M  V30 20 1 20 21
M  V30 21 1 21 22
M  V30 22 2 22 23
M  V30 23 1 23 24
M  V30 24 2 24 25
M  V30 25 2 20 26
M  V30 26 1 26 3
M  V30 27 1 12 7
M  V30 28 1 18 13
M  V30 29 1 25 21
M  V30 30 1 1 27
M  V30 31 1 1 28
M  V30 32 1 1 29
M  V30 33 1 8 30
M  V30 34 1 9 31
M  V30 35 1 10 32
M  V30 36 1 11 33
M  V30 37 1 12 34
M  V30 38 1 14 35
M  V30 39 1 15 36
M  V30 40 1 16 37
M  V30 41 1 17 38
M  V30 42 1 18 39
M  V30 43 1 22 40
M  V30 44 1 23 41
M  V30 45 1 25 42
M  V30 END BOND
M  V30 END CTAB
M  END
>  <Dataset>  (37) 
ChEMBL_Kinases

>  <Ligand_Instance>  (37) 
nan

>  <PDB_ID>  (37) 
nan

>  <Standardized_SMILES>  (37) 
COc1nc(N(c2ccccc2)c2ccccc2)nc(-n2ccnc2)n1

>  <Name>  (37) 
nan

>  <Pocket>  (37) 
nan

>  <ATP_Site>  (37) 
nan

>  <Peripheral>  (37) 
nan

>  <Num_H_Atoms_ProtBoundConf>  (37) 
nan

>  <Num_Resolved_Atoms>  (37) 
nan

>  <Num_Not_Resolved_Atoms>  (37) 
nan

$$$$
CHEMBL1378391
     RDKit          3D

  0  0  0  0  0  0  0  0  0  0999 V3000
M  V30 BEGIN CTAB
M  V30 COUNTS 34 36 0 0 0
M  V30 BEGIN ATOM
M  V30 1 C 0.028329 0.064570 4.413434 0
M  V30 2 C 0.920506 -0.576609 3.440883 0
M  V30 3 O 2.094201 -1.153989 3.635716 0
M  V30 4 N 2.552951 -1.594189 2.524370 0
M  V30 5 C 1.672102 -1.316167 1.520947 0
M  V30 6 C 2.110913 -1.775869 0.211223 0
M  V30 7 C 1.368748 -2.505485 -0.692210 0
M  V30 8 C 1.806024 -2.905769 -1.921985 0
M  V30 9 C 3.075246 -2.564216 -2.299108 0
M  V30 10 C 3.900985 -1.844112 -1.487118 0
M  V30 11 C 3.390211 -1.476814 -0.264122 0
M  V30 12 C 0.612538 -0.656511 2.106773 0
M  V30 13 C -0.472427 -0.234952 1.263144 0
M  V30 14 O -0.615555 -0.332268 0.005169 0
M  V30 15 N -1.660445 0.408272 1.703424 0
M  V30 16 C -2.523968 0.683539 0.577540 0
M  V30 17 C -3.506432 -0.127847 0.049815 0
M  V30 18 C -4.220221 0.330978 -1.035807 0
M  V30 19 N -3.983849 1.534186 -1.584043 0
M  V30 20 C -3.027956 2.344983 -1.084893 0
M  V30 21 C -2.272382 1.933254 0.014743 0
M  V30 22 H 0.565322 0.014123 5.412548 0
M  V30 23 H -0.917596 -0.480297 4.614767 0
M  V30 24 H -0.101653 1.159462 4.259843 0
M  V30 25 H 0.370190 -2.797728 -0.416831 0
M  V30 26 H 1.169572 -3.478822 -2.586035 0
M  V30 27 H 3.466417 -2.862935 -3.273249 0
M  V30 28 H 4.906238 -1.563419 -1.763704 0
M  V30 29 H 4.059339 -0.897285 0.385470 0
M  V30 30 H -1.816480 0.619676 2.720792 0
M  V30 31 H -3.617377 -1.073353 0.562186 0
M  V30 32 H -4.987740 -0.356012 -1.412497 0
M  V30 33 H -2.841117 3.309088 -1.526980 0
M  V30 34 H -1.506241 2.629035 0.384037 0
M  V30 END ATOM
M  V30 BEGIN BOND
M  V30 1 1 1 2
M  V30 2 1 2 3
M  V30 3 1 3 4
M  V30 4 2 4 5
M  V30 5 1 5 6
M  V30 6 2 6 7
M  V30 7 1 7 8
M  V30 8 2 8 9
M  V30 9 1 9 10
M  V30 10 2 10 11
M  V30 11 1 5 12
M  V30 12 1 12 13
M  V30 13 2 13 14
M  V30 14 1 13 15
M  V30 15 1 15 16
M  V30 16 2 16 17
M  V30 17 1 17 18
M  V30 18 2 18 19
M  V30 19 1 19 20
M  V30 20 2 20 21
M  V30 21 2 12 2
M  V30 22 1 21 16
M  V30 23 1 11 6
M  V30 24 1 1 22
M  V30 25 1 1 23
M  V30 26 1 1 24
M  V30 27 1 7 25
M  V30 28 1 8 26
M  V30 29 1 9 27
M  V30 30 1 10 28
M  V30 31 1 11 29
M  V30 32 1 15 30
M  V30 33 1 17 31
M  V30 34 1 18 32
M  V30 35 1 20 33
M  V30 36 1 21 34
M  V30 END BOND
M  V30 END CTAB
M  END
>  <Dataset>  (38) 
ChEMBL_Kinases

>  <Ligand_Instance>  (38) 
nan

>  <PDB_ID>  (38) 
nan

>  <Standardized_SMILES>  (38) 
Cc1onc(-c2ccccc2)c1C(=O)Nc1ccncc1

>  <Name>  (38) 
nan

>  <Pocket>  (38) 
nan

>  <ATP_Site>  (38) 
nan

>  <Peripheral>  (38) 
nan

>  <Num_H_Atoms_ProtBoundConf>  (38) 
nan

>  <Num_Resolved_Atoms>  (38) 
nan

>  <Num_Not_Resolved_Atoms>  (38) 
nan

$$$$
CHEMBL1378480
     RDKit          3D

  0  0  0  0  0  0  0  0  0  0999 V3000
M  V30 BEGIN CTAB
M  V30 COUNTS 41 42 0 0 0
M  V30 BEGIN ATOM
M  V30 1 C 0.214009 -4.186283 2.665145 0
M  V30 2 C -0.599264 -3.325687 1.702483 0
M  V30 3 O 0.210659 -2.451138 0.945698 0
M  V30 4 C 1.210075 -2.860756 0.089450 0
M  V30 5 C 1.576062 -4.169913 -0.166347 0
M  V30 6 C 2.575588 -4.569123 -1.023044 0
M  V30 7 C 3.279775 -3.590258 -1.689719 0
M  V30 8 C 2.971696 -2.259700 -1.486207 0
M  V30 9 C 1.959808 -1.916298 -0.615384 0
M  V30 10 N 1.738182 -0.528979 -0.487898 0
M  V30 11 C 0.813085 0.145155 -1.062504 0
M  V30 12 S -0.481297 -0.396686 -2.187852 0
M  V30 13 N 0.828190 1.536069 -0.748932 0
M  V30 14 C 1.511646 2.058387 0.379523 0
M  V30 15 C 0.966626 1.708178 1.720523 0
M  V30 16 C -0.402216 2.138489 1.973508 0
M  V30 17 C -0.605069 3.400380 2.539924 0
M  V30 18 C -1.857502 3.908705 2.821514 0
M  V30 19 C -3.006092 3.157294 2.542109 0
M  V30 20 C -2.800772 1.913504 1.983633 0
M  V30 21 C -1.527886 1.426187 1.710308 0
M  V30 22 H 0.070056 -5.267461 2.502770 0
M  V30 23 H 1.280684 -3.872314 2.662032 0
M  V30 24 H -0.171257 -4.011017 3.713492 0
M  V30 25 H -1.362434 -2.713195 2.220318 0
M  V30 26 H -1.082399 -4.010935 0.970456 0
M  V30 27 H 1.039721 -4.942242 0.342103 0
M  V30 28 H 2.785922 -5.632088 -1.154379 0
M  V30 29 H 4.072869 -3.859555 -2.372868 0
M  V30 30 H 3.552991 -1.530593 -2.033074 0
M  V30 31 H -1.676085 -0.499136 -1.464295 0
M  V30 32 H 0.313190 2.227687 -1.371673 0
M  V30 33 H 2.549525 1.614779 0.352159 0
M  V30 34 H 1.676619 3.142305 0.311861 0
M  V30 35 H 1.636672 2.174358 2.471950 0
M  V30 36 H 1.014273 0.608245 1.923841 0
M  V30 37 H 0.269036 4.018176 2.773249 0
M  V30 38 H -1.926758 4.892164 3.259022 0
M  V30 39 H -3.922891 3.633506 2.793824 0
M  V30 40 H -3.705028 1.339121 1.771367 0
M  V30 41 H -1.437176 0.454617 1.276997 0
M  V30 END ATOM
M  V30 BEGIN BOND
M  V30 1 1 1 2
M  V30 2 1 2 3
M  V30 3 1 3 4
M  V30 4 2 4 5
M  V30 5 1 5 6
M  V30 6 2 6 7
M  V30 7 1 7 8
M  V30 8 2 8 9
M  V30 9 1 9 10
M  V30 10 2 10 11 CFG=2
M  V30 11 1 11 12
M  V30 12 1 11 13
M  V30 13 1 13 14
M  V30 14 1 14 15
M  V30 15 1 15 16
M  V30 16 2 16 17
M  V30 17 1 17 18
M  V30 18 2 18 19
M  V30 19 1 19 20
M  V30 20 2 20 21
M  V30 21 1 9 4
M  V30 22 1 21 16
M  V30 23 1 1 22
M  V30 24 1 1 23
M  V30 25 1 1 24
M  V30 26 1 2 25
M  V30 27 1 2 26
M  V30 28 1 5 27
M  V30 29 1 6 28
M  V30 30 1 7 29
M  V30 31 1 8 30
M  V30 32 1 12 31
M  V30 33 1 13 32
M  V30 34 1 14 33
M  V30 35 1 14 34
M  V30 36 1 15 35
M  V30 37 1 15 36
M  V30 38 1 17 37
M  V30 39 1 18 38
M  V30 40 1 19 39
M  V30 41 1 20 40
M  V30 42 1 21 41
M  V30 END BOND
M  V30 END CTAB
M  END
>  <Dataset>  (39) 
ChEMBL_Kinases

>  <Ligand_Instance>  (39) 
nan

>  <PDB_ID>  (39) 
nan

>  <Standardized_SMILES>  (39) 
CCOc1ccccc1N=C(S)NCCc1ccccc1

>  <Name>  (39) 
nan

>  <Pocket>  (39) 
nan

>  <ATP_Site>  (39) 
nan

>  <Peripheral>  (39) 
nan

>  <Num_H_Atoms_ProtBoundConf>  (39) 
nan

>  <Num_Resolved_Atoms>  (39) 
nan

>  <Num_Not_Resolved_Atoms>  (39) 
nan

$$$$
CHEMBL1378544
     RDKit          3D

  0  0  0  0  0  0  0  0  0  0999 V3000
M  V30 BEGIN CTAB
M  V30 COUNTS 53 55 0 0 0
M  V30 BEGIN ATOM
M  V30 1 C -0.583939 -1.739192 4.740521 0
M  V30 2 C 0.905196 -2.004486 4.684711 0
M  V30 3 O 1.409168 -1.675064 3.403716 0
M  V30 4 C 2.750098 -1.850079 3.161059 0
M  V30 5 O 3.199818 -2.302768 4.265835 0
M  V30 6 C 3.455911 -1.560280 1.883493 0
M  V30 7 C 3.363150 -0.131216 1.454061 0
M  V30 8 C 2.141192 0.228490 0.677247 0
M  V30 9 N 1.643957 -0.798295 -0.175359 0
M  V30 10 S 1.089991 -0.251086 -1.691035 0
M  V30 11 O 0.981835 -1.369717 -2.677294 0
M  V30 12 O 2.285909 0.567642 -2.236537 0
M  V30 13 C -0.225134 0.855602 -1.679757 0
M  V30 14 C -0.123264 2.150299 -2.219078 0
M  V30 15 C -1.096171 3.122228 -2.246978 0
M  V30 16 Br -0.768743 4.825798 -3.026786 0
M  V30 17 C -2.316985 2.763441 -1.668546 0
M  V30 18 C -2.433987 1.486350 -1.130736 0
M  V30 19 C -1.439306 0.547616 -1.125128 0
M  V30 20 N -2.011768 -0.578224 -0.492577 0
M  V30 21 C -1.411269 -1.890456 -0.361611 0
M  V30 22 C -2.081451 -2.852136 0.556029 0
M  V30 23 O -0.535912 -2.702195 -0.646872 0
M  V30 24 C -3.351138 -0.347285 0.004452 0
M  V30 25 C -4.315519 -1.364701 -0.595783 0
M  V30 26 C -3.674190 1.036388 -0.477368 0
M  V30 27 C 2.698872 -1.762672 -0.424260 0
M  V30 28 C 3.054203 -2.538900 0.815834 0
M  V30 29 H -0.898418 -1.629673 5.808905 0
M  V30 30 H -1.159419 -2.584091 4.320240 0
M  V30 31 H -0.787166 -0.794864 4.186819 0
M  V30 32 H 1.453397 -1.414697 5.440473 0
M  V30 33 H 1.089501 -3.108554 4.812894 0
M  V30 34 H 4.547689 -1.748091 2.102962 0
M  V30 35 H 3.373523 0.478179 2.394097 0
M  V30 36 H 4.298232 0.167164 0.918048 0
M  V30 37 H 1.333916 0.466130 1.410145 0
M  V30 38 H 2.355244 1.136200 0.086121 0
M  V30 39 H 0.835568 2.443981 -2.677824 0
M  V30 40 H -3.073527 3.534214 -1.695615 0
M  V30 41 H -1.379789 -3.151375 1.390008 0
M  V30 42 H -2.911006 -2.338760 1.119515 0
M  V30 43 H -2.469227 -3.756597 0.085900 0
M  V30 44 H -3.408961 -0.369479 1.127014 0
M  V30 45 H -4.966406 -0.815549 -1.327103 0
M  V30 46 H -3.774660 -2.176471 -1.112150 0
M  V30 47 H -5.001720 -1.803571 0.132273 0
M  V30 48 H -3.993770 1.711946 0.345419 0
M  V30 49 H -4.509602 0.953614 -1.236103 0
M  V30 50 H 2.387442 -2.439365 -1.256726 0
M  V30 51 H 3.604606 -1.242581 -0.771561 0
M  V30 52 H 3.849593 -3.248938 0.545987 0
M  V30 53 H 2.180500 -3.147855 1.146611 0
M  V30 END ATOM
M  V30 BEGIN BOND
M  V30 1 1 1 2
M  V30 2 1 2 3
M  V30 3 1 3 4
M  V30 4 2 4 5
M  V30 5 1 4 6
M  V30 6 1 6 7
M  V30 7 1 7 8
M  V30 8 1 8 9
M  V30 9 1 9 10
M  V30 10 2 10 11
M  V30 11 2 10 12
M  V30 12 1 10 13
M  V30 13 2 13 14
M  V30 14 1 14 15
M  V30 15 1 15 16
M  V30 16 2 15 17
M  V30 17 1 17 18
M  V30 18 2 18 19
M  V30 19 1 19 20
M  V30 20 1 20 21
M  V30 21 1 21 22
M  V30 22 2 21 23
M  V30 23 1 20 24
M  V30 24 1 24 25
M  V30 25 1 24 26
M  V30 26 1 9 27
M  V30 27 1 27 28
M  V30 28 1 28 6
M  V30 29 1 19 13
M  V30 30 1 26 18
M  V30 31 1 1 29
M  V30 32 1 1 30
M  V30 33 1 1 31
M  V30 34 1 2 32
M  V30 35 1 2 33
M  V30 36 1 6 34
M  V30 37 1 7 35
M  V30 38 1 7 36
M  V30 39 1 8 37
M  V30 40 1 8 38
M  V30 41 1 14 39
M  V30 42 1 17 40
M  V30 43 1 22 41
M  V30 44 1 22 42
M  V30 45 1 22 43
M  V30 46 1 24 44
M  V30 47 1 25 45
M  V30 48 1 25 46
M  V30 49 1 25 47
M  V30 50 1 26 48
M  V30 51 1 26 49
M  V30 52 1 27 50
M  V30 53 1 27 51
M  V30 54 1 28 52
M  V30 55 1 28 53
M  V30 END BOND
M  V30 END CTAB
M  END
>  <Dataset>  (40) 
ChEMBL_Kinases

>  <Ligand_Instance>  (40) 
nan

>  <PDB_ID>  (40) 
nan

>  <Standardized_SMILES>  (40) 
CCOC(=O)C1CCN(S(=O)(=O)c2cc(Br)cc3c2N(C(C)=O)C(C)C3)CC1

>  <Name>  (40) 
nan

>  <Pocket>  (40) 
nan

>  <ATP_Site>  (40) 
nan

>  <Peripheral>  (40) 
nan

>  <Num_H_Atoms_ProtBoundConf>  (40) 
nan

>  <Num_Resolved_Atoms>  (40) 
nan

>  <Num_Not_Resolved_Atoms>  (40) 
nan

$$$$
CHEMBL1378573
     RDKit          3D

  0  0  0  0  0  0  0  0  0  0999 V3000
M  V30 BEGIN CTAB
M  V30 COUNTS 38 40 0 0 0
M  V30 BEGIN ATOM
M  V30 1 C -0.356778 -6.649697 0.706694 0
M  V30 2 C 0.670946 -5.510044 0.701736 0
M  V30 3 N 1.057922 -5.328780 2.079059 0
M  V30 4 S 2.215477 -4.085322 2.291650 0
M  V30 5 O 2.505264 -3.988311 3.766202 0
M  V30 6 O 3.435757 -4.380775 1.493486 0
M  V30 7 C 1.595155 -2.515247 1.775961 0
M  V30 8 C 1.759668 -2.074758 0.464765 0
M  V30 9 C 1.276130 -0.839953 0.047616 0
M  V30 10 C 0.611924 -0.037091 0.982625 0
M  V30 11 C 0.120761 1.253553 0.497030 0
M  V30 12 C -1.030749 1.846023 1.024829 0
M  V30 13 C -1.487542 3.068261 0.559093 0
M  V30 14 C -0.787039 3.706290 -0.444882 0
M  V30 15 N -1.306478 4.957419 -0.879196 0
M  V30 16 C -1.440768 5.937263 0.036115 0
M  V30 17 N -1.945601 7.055954 -0.537825 0
M  V30 18 N -2.115963 6.742449 -1.813299 0
M  V30 19 N -1.736490 5.492245 -2.022110 0
M  V30 20 C 0.356179 3.165601 -1.001366 0
M  V30 21 C 0.794659 1.941800 -0.519683 0
M  V30 22 C 0.433031 -0.445705 2.289311 0
M  V30 23 C 0.931198 -1.681021 2.657043 0
M  V30 24 H -1.245481 -6.363717 1.317831 0
M  V30 25 H 0.052580 -7.553854 1.162065 0
M  V30 26 H -0.713025 -6.744505 -0.323878 0
M  V30 27 H 0.235482 -4.585754 0.304030 0
M  V30 28 H 1.522289 -5.830362 0.073549 0
M  V30 29 H 0.256244 -5.285317 2.710877 0
M  V30 30 H 2.281085 -2.758794 -0.178614 0
M  V30 31 H 1.429686 -0.539609 -0.989574 0
M  V30 32 H -1.578996 1.335082 1.818163 0
M  V30 33 H -2.379275 3.481751 0.998790 0
M  V30 34 H -1.228701 5.993935 1.102153 0
M  V30 35 H 0.897017 3.678042 -1.789999 0
M  V30 36 H 1.687673 1.520293 -0.955016 0
M  V30 37 H -0.091243 0.214592 2.982420 0
M  V30 38 H 0.792720 -2.013068 3.694528 0
M  V30 END ATOM
M  V30 BEGIN BOND
M  V30 1 1 1 2
M  V30 2 1 2 3
M  V30 3 1 3 4
M  V30 4 2 4 5
M  V30 5 2 4 6
M  V30 6 1 4 7
M  V30 7 2 7 8
M  V30 8 1 8 9
M  V30 9 2 9 10
M  V30 10 1 10 11
M  V30 11 2 11 12
M  V30 12 1 12 13
M  V30 13 2 13 14
M  V30 14 1 14 15
M  V30 15 1 15 16
M  V30 16 2 16 17
M  V30 17 1 17 18
M  V30 18 2 18 19
M  V30 19 1 14 20
M  V30 20 2 20 21
M  V30 21 1 10 22
M  V30 22 2 22 23
M  V30 23 1 23 7
M  V30 24 1 21 11
M  V30 25 1 19 15
M  V30 26 1 1 24
M  V30 27 1 1 25
M  V30 28 1 1 26
M  V30 29 1 2 27
M  V30 30 1 2 28
M  V30 31 1 3 29
M  V30 32 1 8 30
M  V30 33 1 9 31
M  V30 34 1 12 32
M  V30 35 1 13 33
M  V30 36 1 16 34
M  V30 37 1 20 35
M  V30 38 1 21 36
M  V30 39 1 22 37
M  V30 40 1 23 38
M  V30 END BOND
M  V30 END CTAB
M  END
>  <Dataset>  (41) 
ChEMBL_Kinases

>  <Ligand_Instance>  (41) 
nan

>  <PDB_ID>  (41) 
nan

>  <Standardized_SMILES>  (41) 
CCNS(=O)(=O)c1ccc(-c2ccc(-n3cnnn3)cc2)cc1

>  <Name>  (41) 
nan

>  <Pocket>  (41) 
nan

>  <ATP_Site>  (41) 
nan

>  <Peripheral>  (41) 
nan

>  <Num_H_Atoms_ProtBoundConf>  (41) 
nan

>  <Num_Resolved_Atoms>  (41) 
nan

>  <Num_Not_Resolved_Atoms>  (41) 
nan

$$$$
CHEMBL1378735
     RDKit          3D

  0  0  0  0  0  0  0  0  0  0999 V3000
M  V30 BEGIN CTAB
M  V30 COUNTS 55 59 0 0 0
M  V30 BEGIN ATOM
M  V30 1 C 4.755976 1.649054 6.580629 0
M  V30 2 C 4.222848 0.680050 5.596572 0
M  V30 3 C 3.633985 -0.501267 5.979215 0
M  V30 4 C 3.174231 -1.325948 4.983055 0
M  V30 5 C 3.246676 -1.080502 3.606195 0
M  V30 6 C 2.687477 -2.112047 2.702086 0
M  V30 7 S 0.949231 -1.906266 2.330995 0
M  V30 8 C 0.582847 -0.461634 1.381241 0
M  V30 9 N 1.422769 0.413017 0.943135 0
M  V30 10 C 1.083822 1.560376 0.182513 0
M  V30 11 C 2.142219 2.392624 -0.200710 0
M  V30 12 C 1.836158 3.526181 -0.948188 0
M  V30 13 C 0.511973 3.800850 -1.290615 0
M  V30 14 C -0.497203 2.953274 -0.891424 0
M  V30 15 C -0.227348 1.828564 -0.154174 0
M  V30 16 C -1.228651 0.873463 0.313458 0
M  V30 17 N -2.492086 0.906099 0.130858 0
M  V30 18 C -3.129825 -0.244565 0.767904 0
M  V30 19 C -3.808349 -1.144087 -0.242543 0
M  V30 20 C -2.849377 -1.675935 -1.236938 0
M  V30 21 O -1.599988 -1.534635 -1.408346 0
M  V30 22 N -3.442512 -2.533623 -2.221259 0
M  V30 23 C -2.621848 -3.132788 -3.266918 0
M  V30 24 C -3.459203 -3.982578 -4.169893 0
M  V30 25 C -4.154544 -3.706407 -5.328475 0
M  V30 26 C -4.774857 -4.857380 -5.780187 0
M  V30 27 C -4.407488 -5.806150 -4.833808 0
M  V30 28 O -3.644786 -5.250796 -3.920395 0
M  V30 29 C -1.999372 -0.993700 1.376555 0
M  V30 30 O -2.082748 -2.065287 2.028658 0
M  V30 31 N -0.794085 -0.258682 1.076660 0
M  V30 32 C 3.846451 0.118348 3.269896 0
M  V30 33 C 4.319304 0.970423 4.246407 0
M  V30 34 H 3.963982 2.419206 6.757564 0
M  V30 35 H 4.981307 1.153932 7.557789 0
M  V30 36 H 5.629339 2.155232 6.159337 0
M  V30 37 H 3.547625 -0.747804 7.007636 0
M  V30 38 H 2.713828 -2.252938 5.328049 0
M  V30 39 H 3.267873 -2.199854 1.759001 0
M  V30 40 H 2.794318 -3.105934 3.206504 0
M  V30 41 H 3.161538 2.160295 0.075836 0
M  V30 42 H 2.667790 4.164630 -1.239560 0
M  V30 43 H 0.322809 4.697819 -1.875285 0
M  V30 44 H -1.519930 3.155017 -1.149567 0
M  V30 45 H -3.833850 0.127098 1.529952 0
M  V30 46 H -4.207899 -2.002422 0.333126 0
M  V30 47 H -4.675519 -0.657921 -0.718660 0
M  V30 48 H -4.481543 -2.762118 -2.227962 0
M  V30 49 H -2.141274 -2.319917 -3.877596 0
M  V30 50 H -1.810416 -3.713337 -2.824985 0
M  V30 51 H -4.170813 -2.719422 -5.764237 0
M  V30 52 H -5.390341 -4.935610 -6.671368 0
M  V30 53 H -4.748987 -6.842874 -4.914696 0
M  V30 54 H 3.904706 0.307713 2.206806 0
M  V30 55 H 4.768841 1.880228 3.847402 0
M  V30 END ATOM
M  V30 BEGIN BOND
M  V30 1 1 1 2
M  V30 2 2 2 3
M  V30 3 1 3 4
M  V30 4 2 4 5
M  V30 5 1 5 6
M  V30 6 1 6 7
M  V30 7 1 7 8
M  V30 8 2 8 9
M  V30 9 1 9 10
M  V30 10 2 10 11
M  V30 11 1 11 12
M  V30 12 2 12 13
M  V30 13 1 13 14
M  V30 14 2 14 15
M  V30 15 1 15 16
M  V30 16 2 16 17
M  V30 17 1 17 18
M  V30 18 1 18 19
M  V30 19 1 19 20
M  V30 20 2 20 21
M  V30 21 1 20 22
M  V30 22 1 22 23
M  V30 23 1 23 24
M  V30 24 2 24 25
M  V30 25 1 25 26
M  V30 26 2 26 27
M  V30 27 1 27 28
M  V30 28 1 18 29
M  V30 29 2 29 30
M  V30 30 1 29 31
M  V30 31 1 5 32
M  V30 32 2 32 33
M  V30 33 1 33 2
M  V30 34 1 31 8
M  V30 35 1 15 10
M  V30 36 1 31 16
M  V30 37 1 28 24
M  V30 38 1 1 34
M  V30 39 1 1 35
M  V30 40 1 1 36
M  V30 41 1 3 37
M  V30 42 1 4 38
M  V30 43 1 6 39
M  V30 44 1 6 40
M  V30 45 1 11 41
M  V30 46 1 12 42
M  V30 47 1 13 43
M  V30 48 1 14 44
M  V30 49 1 18 45
M  V30 50 1 19 46
M  V30 51 1 19 47
M  V30 52 1 22 48
M  V30 53 1 23 49
M  V30 54 1 23 50
M  V30 55 1 25 51
M  V30 56 1 26 52
M  V30 57 1 27 53
M  V30 58 1 32 54
M  V30 59 1 33 55
M  V30 END BOND
M  V30 END CTAB
M  END
>  <Dataset>  (42) 
ChEMBL_Kinases

>  <Ligand_Instance>  (42) 
nan

>  <PDB_ID>  (42) 
nan

>  <Standardized_SMILES>  (42) 
Cc1ccc(CSC2=Nc3ccccc3C3=NC(CC(=O)NCc4ccco4)C(=O)N23)cc1

>  <Name>  (42) 
nan

>  <Pocket>  (42) 
nan

>  <ATP_Site>  (42) 
nan

>  <Peripheral>  (42) 
nan

>  <Num_H_Atoms_ProtBoundConf>  (42) 
nan

>  <Num_Resolved_Atoms>  (42) 
nan

>  <Num_Not_Resolved_Atoms>  (42) 
nan

$$$$
CHEMBL1378984
     RDKit          3D

  0  0  0  0  0  0  0  0  0  0999 V3000
M  V30 BEGIN CTAB
M  V30 COUNTS 44 47 0 0 0
M  V30 BEGIN ATOM
M  V30 1 C -0.761630 -5.700359 1.952996 0
M  V30 2 C -0.644162 -4.388967 1.284568 0
M  V30 3 C -1.060384 -3.271080 2.100394 0
M  V30 4 S -0.777009 -1.789879 0.951600 0
M  V30 5 C -0.140320 -2.830386 -0.473747 0
M  V30 6 C 0.294035 -2.445266 -1.736157 0
M  V30 7 N 0.236220 -1.041648 -1.953547 0
M  V30 8 C -0.994975 -0.294256 -1.877511 0
M  V30 9 C -0.862862 1.000606 -1.136447 0
M  V30 10 N 0.513763 1.350402 -0.847789 0
M  V30 11 C 1.108263 1.808626 0.365073 0
M  V30 12 O 2.338948 2.048296 0.366585 0
M  V30 13 N 0.394402 2.004633 1.550487 0
M  V30 14 C 0.829943 2.447982 2.820581 0
M  V30 15 C 2.111084 2.797838 3.173533 0
M  V30 16 C 2.504885 3.226471 4.421665 0
M  V30 17 C 1.556708 3.321858 5.417915 0
M  V30 18 C 0.260260 2.980556 5.106102 0
M  V30 19 C -0.085534 2.556876 3.842130 0
M  V30 20 C 1.319271 1.171294 -2.040072 0
M  V30 21 C 1.437217 -0.321777 -2.261443 0
M  V30 22 N 0.695339 -3.429024 -2.548197 0
M  V30 23 C 0.643360 -4.676799 -2.079291 0
M  V30 24 N 0.223948 -5.014148 -0.869361 0
M  V30 25 C -0.204133 -4.127188 0.039850 0
M  V30 26 H -1.809835 -5.967285 2.168028 0
M  V30 27 H -0.263045 -6.460858 1.322558 0
M  V30 28 H -0.211671 -5.708628 2.915684 0
M  V30 29 H -1.429470 -3.189816 3.064811 0
M  V30 30 H -1.394525 -0.200719 -2.908101 0
M  V30 31 H -1.720202 -0.956928 -1.325009 0
M  V30 32 H -1.495919 0.998444 -0.226245 0
M  V30 33 H -1.264952 1.813418 -1.800323 0
M  V30 34 H -0.626173 1.774648 1.437889 0
M  V30 35 H 2.891637 2.746364 2.449154 0
M  V30 36 H 3.529972 3.488094 4.639037 0
M  V30 37 H 1.761475 3.646697 6.428569 0
M  V30 38 H -0.514849 3.040262 5.856011 0
M  V30 39 H -1.136799 2.300937 3.662764 0
M  V30 40 H 0.833461 1.679796 -2.905667 0
M  V30 41 H 2.331123 1.581989 -1.842210 0
M  V30 42 H 1.754577 -0.462380 -3.321234 0
M  V30 43 H 2.257714 -0.675593 -1.578327 0
M  V30 44 H 0.968727 -5.503921 -2.729722 0
M  V30 END ATOM
M  V30 BEGIN BOND
M  V30 1 1 1 2
M  V30 2 2 2 3
M  V30 3 1 3 4
M  V30 4 1 4 5
M  V30 5 2 5 6
M  V30 6 1 6 7
M  V30 7 1 7 8
M  V30 8 1 8 9
M  V30 9 1 9 10
M  V30 10 1 10 11
M  V30 11 2 11 12
M  V30 12 1 11 13
M  V30 13 1 13 14
M  V30 14 2 14 15
M  V30 15 1 15 16
M  V30 16 2 16 17
M  V30 17 1 17 18
M  V30 18 2 18 19
M  V30 19 1 10 20
M  V30 20 1 20 21
M  V30 21 1 6 22
M  V30 22 2 22 23
M  V30 23 1 23 24
M  V30 24 2 24 25
M  V30 25 1 25 2
M  V30 26 1 25 5
M  V30 27 1 21 7
M  V30 28 1 19 14
M  V30 29 1 1 26
M  V30 30 1 1 27
M  V30 31 1 1 28
M  V30 32 1 3 29
M  V30 33 1 8 30
M  V30 34 1 8 31
M  V30 35 1 9 32
M  V30 36 1 9 33
M  V30 37 1 13 34
M  V30 38 1 15 35
M  V30 39 1 16 36
M  V30 40 1 17 37
M  V30 41 1 18 38
M  V30 42 1 19 39
M  V30 43 1 20 40
M  V30 44 1 20 41
M  V30 45 1 21 42
M  V30 46 1 21 43
M  V30 47 1 23 44
M  V30 END BOND
M  V30 END CTAB
M  END
>  <Dataset>  (43) 
ChEMBL_Kinases

>  <Ligand_Instance>  (43) 
nan

>  <PDB_ID>  (43) 
nan

>  <Standardized_SMILES>  (43) 
Cc1csc2c(N3CCN(C(=O)Nc4ccccc4)CC3)ncnc12

>  <Name>  (43) 
nan

>  <Pocket>  (43) 
nan

>  <ATP_Site>  (43) 
nan

>  <Peripheral>  (43) 
nan

>  <Num_H_Atoms_ProtBoundConf>  (43) 
nan

>  <Num_Resolved_Atoms>  (43) 
nan

>  <Num_Not_Resolved_Atoms>  (43) 
nan

$$$$
CHEMBL1378266
     RDKit          3D

  0  0  0  0  0  0  0  0  0  0999 V3000
M  V30 BEGIN CTAB
M  V30 COUNTS 27 28 0 0 0
M  V30 BEGIN ATOM
M  V30 1 C -0.911896 -1.046912 5.373039 0
M  V30 2 C -0.508841 -0.208409 4.393902 0
M  V30 3 C -1.548589 0.459051 3.529651 0
M  V30 4 N -1.240623 0.008703 2.165747 0
M  V30 5 C 0.064623 0.371414 1.726299 0
M  V30 6 O 0.631352 1.016322 2.681061 0
M  V30 7 C 0.661767 0.078987 0.448010 0
M  V30 8 C 1.968556 0.584838 0.344833 0
M  V30 9 N 2.703850 0.421078 -0.765755 0
M  V30 10 C 2.152016 -0.243160 -1.779865 0
M  V30 11 N 0.929239 -0.749315 -1.760527 0
M  V30 12 C 0.180848 -0.592920 -0.654435 0
M  V30 13 O -0.970115 -1.013332 -0.504850 0
M  V30 14 C 0.490300 -1.434094 -2.931405 0
M  V30 15 C 1.641909 -1.901857 -3.724628 0
M  V30 16 S 2.907018 -0.613608 -3.384689 0
M  V30 17 H -1.509844 -1.659245 6.069186 0
M  V30 18 H -1.951970 -1.300883 5.616835 0
M  V30 19 H 0.333002 -0.616282 4.934883 0
M  V30 20 H -2.538508 0.024251 3.780166 0
M  V30 21 H -1.511972 1.540468 3.646040 0
M  V30 22 H -1.850976 -0.516546 1.534942 0
M  V30 23 H 2.483092 1.142393 1.145302 0
M  V30 24 H -0.122135 -0.734102 -3.536470 0
M  V30 25 H -0.154049 -2.313242 -2.726510 0
M  V30 26 H 1.420291 -1.995878 -4.790516 0
M  V30 27 H 2.097315 -2.852080 -3.352008 0
M  V30 END ATOM
M  V30 BEGIN BOND
M  V30 1 2 1 2
M  V30 2 1 2 3
M  V30 3 1 3 4
M  V30 4 1 4 5
M  V30 5 2 5 6
M  V30 6 1 5 7
M  V30 7 2 7 8
M  V30 8 1 8 9
M  V30 9 2 9 10
M  V30 10 1 10 11
M  V30 11 1 11 12
M  V30 12 2 12 13
M  V30 13 1 11 14
M  V30 14 1 14 15
M  V30 15 1 15 16
M  V30 16 1 12 7
M  V30 17 1 16 10
M  V30 18 1 1 17
M  V30 19 1 1 18
M  V30 20 1 2 19
M  V30 21 1 3 20
M  V30 22 1 3 21
M  V30 23 1 4 22
M  V30 24 1 8 23
M  V30 25 1 14 24
M  V30 26 1 14 25
M  V30 27 1 15 26
M  V30 28 1 15 27
M  V30 END BOND
M  V30 END CTAB
M  END
>  <Dataset>  (44) 
ChEMBL_Kinases

>  <Ligand_Instance>  (44) 
nan

>  <PDB_ID>  (44) 
nan

>  <Standardized_SMILES>  (44) 
C=CCNC(=O)c1cnc2n(c1=O)CCS2

>  <Name>  (44) 
nan

>  <Pocket>  (44) 
nan

>  <ATP_Site>  (44) 
nan

>  <Peripheral>  (44) 
nan

>  <Num_H_Atoms_ProtBoundConf>  (44) 
nan

>  <Num_Resolved_Atoms>  (44) 
nan

>  <Num_Not_Resolved_Atoms>  (44) 
nan

$$$$
CHEMBL1392796
     RDKit          3D

  0  0  0  0  0  0  0  0  0  0999 V3000
M  V30 BEGIN CTAB
M  V30 COUNTS 42 44 0 0 0
M  V30 BEGIN ATOM
M  V30 1 C 0.554761 -6.195814 1.570806 0
M  V30 2 C 0.523087 -4.709813 1.567907 0
M  V30 3 C 1.606314 -3.930778 1.877250 0
M  V30 4 C 1.574812 -2.544258 1.875023 0
M  V30 5 S 2.965888 -1.558083 2.295868 0
M  V30 6 C 2.710641 0.203678 2.181978 0
M  V30 7 C 2.560820 0.741614 0.821854 0
M  V30 8 O 3.607201 1.239390 0.266404 0
M  V30 9 N 1.449452 0.830329 -0.042168 0
M  V30 10 C 1.495715 1.410948 -1.348295 0
M  V30 11 C 1.880702 2.884122 -1.310237 0
M  V30 12 N 0.899293 3.651736 -0.519061 0
M  V30 13 C 1.018454 3.859360 0.855689 0
M  V30 14 O 2.063161 3.856242 1.594223 0
M  V30 15 C -0.210760 4.129553 1.641557 0
M  V30 16 S -1.471695 4.239373 0.320344 0
M  V30 17 C -0.284689 4.276642 -1.049299 0
M  V30 18 O -0.414020 4.733833 -2.218440 0
M  V30 19 N 0.414823 -1.961828 1.550173 0
M  V30 20 C -0.638378 -2.728808 1.249269 0
M  V30 21 C -1.801694 -2.040065 0.925578 0
M  V30 22 C -2.989277 -2.646395 0.588608 0
M  V30 23 C -2.959337 -4.021925 0.590895 0
M  V30 24 C -1.840296 -4.749658 0.902032 0
M  V30 25 C -0.651274 -4.102949 1.238962 0
M  V30 26 H 1.467022 -6.490668 2.125358 0
M  V30 27 H -0.334322 -6.591892 2.143779 0
M  V30 28 H 0.565366 -6.584972 0.538333 0
M  V30 29 H 2.535425 -4.413238 2.135287 0
M  V30 30 H 1.877038 0.556763 2.851239 0
M  V30 31 H 3.618673 0.689643 2.645019 0
M  V30 32 H 0.569837 0.455331 0.321887 0
M  V30 33 H 0.514482 1.323882 -1.851035 0
M  V30 34 H 2.243423 0.909551 -1.999371 0
M  V30 35 H 1.830855 3.225528 -2.365063 0
M  V30 36 H 2.867345 3.082396 -0.909501 0
M  V30 37 H -0.126168 5.159032 2.061163 0
M  V30 38 H -0.443439 3.374430 2.400433 0
M  V30 39 H -1.816153 -0.941280 0.926582 0
M  V30 40 H -3.860357 -2.047911 0.347619 0
M  V30 41 H -3.884906 -4.533603 0.330855 0
M  V30 42 H -1.822933 -5.831981 0.902208 0
M  V30 END ATOM
M  V30 BEGIN BOND
M  V30 1 1 1 2
M  V30 2 2 2 3
M  V30 3 1 3 4
M  V30 4 1 4 5
M  V30 5 1 5 6
M  V30 6 1 6 7
M  V30 7 2 7 8
M  V30 8 1 7 9
M  V30 9 1 9 10
M  V30 10 1 10 11
M  V30 11 1 11 12
M  V30 12 1 12 13
M  V30 13 2 13 14
M  V30 14 1 13 15
M  V30 15 1 15 16
M  V30 16 1 16 17
M  V30 17 2 17 18
M  V30 18 2 4 19
M  V30 19 1 19 20
M  V30 20 2 20 21
M  V30 21 1 21 22
M  V30 22 2 22 23
M  V30 23 1 23 24
M  V30 24 2 24 25
M  V30 25 1 25 2
M  V30 26 1 17 12
M  V30 27 1 25 20
M  V30 28 1 1 26
M  V30 29 1 1 27
M  V30 30 1 1 28
M  V30 31 1 3 29
M  V30 32 1 6 30
M  V30 33 1 6 31
M  V30 34 1 9 32
M  V30 35 1 10 33
M  V30 36 1 10 34
M  V30 37 1 11 35
M  V30 38 1 11 36
M  V30 39 1 15 37
M  V30 40 1 15 38
M  V30 41 1 21 39
M  V30 42 1 22 40
M  V30 43 1 23 41
M  V30 44 1 24 42
M  V30 END BOND
M  V30 END CTAB
M  END
>  <Dataset>  (45) 
ChEMBL_Kinases

>  <Ligand_Instance>  (45) 
nan

>  <PDB_ID>  (45) 
nan

>  <Standardized_SMILES>  (45) 
Cc1cc(SCC(=O)NCCN2C(=O)CSC2=O)nc2ccccc12

>  <Name>  (45) 
nan

>  <Pocket>  (45) 
nan

>  <ATP_Site>  (45) 
nan

>  <Peripheral>  (45) 
nan

>  <Num_H_Atoms_ProtBoundConf>  (45) 
nan

>  <Num_Resolved_Atoms>  (45) 
nan

>  <Num_Not_Resolved_Atoms>  (45) 
nan

$$$$
CHEMBL1392784
     RDKit          3D

  0  0  0  0  0  0  0  0  0  0999 V3000
M  V30 BEGIN CTAB
M  V30 COUNTS 37 37 0 0 0
M  V30 BEGIN ATOM
M  V30 1 C -2.716630 -3.406815 3.716987 0
M  V30 2 O -1.717073 -3.770231 2.783043 0
M  V30 3 C -0.853024 -2.825919 2.245093 0
M  V30 4 C -0.911234 -1.484876 2.582031 0
M  V30 5 C 0.006541 -0.653129 1.973962 0
M  V30 6 C 0.961793 -1.068384 1.066847 0
M  V30 7 C 1.943834 -0.198295 0.411943 0
M  V30 8 N 1.564382 0.387972 -0.824742 0
M  V30 9 C 0.449030 1.254618 -0.997217 0
M  V30 10 C -0.993391 0.889266 -1.247816 0
M  V30 11 C 0.679053 2.577493 -0.933886 0
M  V30 12 C -0.379735 3.539138 -1.095039 0
M  V30 13 N -1.253786 4.312229 -1.238902 0
M  V30 14 C 2.000966 3.158840 -0.699773 0
M  V30 15 N 2.280242 4.557502 -0.626731 0
M  V30 16 O 3.092114 2.575627 -0.526173 0
M  V30 17 C 0.957865 -2.411758 0.782635 0
M  V30 18 C 0.072329 -3.328846 1.344818 0
M  V30 19 O 0.123239 -4.689429 1.009943 0
M  V30 20 C 1.118835 -5.064153 0.076932 0
M  V30 21 H -2.235850 -3.261197 4.721978 0
M  V30 22 H -3.436200 -4.264646 3.810876 0
M  V30 23 H -3.231567 -2.465312 3.428466 0
M  V30 24 H -1.648130 -1.131873 3.288787 0
M  V30 25 H -0.002614 0.422508 2.212053 0
M  V30 26 H 2.861423 -0.800171 0.248880 0
M  V30 27 H 2.261672 0.573637 1.168735 0
M  V30 28 H 1.979315 0.323483 -1.803140 0
M  V30 29 H -1.488464 0.988471 -0.260746 0
M  V30 30 H -1.090730 -0.151168 -1.572118 0
M  V30 31 H -1.420286 1.571105 -2.021027 0
M  V30 32 H 2.862455 5.001077 -1.375201 0
M  V30 33 H 1.863105 5.057009 0.207309 0
M  V30 34 H 1.683735 -2.792695 0.079341 0
M  V30 35 H 0.934989 -4.477151 -0.851750 0
M  V30 36 H 2.134438 -4.748827 0.452272 0
M  V30 37 H 1.145006 -6.151523 -0.095701 0
M  V30 END ATOM
M  V30 BEGIN BOND
M  V30 1 1 1 2
M  V30 2 1 2 3
M  V30 3 2 3 4
M  V30 4 1 4 5
M  V30 5 2 5 6
M  V30 6 1 6 7
M  V30 7 1 7 8
M  V30 8 1 8 9
M  V30 9 1 9 10
M  V30 10 2 9 11
M  V30 11 1 11 12
M  V30 12 3 12 13
M  V30 13 1 11 14
M  V30 14 1 14 15
M  V30 15 2 14 16
M  V30 16 1 6 17
M  V30 17 2 17 18
M  V30 18 1 18 19
M  V30 19 1 19 20
M  V30 20 1 18 3
M  V30 21 1 1 21
M  V30 22 1 1 22
M  V30 23 1 1 23
M  V30 24 1 4 24
M  V30 25 1 5 25
M  V30 26 1 7 26
M  V30 27 1 7 27
M  V30 28 1 8 28
M  V30 29 1 10 29
M  V30 30 1 10 30
M  V30 31 1 10 31
M  V30 32 1 15 32
M  V30 33 1 15 33
M  V30 34 1 17 34
M  V30 35 1 20 35
M  V30 36 1 20 36
M  V30 37 1 20 37
M  V30 END BOND
M  V30 END CTAB
M  END
>  <Dataset>  (46) 
ChEMBL_Kinases

>  <Ligand_Instance>  (46) 
nan

>  <PDB_ID>  (46) 
nan

>  <Standardized_SMILES>  (46) 
COc1ccc(CN/C(C)=C(/C#N)C(N)=O)cc1OC

>  <Name>  (46) 
nan

>  <Pocket>  (46) 
nan

>  <ATP_Site>  (46) 
nan

>  <Peripheral>  (46) 
nan

>  <Num_H_Atoms_ProtBoundConf>  (46) 
nan

>  <Num_Resolved_Atoms>  (46) 
nan

>  <Num_Not_Resolved_Atoms>  (46) 
nan

$$$$
CHEMBL1392551
     RDKit          3D

  0  0  0  0  0  0  0  0  0  0999 V3000
M  V30 BEGIN CTAB
M  V30 COUNTS 49 53 0 0 0
M  V30 BEGIN ATOM
M  V30 1 C 1.972800 -0.133863 -1.309978 0
M  V30 2 C 1.690111 -0.432625 0.167466 0
M  V30 3 C 2.888347 -1.178539 0.662564 0
M  V30 4 C 4.014225 -1.488294 -0.068830 0
M  V30 5 C 5.069964 -2.177843 0.451479 0
M  V30 6 C 4.995574 -2.578822 1.773838 0
M  V30 7 C 3.894524 -2.301600 2.567319 0
M  V30 8 C 2.849894 -1.600727 1.995519 0
M  V30 9 C 1.552568 0.802016 0.976653 0
M  V30 10 C 0.219910 1.485188 0.936187 0
M  V30 11 C 0.137863 2.443188 -0.236996 0
M  V30 12 C 0.098050 2.323097 2.193798 0
M  V30 13 N -0.887989 0.558631 0.942562 0
M  V30 14 C -2.259290 0.730373 1.263150 0
M  V30 15 O -2.894151 1.739226 1.628415 0
M  V30 16 C -2.913987 -0.558600 1.096348 0
M  V30 17 C -4.137303 -0.907235 1.223935 0
M  V30 18 S -5.524002 0.189143 1.668832 0
M  V30 19 C -6.647691 -0.610162 0.456585 0
M  V30 20 S -7.779078 -0.169470 -0.660604 0
M  V30 21 N -6.248061 -1.975385 0.750618 0
M  V30 22 C -4.888391 -2.143237 1.170659 0
M  V30 23 O -4.392687 -3.250003 1.471702 0
M  V30 24 C -1.924750 -1.502232 0.669732 0
M  V30 25 C -1.772205 -2.793631 0.305109 0
M  V30 26 C -0.606759 -3.390965 -0.096786 0
M  V30 27 C 0.551070 -2.601841 -0.142258 0
M  V30 28 C 0.477363 -1.271784 0.212387 0
M  V30 29 C -0.751272 -0.786239 0.598618 0
M  V30 30 H 0.989888 0.283317 -1.681894 0
M  V30 31 H 2.135077 -1.076979 -1.843987 0
M  V30 32 H 2.718110 0.648130 -1.450248 0
M  V30 33 H 4.025174 -1.153249 -1.096873 0
M  V30 34 H 5.920078 -2.376584 -0.205248 0
M  V30 35 H 5.855153 -3.123261 2.143607 0
M  V30 36 H 3.869912 -2.632693 3.604827 0
M  V30 37 H 2.014582 -1.420389 2.687601 0
M  V30 38 H 2.286826 1.544379 0.543661 0
M  V30 39 H 1.924184 0.632836 2.012601 0
M  V30 40 H 1.138333 2.484857 -0.750838 0
M  V30 41 H -0.037730 3.503657 0.086955 0
M  V30 42 H -0.668066 2.174660 -0.952958 0
M  V30 43 H 1.032979 2.864243 2.421311 0
M  V30 44 H -0.312675 1.734090 3.036730 0
M  V30 45 H -0.680416 3.090905 1.954910 0
M  V30 46 H -6.922278 -2.806485 0.655517 0
M  V30 47 H -2.546776 -3.505730 0.246974 0
M  V30 48 H -0.436787 -4.414735 -0.394661 0
M  V30 49 H 1.502684 -2.976187 -0.440413 0
M  V30 END ATOM
M  V30 BEGIN BOND
M  V30 1 1 1 2
M  V30 2 1 2 3
M  V30 3 2 3 4
M  V30 4 1 4 5
M  V30 5 2 5 6
M  V30 6 1 6 7
M  V30 7 2 7 8
M  V30 8 1 2 9
M  V30 9 1 9 10
M  V30 10 1 10 11
M  V30 11 1 10 12
M  V30 12 1 10 13
M  V30 13 1 13 14
M  V30 14 2 14 15
M  V30 15 1 14 16
M  V30 16 2 16 17
M  V30 17 1 17 18
M  V30 18 1 18 19
M  V30 19 2 19 20
M  V30 20 1 19 21
M  V30 21 1 21 22
M  V30 22 2 22 23
M  V30 23 1 16 24
M  V30 24 2 24 25
M  V30 25 1 25 26
M  V30 26 2 26 27
M  V30 27 1 27 28
M  V30 28 2 28 29
M  V30 29 1 28 2
M  V30 30 1 8 3
M  V30 31 1 29 13
M  V30 32 1 22 17
M  V30 33 1 29 24
M  V30 34 1 1 30
M  V30 35 1 1 31
M  V30 36 1 1 32
M  V30 37 1 4 33
M  V30 38 1 5 34
M  V30 39 1 6 35
M  V30 40 1 7 36
M  V30 41 1 8 37
M  V30 42 1 9 38
M  V30 43 1 9 39
M  V30 44 1 11 40
M  V30 45 1 11 41
M  V30 46 1 11 42
M  V30 47 1 12 43
M  V30 48 1 12 44
M  V30 49 1 12 45
M  V30 50 1 21 46
M  V30 51 1 25 47
M  V30 52 1 26 48
M  V30 53 1 27 49
M  V30 END BOND
M  V30 END CTAB
M  END
>  <Dataset>  (47) 
ChEMBL_Kinases

>  <Ligand_Instance>  (47) 
nan

>  <PDB_ID>  (47) 
nan

>  <Standardized_SMILES>  (47) 
CC1(c2ccccc2)CC(C)(C)N2C(=O)/C(=C3\SC(=S)NC3=O)c3cccc1c32

>  <Name>  (47) 
nan

>  <Pocket>  (47) 
nan

>  <ATP_Site>  (47) 
nan

>  <Peripheral>  (47) 
nan

>  <Num_H_Atoms_ProtBoundConf>  (47) 
nan

>  <Num_Resolved_Atoms>  (47) 
nan

>  <Num_Not_Resolved_Atoms>  (47) 
nan

$$$$
CHEMBL1392539
     RDKit          3D

  0  0  0  0  0  0  0  0  0  0999 V3000
M  V30 BEGIN CTAB
M  V30 COUNTS 35 36 0 0 0
M  V30 BEGIN ATOM
M  V30 1 C -0.326057 -2.798329 3.331318 0
M  V30 2 C -0.360122 -2.226371 1.970867 0
M  V30 3 O -1.495034 -2.238302 1.387615 0
M  V30 4 N 0.803958 -1.709059 1.383949 0
M  V30 5 C 1.323566 -1.093938 0.220421 0
M  V30 6 C 1.738093 -1.964052 -0.765001 0
M  V30 7 C 2.273621 -1.497800 -1.924055 0
M  V30 8 C 2.722183 -2.364902 -2.985133 0
M  V30 9 O 3.222469 -1.969662 -4.070826 0
M  V30 10 O 2.641685 -3.748059 -2.905110 0
M  V30 11 C 2.394190 -0.147923 -2.095721 0
M  V30 12 C 1.965868 0.682914 -1.082486 0
M  V30 13 C 1.405879 0.269666 0.134649 0
M  V30 14 S 0.902375 1.435020 1.322733 0
M  V30 15 O 1.672736 1.237603 2.606988 0
M  V30 16 O 1.263149 2.813077 0.793532 0
M  V30 17 C -0.814115 1.383475 1.605961 0
M  V30 18 C -1.566968 2.082217 0.649818 0
M  V30 19 C -2.941130 2.191265 0.683512 0
M  V30 20 C -3.645344 1.596560 1.693057 0
M  V30 21 Cl -5.381194 1.638495 1.881676 0
M  V30 22 C -2.934980 0.908284 2.639487 0
M  V30 23 C -1.566306 0.802896 2.601069 0
M  V30 24 H 0.699946 -3.040530 3.671839 0
M  V30 25 H -0.877436 -2.208197 4.075967 0
M  V30 26 H -0.854210 -3.786214 3.268169 0
M  V30 27 H 1.685606 -1.760929 1.976922 0
M  V30 28 H 1.655505 -3.033909 -0.657849 0
M  V30 29 H 2.313761 -4.347061 -3.651565 0
M  V30 30 H 2.810239 0.255074 -2.993167 0
M  V30 31 H 2.084757 1.760700 -1.269864 0
M  V30 32 H -1.115293 2.602464 -0.209425 0
M  V30 33 H -3.503479 2.732962 -0.060830 0
M  V30 34 H -3.389709 0.393161 3.491344 0
M  V30 35 H -0.914046 0.277948 3.309428 0
M  V30 END ATOM
M  V30 BEGIN BOND
M  V30 1 1 1 2
M  V30 2 2 2 3
M  V30 3 1 2 4
M  V30 4 1 4 5
M  V30 5 2 5 6
M  V30 6 1 6 7
M  V30 7 1 7 8
M  V30 8 2 8 9
M  V30 9 1 8 10
M  V30 10 2 7 11
M  V30 11 1 11 12
M  V30 12 2 12 13
M  V30 13 1 13 14
M  V30 14 2 14 15
M  V30 15 2 14 16
M  V30 16 1 14 17
M  V30 17 2 17 18
M  V30 18 1 18 19
M  V30 19 2 19 20
M  V30 20 1 20 21
M  V30 21 1 20 22
M  V30 22 2 22 23
M  V30 23 1 13 5
M  V30 24 1 23 17
M  V30 25 1 1 24
M  V30 26 1 1 25
M  V30 27 1 1 26
M  V30 28 1 4 27
M  V30 29 1 6 28
M  V30 30 1 10 29
M  V30 31 1 11 30
M  V30 32 1 12 31
M  V30 33 1 18 32
M  V30 34 1 19 33
M  V30 35 1 22 34
M  V30 36 1 23 35
M  V30 END BOND
M  V30 END CTAB
M  END
>  <Dataset>  (48) 
ChEMBL_Kinases

>  <Ligand_Instance>  (48) 
nan

>  <PDB_ID>  (48) 
nan

>  <Standardized_SMILES>  (48) 
CC(=O)Nc1cc(C(=O)O)ccc1S(=O)(=O)c1ccc(Cl)cc1

>  <Name>  (48) 
nan

>  <Pocket>  (48) 
nan

>  <ATP_Site>  (48) 
nan

>  <Peripheral>  (48) 
nan

>  <Num_H_Atoms_ProtBoundConf>  (48) 
nan

>  <Num_Resolved_Atoms>  (48) 
nan

>  <Num_Not_Resolved_Atoms>  (48) 
nan

$$$$
CHEMBL1392501
     RDKit          3D

  0  0  0  0  0  0  0  0  0  0999 V3000
M  V30 BEGIN CTAB
M  V30 COUNTS 48 50 0 0 0
M  V30 BEGIN ATOM
M  V30 1 C 4.161741 -6.309236 1.971756 0
M  V30 2 C 4.681439 -5.033879 1.389136 0
M  V30 3 O 5.929691 -4.933792 1.179786 0
M  V30 4 O 3.869299 -3.974245 1.073667 0
M  V30 5 C 4.379461 -2.755788 0.515240 0
M  V30 6 C 3.179990 -1.901454 0.334398 0
M  V30 7 C 3.141129 -0.766489 0.961569 0
M  V30 8 C 4.234323 -0.327225 1.823404 0
M  V30 9 O 4.277176 0.764350 2.471729 0
M  V30 10 O 5.406499 -0.223140 2.537648 0
M  V30 11 N 2.032953 0.102008 0.835614 0
M  V30 12 C 1.058578 1.029571 1.309164 0
M  V30 13 O 1.168853 1.965943 2.130159 0
M  V30 14 C 0.102592 0.311265 0.406210 0
M  V30 15 N -0.961765 1.135649 -0.144822 0
M  V30 16 C -2.345205 0.727945 -0.264981 0
M  V30 17 O -2.365987 -0.439303 0.201327 0
M  V30 18 C -3.110329 1.834496 -0.868569 0
M  V30 19 C -3.021681 3.099446 -0.009809 0
M  V30 20 C -4.576469 1.470199 -0.888639 0
M  V30 21 N -5.144197 1.225491 0.397605 0
M  V30 22 C -5.304603 0.142537 1.173668 0
M  V30 23 C -5.925811 0.445754 2.366118 0
M  V30 24 Cl -6.321802 -0.665375 3.652463 0
M  V30 25 C -6.140774 1.802095 2.273810 0
M  V30 26 N -5.672113 2.232968 1.108200 0
M  V30 27 C 1.354756 0.295327 -0.443621 0
M  V30 28 S 1.552520 -1.048797 -1.591827 0
M  V30 29 C 2.121950 -2.400505 -0.538422 0
M  V30 30 H 4.144281 -6.258435 3.090625 0
M  V30 31 H 3.106484 -6.478827 1.651815 0
M  V30 32 H 4.785715 -7.185833 1.700416 0
M  V30 33 H 4.705593 -3.063380 -0.521114 0
M  V30 34 H 5.186244 -2.310859 1.089804 0
M  V30 35 H 5.894575 -1.018634 2.975885 0
M  V30 36 H -0.196208 -0.679688 0.747722 0
M  V30 37 H -0.518560 2.063930 -0.427381 0
M  V30 38 H -2.777622 2.063324 -1.904604 0
M  V30 39 H -2.236778 3.798041 -0.396548 0
M  V30 40 H -2.840748 2.784360 1.042112 0
M  V30 41 H -3.981157 3.658013 -0.016174 0
M  V30 42 H -4.742270 0.539213 -1.508164 0
M  V30 43 H -5.182429 2.248640 -1.424436 0
M  V30 44 H -4.978400 -0.831317 0.868107 0
M  V30 45 H -6.624819 2.405657 3.054725 0
M  V30 46 H 1.608341 1.308328 -0.823118 0
M  V30 47 H 1.210366 -2.726339 0.042991 0
M  V30 48 H 2.419202 -3.289220 -1.109920 0
M  V30 END ATOM
M  V30 BEGIN BOND
M  V30 1 1 1 2
M  V30 2 2 2 3
M  V30 3 1 2 4
M  V30 4 1 4 5
M  V30 5 1 5 6
M  V30 6 2 6 7
M  V30 7 1 7 8
M  V30 8 2 8 9
M  V30 9 1 8 10
M  V30 10 1 7 11
M  V30 11 1 11 12
M  V30 12 2 12 13
M  V30 13 1 12 14
M  V30 14 1 14 15
M  V30 15 1 15 16
M  V30 16 2 16 17
M  V30 17 1 16 18
M  V30 18 1 18 19
M  V30 19 1 18 20
M  V30 20 1 20 21
M  V30 21 1 21 22
M  V30 22 2 22 23
M  V30 23 1 23 24
M  V30 24 1 23 25
M  V30 25 2 25 26
M  V30 26 1 14 27
M  V30 27 1 27 28
M  V30 28 1 28 29
M  V30 29 1 29 6
M  V30 30 1 27 11
M  V30 31 1 26 21
M  V30 32 1 1 30
M  V30 33 1 1 31
M  V30 34 1 1 32
M  V30 35 1 5 33
M  V30 36 1 5 34
M  V30 37 1 10 35
M  V30 38 1 14 36
M  V30 39 1 15 37
M  V30 40 1 18 38
M  V30 41 1 19 39
M  V30 42 1 19 40
M  V30 43 1 19 41
M  V30 44 1 20 42
M  V30 45 1 20 43
M  V30 46 1 22 44
M  V30 47 1 25 45
M  V30 48 1 27 46
M  V30 49 1 29 47
M  V30 50 1 29 48
M  V30 END BOND
M  V30 END CTAB
M  END
>  <Dataset>  (49) 
ChEMBL_Kinases

>  <Ligand_Instance>  (49) 
nan

>  <PDB_ID>  (49) 
nan

>  <Standardized_SMILES>  (49) 
CC(=O)OCC1=C(C(=O)O)N2C(=O)C(NC(=O)C(C)Cn3cc(Cl)cn3)C2SC1

>  <Name>  (49) 
nan

>  <Pocket>  (49) 
nan

>  <ATP_Site>  (49) 
nan

>  <Peripheral>  (49) 
nan

>  <Num_H_Atoms_ProtBoundConf>  (49) 
nan

>  <Num_Resolved_Atoms>  (49) 
nan

>  <Num_Not_Resolved_Atoms>  (49) 
nan

$$$$
CHEMBL1392463
     RDKit          3D

  0  0  0  0  0  0  0  0  0  0999 V3000
M  V30 BEGIN CTAB
M  V30 COUNTS 56 59 0 0 0
M  V30 BEGIN ATOM
M  V30 1 C 2.968180 -5.596827 -0.828199 0
M  V30 2 C 3.819023 -4.668823 -1.696750 0
M  V30 3 O 3.001143 -3.503383 -1.898953 0
M  V30 4 C 2.571211 -2.752192 -0.822488 0
M  V30 5 O 2.833832 -2.991823 0.381870 0
M  V30 6 C 1.764897 -1.617959 -1.133602 0
M  V30 7 S 1.122039 -0.528904 0.207872 0
M  V30 8 C 0.249102 0.588552 -1.063890 0
M  V30 9 N -0.494054 1.716763 -0.622493 0
M  V30 10 C 0.143271 3.017283 -0.474811 0
M  V30 11 C 0.712736 3.251651 0.857276 0
M  V30 12 C 1.991970 2.955780 1.279280 0
M  V30 13 C 2.461802 3.202780 2.546215 0
M  V30 14 C 1.581481 3.792253 3.461784 0
M  V30 15 C 0.293179 4.098828 3.063558 0
M  V30 16 C -0.163678 3.839826 1.773077 0
M  V30 17 C -1.854850 1.397927 -0.367441 0
M  V30 18 O -1.193021 0.409183 -0.756535 0
M  V30 19 C -3.063211 2.110312 0.089556 0
M  V30 20 S -4.426801 0.920224 0.136383 0
M  V30 21 C -4.079590 -0.283885 1.406072 0
M  V30 22 N -4.495554 -0.053335 2.666347 0
M  V30 23 N -4.124764 -1.082831 3.418852 0
M  V30 24 C -3.471925 -1.987306 2.676165 0
M  V30 25 C -2.879184 -3.282982 3.074750 0
M  V30 26 C -2.780120 -4.421879 2.123350 0
M  V30 27 C -1.547075 -3.713226 2.500759 0
M  V30 28 N -3.461682 -1.463693 1.440026 0
M  V30 29 N -2.905473 -2.008098 0.279712 0
M  V30 30 N 0.519219 0.076527 -2.094318 0
M  V30 31 C 1.252560 -1.006484 -2.260479 0
M  V30 32 C 1.624886 -1.695735 -3.535978 0
M  V30 33 H 1.888971 -5.481458 -1.003855 0
M  V30 34 H 3.274543 -6.655227 -0.943395 0
M  V30 35 H 3.149626 -5.298076 0.226099 0
M  V30 36 H 4.010055 -5.179786 -2.636523 0
M  V30 37 H 4.704155 -4.373696 -1.116622 0
M  V30 38 H 0.969527 3.033938 -1.231602 0
M  V30 39 H -0.539509 3.834682 -0.804183 0
M  V30 40 H 2.603017 2.504252 0.511329 0
M  V30 41 H 3.484017 2.948505 2.827550 0
M  V30 42 H 1.906320 4.005316 4.470633 0
M  V30 43 H -0.427366 4.561983 3.752639 0
M  V30 44 H -1.179666 4.100989 1.520169 0
M  V30 45 H -2.953362 2.500182 1.123903 0
M  V30 46 H -3.350672 2.889340 -0.636799 0
M  V30 47 H -2.995116 -3.579670 4.151455 0
M  V30 48 H -3.152500 -4.306703 1.102138 0
M  V30 49 H -2.877542 -5.464593 2.513633 0
M  V30 50 H -1.105729 -2.990158 1.798320 0
M  V30 51 H -0.808226 -4.237561 3.168922 0
M  V30 52 H -2.026510 -2.163678 -0.260348 0
M  V30 53 H -3.193502 -2.532580 -0.598727 0
M  V30 54 H 2.740492 -1.725915 -3.677419 0
M  V30 55 H 1.247115 -1.160378 -4.417881 0
M  V30 56 H 1.285816 -2.754097 -3.543559 0
M  V30 END ATOM
M  V30 BEGIN BOND
M  V30 1 1 1 2
M  V30 2 1 2 3
M  V30 3 1 3 4
M  V30 4 2 4 5
M  V30 5 1 4 6
M  V30 6 1 6 7
M  V30 7 1 7 8
M  V30 8 1 8 9
M  V30 9 1 9 10
M  V30 10 1 10 11
M  V30 11 2 11 12
M  V30 12 1 12 13
M  V30 13 2 13 14
M  V30 14 1 14 15
M  V30 15 2 15 16
M  V30 16 1 9 17
M  V30 17 2 17 18
M  V30 18 1 17 19
M  V30 19 1 19 20
M  V30 20 1 20 21
M  V30 21 2 21 22
M  V30 22 1 22 23
M  V30 23 2 23 24
M  V30 24 1 24 25
M  V30 25 1 25 26
M  V30 26 1 26 27
M  V30 27 1 24 28
M  V30 28 1 28 29
M  V30 29 2 8 30
M  V30 30 1 30 31
M  V30 31 1 31 32
M  V30 32 2 31 6
M  V30 33 1 16 11
M  V30 34 1 28 21
M  V30 35 1 27 25
M  V30 36 1 1 33
M  V30 37 1 1 34
M  V30 38 1 1 35
M  V30 39 1 2 36
M  V30 40 1 2 37
M  V30 41 1 10 38
M  V30 42 1 10 39
M  V30 43 1 12 40
M  V30 44 1 13 41
M  V30 45 1 14 42
M  V30 46 1 15 43
M  V30 47 1 16 44
M  V30 48 1 19 45
M  V30 49 1 19 46
M  V30 50 1 25 47
M  V30 51 1 26 48
M  V30 52 1 26 49
M  V30 53 1 27 50
M  V30 54 1 27 51
M  V30 55 1 29 52
M  V30 56 1 29 53
M  V30 57 1 32 54
M  V30 58 1 32 55
M  V30 59 1 32 56
M  V30 END BOND
M  V30 END CTAB
M  END
>  <Dataset>  (50) 
ChEMBL_Kinases

>  <Ligand_Instance>  (50) 
nan

>  <PDB_ID>  (50) 
nan

>  <Standardized_SMILES>  (50) 
CCOC(=O)c1sc(N(Cc2ccccc2)C(=O)CSc2nnc(C3CC3)n2N)nc1C

>  <Name>  (50) 
nan

>  <Pocket>  (50) 
nan

>  <ATP_Site>  (50) 
nan

>  <Peripheral>  (50) 
nan

>  <Num_H_Atoms_ProtBoundConf>  (50) 
nan

>  <Num_Resolved_Atoms>  (50) 
nan

>  <Num_Not_Resolved_Atoms>  (50) 
nan

$$$$
CHEMBL1392383
     RDKit          3D

  0  0  0  0  0  0  0  0  0  0999 V3000
M  V30 BEGIN CTAB
M  V30 COUNTS 39 40 0 0 0
M  V30 BEGIN ATOM
M  V30 1 C 1.112737 -3.035564 -2.292989 0
M  V30 2 O 1.391531 -1.648591 -2.095407 0
M  V30 3 C 2.202123 -1.217193 -1.068007 0
M  V30 4 C 2.788592 -2.093969 -0.175134 0
M  V30 5 C 3.592200 -1.634092 0.839364 0
M  V30 6 C 3.791022 -0.271274 0.933256 0
M  V30 7 C 4.635278 0.208203 1.999522 0
M  V30 8 O 5.188725 -0.553264 2.833814 0
M  V30 9 C 3.228808 0.639995 0.068412 0
M  V30 10 C 2.416572 0.145778 -0.953281 0
M  V30 11 O 1.875256 1.096010 -1.795146 0
M  V30 12 S 0.389870 1.864720 -1.554242 0
M  V30 13 O -0.423811 1.780429 -2.830353 0
M  V30 14 O 0.595889 3.309780 -1.151774 0
M  V30 15 C -0.561584 1.118036 -0.290912 0
M  V30 16 C -1.438183 0.103265 -0.606664 0
M  V30 17 C -2.207397 -0.513322 0.356088 0
M  V30 18 C -2.144283 -0.151981 1.683862 0
M  V30 19 N -2.968008 -0.834825 2.612652 0
M  V30 20 C -3.089821 -0.660009 3.998555 0
M  V30 21 C -3.992355 -1.438692 4.878071 0
M  V30 22 O -2.399683 0.210290 4.570352 0
M  V30 23 C -1.263337 0.859283 1.962540 0
M  V30 24 C -0.484687 1.493495 1.033521 0
M  V30 25 H 0.315593 -3.285097 -1.571523 0
M  V30 26 H 0.702319 -3.200884 -3.308259 0
M  V30 27 H 2.036418 -3.655374 -2.145308 0
M  V30 28 H 2.628831 -3.163164 -0.253831 0
M  V30 29 H 4.036209 -2.337791 1.520373 0
M  V30 30 H 4.855970 1.265493 2.161032 0
M  V30 31 H 3.417230 1.690979 0.187651 0
M  V30 32 H -1.555533 -0.247461 -1.621722 0
M  V30 33 H -2.891487 -1.317173 0.055652 0
M  V30 34 H -3.601144 -1.592861 2.270901 0
M  V30 35 H -4.202975 -2.426721 4.411502 0
M  V30 36 H -3.453461 -1.667485 5.813557 0
M  V30 37 H -4.988433 -0.971750 5.020985 0
M  V30 38 H -1.148076 1.202975 2.955955 0
M  V30 39 H 0.200048 2.289002 1.293050 0
M  V30 END ATOM
M  V30 BEGIN BOND
M  V30 1 1 1 2
M  V30 2 1 2 3
M  V30 3 2 3 4
M  V30 4 1 4 5
M  V30 5 2 5 6
M  V30 6 1 6 7
M  V30 7 2 7 8
M  V30 8 1 6 9
M  V30 9 2 9 10
M  V30 10 1 10 11
M  V30 11 1 11 12
M  V30 12 2 12 13
M  V30 13 2 12 14
M  V30 14 1 12 15
M  V30 15 2 15 16
M  V30 16 1 16 17
M  V30 17 2 17 18
M  V30 18 1 18 19
M  V30 19 1 19 20
M  V30 20 1 20 21
M  V30 21 2 20 22
M  V30 22 1 18 23
M  V30 23 2 23 24
M  V30 24 1 10 3
M  V30 25 1 24 15
M  V30 26 1 1 25
M  V30 27 1 1 26
M  V30 28 1 1 27
M  V30 29 1 4 28
M  V30 30 1 5 29
M  V30 31 1 7 30
M  V30 32 1 9 31
M  V30 33 1 16 32
M  V30 34 1 17 33
M  V30 35 1 19 34
M  V30 36 1 21 35
M  V30 37 1 21 36
M  V30 38 1 21 37
M  V30 39 1 23 38
M  V30 40 1 24 39
M  V30 END BOND
M  V30 END CTAB
M  END
>  <Dataset>  (51) 
ChEMBL_Kinases

>  <Ligand_Instance>  (51) 
nan

>  <PDB_ID>  (51) 
nan

>  <Standardized_SMILES>  (51) 
COc1ccc(C=O)cc1OS(=O)(=O)c1ccc(NC(C)=O)cc1

>  <Name>  (51) 
nan

>  <Pocket>  (51) 
nan

>  <ATP_Site>  (51) 
nan

>  <Peripheral>  (51) 
nan

>  <Num_H_Atoms_ProtBoundConf>  (51) 
nan

>  <Num_Resolved_Atoms>  (51) 
nan

>  <Num_Not_Resolved_Atoms>  (51) 
nan

$$$$
CHEMBL1392108
     RDKit          3D

  0  0  0  0  0  0  0  0  0  0999 V3000
M  V30 BEGIN CTAB
M  V30 COUNTS 57 59 0 0 0
M  V30 BEGIN ATOM
M  V30 1 C 1.173645 -5.694401 1.385436 0
M  V30 2 C 1.454392 -4.243032 0.998728 0
M  V30 3 C 2.541897 -4.253360 -0.017622 0
M  V30 4 O 1.695665 -3.557118 2.152275 0
M  V30 5 C 0.596288 -2.735223 2.443179 0
M  V30 6 C 0.953802 -1.318993 2.317562 0
M  V30 7 O 2.052977 -1.880316 1.965507 0
M  V30 8 N 0.602675 0.035305 2.422164 0
M  V30 9 C 1.551552 1.075103 2.103624 0
M  V30 10 C 1.852129 1.998851 3.257160 0
M  V30 11 C 0.758913 3.004458 3.489710 0
M  V30 12 C 0.612291 3.935289 2.307546 0
M  V30 13 C 1.385303 3.378003 1.147514 0
M  V30 14 C 1.068156 1.929869 0.950780 0
M  V30 15 C -0.439320 -3.234287 1.491634 0
M  V30 16 C -1.437320 -2.245669 1.046423 0
M  V30 17 O -2.319652 -1.532393 1.587463 0
M  V30 18 N -1.480431 -1.962657 -0.369903 0
M  V30 19 C -2.262592 -1.097567 -1.242078 0
M  V30 20 C -1.411001 -0.043517 -1.886630 0
M  V30 21 C -1.458515 -0.054054 -3.397123 0
M  V30 22 C -2.936220 0.001105 -3.744982 0
M  V30 23 C -3.486756 -1.363876 -3.449141 0
M  V30 24 C -3.062086 -1.946414 -2.153501 0
M  V30 25 O 0.282626 -3.769853 0.417522 0
M  V30 26 H 0.647754 -6.175591 0.552946 0
M  V30 27 H 2.146895 -6.138525 1.651498 0
M  V30 28 H 0.536273 -5.655768 2.290985 0
M  V30 29 H 3.102342 -3.325635 -0.107612 0
M  V30 30 H 3.216359 -5.152967 0.053732 0
M  V30 31 H 2.048581 -4.395827 -1.023712 0
M  V30 32 H 0.306413 -2.922557 3.499966 0
M  V30 33 H -0.375057 -0.068169 2.748531 0
M  V30 34 H 2.509340 0.630119 1.790905 0
M  V30 35 H 2.767285 2.566928 2.984649 0
M  V30 36 H 2.093483 1.473854 4.192865 0
M  V30 37 H 1.100231 3.628555 4.362775 0
M  V30 38 H -0.186563 2.549455 3.824671 0
M  V30 39 H 0.948918 4.967110 2.549996 0
M  V30 40 H -0.461936 3.969523 2.033584 0
M  V30 41 H 0.996354 3.908343 0.236541 0
M  V30 42 H 2.468874 3.594148 1.183998 0
M  V30 43 H 1.450615 1.609790 -0.029027 0
M  V30 44 H -0.030618 1.823070 0.912413 0
M  V30 45 H -0.960339 -4.125100 1.942330 0
M  V30 46 H -0.831481 -2.434157 -1.071397 0
M  V30 47 H -2.969998 -0.562309 -0.542320 0
M  V30 48 H -0.335820 -0.099717 -1.545586 0
M  V30 49 H -1.716451 0.988517 -1.593150 0
M  V30 50 H -0.925440 0.885314 -3.715806 0
M  V30 51 H -1.035441 -0.947668 -3.862565 0
M  V30 52 H -3.487912 0.785498 -3.211040 0
M  V30 53 H -3.032201 0.198786 -4.828873 0
M  V30 54 H -4.583573 -1.337802 -3.609654 0
M  V30 55 H -3.107757 -2.020814 -4.285902 0
M  V30 56 H -4.004801 -2.246613 -1.617832 0
M  V30 57 H -2.520733 -2.908797 -2.300064 0
M  V30 END ATOM
M  V30 BEGIN BOND
M  V30 1 1 1 2
M  V30 2 1 2 3
M  V30 3 1 2 4
M  V30 4 1 4 5
M  V30 5 1 5 6
M  V30 6 2 6 7
M  V30 7 1 6 8
M  V30 8 1 8 9
M  V30 9 1 9 10
M  V30 10 1 10 11
M  V30 11 1 11 12
M  V30 12 1 12 13
M  V30 13 1 13 14
M  V30 14 1 5 15
M  V30 15 1 15 16
M  V30 16 2 16 17
M  V30 17 1 16 18
M  V30 18 1 18 19
M  V30 19 1 19 20
M  V30 20 1 20 21
M  V30 21 1 21 22
M  V30 22 1 22 23
M  V30 23 1 23 24
M  V30 24 1 15 25
M  V30 25 1 25 2
M  V30 26 1 14 9
M  V30 27 1 24 19
M  V30 28 1 1 26
M  V30 29 1 1 27
M  V30 30 1 1 28
M  V30 31 1 3 29
M  V30 32 1 3 30
M  V30 33 1 3 31
M  V30 34 1 5 32
M  V30 35 1 8 33
M  V30 36 1 9 34
M  V30 37 1 10 35
M  V30 38 1 10 36
M  V30 39 1 11 37
M  V30 40 1 11 38
M  V30 41 1 12 39
M  V30 42 1 12 40
M  V30 43 1 13 41
M  V30 44 1 13 42
M  V30 45 1 14 43
M  V30 46 1 14 44
M  V30 47 1 15 45
M  V30 48 1 18 46
M  V30 49 1 19 47
M  V30 50 1 20 48
M  V30 51 1 20 49
M  V30 52 1 21 50
M  V30 53 1 21 51
M  V30 54 1 22 52
M  V30 55 1 22 53
M  V30 56 1 23 54
M  V30 57 1 23 55
M  V30 58 1 24 56
M  V30 59 1 24 57
M  V30 END BOND
M  V30 END CTAB
M  END
>  <Dataset>  (52) 
ChEMBL_Kinases

>  <Ligand_Instance>  (52) 
nan

>  <PDB_ID>  (52) 
nan

>  <Standardized_SMILES>  (52) 
CC1(C)OC(C(=O)NC2CCCCC2)C(C(=O)NC2CCCCC2)O1

>  <Name>  (52) 
nan

>  <Pocket>  (52) 
nan

>  <ATP_Site>  (52) 
nan

>  <Peripheral>  (52) 
nan

>  <Num_H_Atoms_ProtBoundConf>  (52) 
nan

>  <Num_Resolved_Atoms>  (52) 
nan

>  <Num_Not_Resolved_Atoms>  (52) 
nan

$$$$
CHEMBL1392044
     RDKit          3D

  0  0  0  0  0  0  0  0  0  0999 V3000
M  V30 BEGIN CTAB
M  V30 COUNTS 25 27 0 0 0
M  V30 BEGIN ATOM
M  V30 1 N 1.553152 -1.305151 3.171707 0
M  V30 2 C 2.675254 -1.052907 2.405629 0
M  V30 3 N 3.837780 -1.467461 2.935966 0
M  V30 4 O 4.724753 -1.025653 2.056761 0
M  V30 5 N 4.127131 -0.415774 1.110037 0
M  V30 6 C 2.777822 -0.372482 1.230860 0
M  V30 7 N 1.962302 0.180214 0.227952 0
M  V30 8 N 2.575849 0.849533 -0.759412 0
M  V30 9 N 1.673861 1.332285 -1.592460 0
M  V30 10 C 0.468081 0.947056 -1.105746 0
M  V30 11 C -0.714284 1.331539 -1.796090 0
M  V30 12 O -0.624360 2.055584 -2.847575 0
M  V30 13 O -1.870216 1.641235 -2.375079 0
M  V30 14 C 0.654369 0.214316 0.042595 0
M  V30 15 C -0.475472 -0.298293 0.721871 0
M  V30 16 C -0.870687 -1.401343 1.350072 0
M  V30 17 C -2.043242 -1.781219 1.873662 0
M  V30 18 C -2.978029 -0.712399 1.652320 0
M  V30 19 S -1.978895 0.605446 0.742498 0
M  V30 20 H 0.716492 -1.493309 3.742656 0
M  V30 21 H 1.431484 -1.040625 4.177525 0
M  V30 22 H -2.804503 1.409634 -2.002519 0
M  V30 23 H -0.144462 -2.229512 1.456181 0
M  V30 24 H -2.434131 -2.629580 2.388450 0
M  V30 25 H -4.154603 -0.745770 2.022099 0
M  V30 END ATOM
M  V30 BEGIN BOND
M  V30 1 1 1 2
M  V30 2 2 2 3
M  V30 3 1 3 4
M  V30 4 1 4 5
M  V30 5 2 5 6
M  V30 6 1 6 7
M  V30 7 1 7 8
M  V30 8 2 8 9
M  V30 9 1 9 10
M  V30 10 1 10 11
M  V30 11 2 11 12
M  V30 12 1 11 13
M  V30 13 2 10 14
M  V30 14 1 14 15
M  V30 15 2 15 16
M  V30 16 1 16 17
M  V30 17 2 17 18
M  V30 18 1 18 19
M  V30 19 1 6 2
M  V30 20 1 14 7
M  V30 21 1 19 15
M  V30 22 1 1 20
M  V30 23 1 1 21
M  V30 24 1 13 22
M  V30 25 1 16 23
M  V30 26 1 17 24
M  V30 27 1 18 25
M  V30 END BOND
M  V30 END CTAB
M  END
>  <Dataset>  (53) 
ChEMBL_Kinases

>  <Ligand_Instance>  (53) 
nan

>  <PDB_ID>  (53) 
nan

>  <Standardized_SMILES>  (53) 
Nc1nonc1-n1nnc(C(=O)O)c1-c1cccs1

>  <Name>  (53) 
nan

>  <Pocket>  (53) 
nan

>  <ATP_Site>  (53) 
nan

>  <Peripheral>  (53) 
nan

>  <Num_H_Atoms_ProtBoundConf>  (53) 
nan

>  <Num_Resolved_Atoms>  (53) 
nan

>  <Num_Not_Resolved_Atoms>  (53) 
nan

$$$$
CHEMBL1391991
     RDKit          3D

  0  0  0  0  0  0  0  0  0  0999 V3000
M  V30 BEGIN CTAB
M  V30 COUNTS 42 43 0 0 0
M  V30 BEGIN ATOM
M  V30 1 C -0.105995 -4.969969 1.732413 0
M  V30 2 C 0.822559 -4.202673 0.887569 0
M  V30 3 C 1.122166 -2.938964 1.356463 0
M  V30 4 C 1.977193 -2.138079 0.648317 0
M  V30 5 C 2.603150 -2.447856 -0.525683 0
M  V30 6 S 3.685887 -1.760313 -1.737608 0
M  V30 7 C 2.872564 -1.176561 -3.173795 0
M  V30 8 C 2.156136 0.097484 -3.264792 0
M  V30 9 N 1.127628 0.439382 -2.356377 0
M  V30 10 C 1.421401 0.745764 -1.003647 0
M  V30 11 O 2.666877 0.686133 -0.843697 0
M  V30 12 C 0.408495 1.068153 -0.004722 0
M  V30 13 C 0.625182 1.354642 1.246205 0
M  V30 14 C -0.389981 1.674425 2.233822 0
M  V30 15 C -0.021132 1.958560 3.531866 0
M  V30 16 C -0.918999 2.272056 4.532116 0
M  V30 17 C -2.249131 2.286485 4.151861 0
M  V30 18 N -3.244134 2.597812 5.111291 0 CHG=1 VAL=4
M  V30 19 O -3.101131 2.873904 6.316049 0
M  V30 20 O -4.573670 2.625793 4.770734 0 CHG=-1 VAL=1
M  V30 21 C -2.710218 2.015556 2.878241 0
M  V30 22 C -1.726794 1.708114 1.931376 0
M  V30 23 C 2.284702 -3.743096 -0.987774 0
M  V30 24 C 1.416335 -4.611966 -0.308180 0
M  V30 25 H -0.537210 -5.848025 1.212581 0
M  V30 26 H -0.982455 -4.349803 2.063927 0
M  V30 27 H 0.424063 -5.270774 2.676822 0
M  V30 28 H 0.767476 -2.447854 2.249011 0
M  V30 29 H 2.287428 -1.153561 0.947524 0
M  V30 30 H 2.160276 -2.001385 -3.553982 0
M  V30 31 H 3.649373 -1.146298 -4.027749 0
M  V30 32 H 1.655044 0.094992 -4.301526 0
M  V30 33 H 2.883225 0.969937 -3.404298 0
M  V30 34 H 0.093159 0.486035 -2.626847 0
M  V30 35 H -0.607828 1.059743 -0.368597 0
M  V30 36 H 1.672702 1.340915 1.529209 0
M  V30 37 H 1.032472 1.946235 3.834833 0
M  V30 38 H -0.630987 2.495149 5.551049 0
M  V30 39 H -3.754176 2.035311 2.614844 0
M  V30 40 H -2.092314 1.496013 0.935454 0
M  V30 41 H 2.595718 -4.311981 -1.871782 0
M  V30 42 H 1.099839 -5.601982 -0.550808 0
M  V30 END ATOM
M  V30 BEGIN BOND
M  V30 1 1 1 2
M  V30 2 2 2 3
M  V30 3 1 3 4
M  V30 4 2 4 5
M  V30 5 1 5 6
M  V30 6 1 6 7
M  V30 7 1 7 8
M  V30 8 1 8 9
M  V30 9 1 9 10
M  V30 10 2 10 11
M  V30 11 1 10 12
M  V30 12 2 12 13
M  V30 13 1 13 14
M  V30 14 2 14 15
M  V30 15 1 15 16
M  V30 16 2 16 17
M  V30 17 1 17 18
M  V30 18 2 18 19
M  V30 19 1 18 20
M  V30 20 1 17 21
M  V30 21 2 21 22
M  V30 22 1 5 23
M  V30 23 2 23 24
M  V30 24 1 24 2
M  V30 25 1 22 14
M  V30 26 1 1 25
M  V30 27 1 1 26
M  V30 28 1 1 27
M  V30 29 1 3 28
M  V30 30 1 4 29
M  V30 31 1 7 30
M  V30 32 1 7 31
M  V30 33 1 8 32
M  V30 34 1 8 33
M  V30 35 1 9 34
M  V30 36 1 12 35
M  V30 37 1 13 36
M  V30 38 1 15 37
M  V30 39 1 16 38
M  V30 40 1 21 39
M  V30 41 1 22 40
M  V30 42 1 23 41
M  V30 43 1 24 42
M  V30 END BOND
M  V30 END CTAB
M  END
>  <Dataset>  (54) 
ChEMBL_Kinases

>  <Ligand_Instance>  (54) 
nan

>  <PDB_ID>  (54) 
nan

>  <Standardized_SMILES>  (54) 
Cc1ccc(SCCNC(=O)/C=C/c2ccc([N+](=O)[O-])cc2)cc1

>  <Name>  (54) 
nan

>  <Pocket>  (54) 
nan

>  <ATP_Site>  (54) 
nan

>  <Peripheral>  (54) 
nan

>  <Num_H_Atoms_ProtBoundConf>  (54) 
nan

>  <Num_Resolved_Atoms>  (54) 
nan

>  <Num_Not_Resolved_Atoms>  (54) 
nan

$$$$
CHEMBL1391961
     RDKit          3D

  0  0  0  0  0  0  0  0  0  0999 V3000
M  V30 BEGIN CTAB
M  V30 COUNTS 28 28 0 0 0
M  V30 BEGIN ATOM
M  V30 1 C 0.782315 0.564627 4.254789 0
M  V30 2 C -0.419119 -0.147895 3.640239 0
M  V30 3 C -1.573041 0.856365 3.679433 0
M  V30 4 C -0.078307 -0.466553 2.227930 0
M  V30 5 C -0.018829 -1.731030 1.678290 0
M  V30 6 C 0.311065 -1.892530 0.347982 0
M  V30 7 C 0.594257 -0.841764 -0.495732 0
M  V30 8 C 0.944145 -0.989878 -1.900668 0
M  V30 9 C 1.031874 -2.143699 -2.532294 0
M  V30 10 C 1.389077 -2.203048 -3.943632 0
M  V30 11 O 1.620582 -1.144171 -4.583836 0
M  V30 12 O 1.476959 -3.422027 -4.592153 0
M  V30 13 C 0.530580 0.414971 0.068367 0
M  V30 14 C 0.201696 0.602556 1.401273 0
M  V30 15 H 0.702774 0.557578 5.359883 0
M  V30 16 H 0.742758 1.652213 3.961858 0
M  V30 17 H 1.741571 0.123019 3.897478 0
M  V30 18 H -0.631495 -1.027139 4.249233 0
M  V30 19 H -2.070997 0.825613 4.670091 0
M  V30 20 H -2.305051 0.540781 2.900485 0
M  V30 21 H -1.222967 1.866251 3.391020 0
M  V30 22 H -0.240528 -2.558325 2.337603 0
M  V30 23 H 0.342708 -2.896806 -0.027644 0
M  V30 24 H 1.151615 -0.116354 -2.493298 0
M  V30 25 H 0.834591 -3.057932 -1.989683 0
M  V30 26 H 1.448402 -3.511652 -5.614632 0
M  V30 27 H 0.748833 1.276219 -0.568983 0
M  V30 28 H 0.170136 1.617625 1.779212 0
M  V30 END ATOM
M  V30 BEGIN BOND
M  V30 1 1 1 2
M  V30 2 1 2 3
M  V30 3 1 2 4
M  V30 4 2 4 5
M  V30 5 1 5 6
M  V30 6 2 6 7
M  V30 7 1 7 8
M  V30 8 2 8 9
M  V30 9 1 9 10
M  V30 10 2 10 11
M  V30 11 1 10 12
M  V30 12 1 7 13
M  V30 13 2 13 14
M  V30 14 1 14 4
M  V30 15 1 1 15
M  V30 16 1 1 16
M  V30 17 1 1 17
M  V30 18 1 2 18
M  V30 19 1 3 19
M  V30 20 1 3 20
M  V30 21 1 3 21
M  V30 22 1 5 22
M  V30 23 1 6 23
M  V30 24 1 8 24
M  V30 25 1 9 25
M  V30 26 1 12 26
M  V30 27 1 13 27
M  V30 28 1 14 28
M  V30 END BOND
M  V30 END CTAB
M  END
>  <Dataset>  (55) 
ChEMBL_Kinases

>  <Ligand_Instance>  (55) 
nan

>  <PDB_ID>  (55) 
nan

>  <Standardized_SMILES>  (55) 
CC(C)c1ccc(/C=C/C(=O)O)cc1

>  <Name>  (55) 
nan

>  <Pocket>  (55) 
nan

>  <ATP_Site>  (55) 
nan

>  <Peripheral>  (55) 
nan

>  <Num_H_Atoms_ProtBoundConf>  (55) 
nan

>  <Num_Resolved_Atoms>  (55) 
nan

>  <Num_Not_Resolved_Atoms>  (55) 
nan

$$$$
CHEMBL1391696
     RDKit          3D

  0  0  0  0  0  0  0  0  0  0999 V3000
M  V30 BEGIN CTAB
M  V30 COUNTS 50 51 0 0 0
M  V30 BEGIN ATOM
M  V30 1 C 1.016302 -0.354942 4.070032 0
M  V30 2 O 1.898025 0.025651 3.004697 0
M  V30 3 C 3.172913 0.482124 3.307803 0
M  V30 4 C 3.593891 0.571202 4.618557 0
M  V30 5 C 4.880995 1.038145 4.804642 0
M  V30 6 C 5.749158 1.411124 3.790771 0
M  V30 7 C 5.257678 1.295599 2.486979 0
M  V30 8 C 3.979611 0.834789 2.246118 0
M  V30 9 N 3.534527 0.739005 0.893864 0
M  V30 10 C 3.698272 -0.441092 0.068503 0
M  V30 11 S 2.733856 1.955682 -0.026663 0
M  V30 12 O 2.541422 3.209992 0.747243 0
M  V30 13 O 3.501148 2.248987 -1.268340 0
M  V30 14 C 1.154840 1.294266 -0.454496 0
M  V30 15 C 0.054902 1.486108 0.382751 0
M  V30 16 C -1.163544 0.935296 -0.017628 0
M  V30 17 C -1.312602 0.222984 -1.188487 0
M  V30 18 C -2.575983 -0.356198 -1.617563 0
M  V30 19 O -2.640354 -0.994941 -2.699199 0
M  V30 20 O -3.691609 -0.185826 -0.810415 0
M  V30 21 C -4.970964 -0.687485 -1.088447 0
M  V30 22 C -5.080409 -2.144144 -1.171788 0
M  V30 23 O -6.302043 -2.422060 -1.433348 0
M  V30 24 N -4.157293 -3.213294 -1.026822 0
M  V30 25 C -4.895522 -4.457567 -1.233271 0
M  V30 26 C -3.975649 -5.640615 -1.093914 0
M  V30 27 F -2.959393 -5.542268 -2.050167 0
M  V30 28 F -4.647558 -6.813004 -1.370954 0
M  V30 29 F -3.382526 -5.701362 0.132131 0
M  V30 30 C -0.174822 0.069676 -1.976028 0
M  V30 31 C 1.057085 0.592014 -1.631336 0
M  V30 32 H 1.447027 -1.214045 4.632765 0
M  V30 33 H 0.022001 -0.588592 3.665973 0
M  V30 34 H 0.921471 0.476019 4.811847 0
M  V30 35 H 2.965912 0.296167 5.454519 0
M  V30 36 H 5.259967 1.126067 5.833427 0
M  V30 37 H 6.734524 1.763208 4.038586 0
M  V30 38 H 5.964209 1.596287 1.717946 0
M  V30 39 H 2.682786 -0.815987 -0.149490 0
M  V30 40 H 4.223359 -0.230992 -0.875872 0
M  V30 41 H 4.266919 -1.187831 0.678186 0
M  V30 42 H 0.149518 2.047368 1.315813 0
M  V30 43 H -2.016580 1.082205 0.628394 0
M  V30 44 H -5.616508 -0.357564 -0.232955 0
M  V30 45 H -5.419070 -0.167135 -1.975002 0
M  V30 46 H -3.210829 -2.854208 -0.811710 0
M  V30 47 H -5.716002 -4.561638 -0.501186 0
M  V30 48 H -5.341434 -4.459356 -2.243439 0
M  V30 49 H -0.224428 -0.484141 -2.916671 0
M  V30 50 H 1.914325 0.434887 -2.297090 0
M  V30 END ATOM
M  V30 BEGIN BOND
M  V30 1 1 1 2
M  V30 2 1 2 3
M  V30 3 2 3 4
M  V30 4 1 4 5
M  V30 5 2 5 6
M  V30 6 1 6 7
M  V30 7 2 7 8
M  V30 8 1 8 9
M  V30 9 1 9 10
M  V30 10 1 9 11
M  V30 11 2 11 12
M  V30 12 2 11 13
M  V30 13 1 11 14
M  V30 14 2 14 15
M  V30 15 1 15 16
M  V30 16 2 16 17
M  V30 17 1 17 18
M  V30 18 2 18 19
M  V30 19 1 18 20
M  V30 20 1 20 21
M  V30 21 1 21 22
M  V30 22 2 22 23
M  V30 23 1 22 24
M  V30 24 1 24 25
M  V30 25 1 25 26
M  V30 26 1 26 27
M  V30 27 1 26 28
M  V30 28 1 26 29
M  V30 29 1 17 30
M  V30 30 2 30 31
M  V30 31 1 8 3
M  V30 32 1 31 14
M  V30 33 1 1 32
M  V30 34 1 1 33
M  V30 35 1 1 34
M  V30 36 1 4 35
M  V30 37 1 5 36
M  V30 38 1 6 37
M  V30 39 1 7 38
M  V30 40 1 10 39
M  V30 41 1 10 40
M  V30 42 1 10 41
M  V30 43 1 15 42
M  V30 44 1 16 43
M  V30 45 1 21 44
M  V30 46 1 21 45
M  V30 47 1 24 46
M  V30 48 1 25 47
M  V30 49 1 25 48
M  V30 50 1 30 49
M  V30 51 1 31 50
M  V30 END BOND
M  V30 END CTAB
M  END
>  <Dataset>  (56) 
ChEMBL_Kinases

>  <Ligand_Instance>  (56) 
nan

>  <PDB_ID>  (56) 
nan

>  <Standardized_SMILES>  (56) 
COc1ccccc1N(C)S(=O)(=O)c1ccc(C(=O)OCC(=O)NCC(F)(F)F)cc1

>  <Name>  (56) 
nan

>  <Pocket>  (56) 
nan

>  <ATP_Site>  (56) 
nan

>  <Peripheral>  (56) 
nan

>  <Num_H_Atoms_ProtBoundConf>  (56) 
nan

>  <Num_Resolved_Atoms>  (56) 
nan

>  <Num_Not_Resolved_Atoms>  (56) 
nan

$$$$
CHEMBL1391643
     RDKit          3D

  0  0  0  0  0  0  0  0  0  0999 V3000
M  V30 BEGIN CTAB
M  V30 COUNTS 35 37 0 0 0
M  V30 BEGIN ATOM
M  V30 1 C -1.242601 -2.173998 3.454475 0
M  V30 2 C -0.110478 -3.154921 3.409997 0
M  V30 3 S 0.973541 -3.039711 1.998995 0
M  V30 4 C 1.846373 -1.507525 1.842335 0
M  V30 5 N 2.967570 -1.310642 2.568628 0
M  V30 6 C 3.704637 -0.210182 2.503367 0
M  V30 7 N 3.343879 0.779322 1.682144 0
M  V30 8 C 2.221995 0.651422 0.916649 0
M  V30 9 C 1.651758 1.497907 -0.019992 0
M  V30 10 C 2.196205 2.799024 -0.344045 0
M  V30 11 N 2.630403 3.823989 -0.609416 0
M  V30 12 C 0.523803 0.823264 -0.513218 0
M  V30 13 N 0.441245 -0.363760 0.111092 0
M  V30 14 C 1.450523 -0.508248 0.987241 0
M  V30 15 C -0.521784 -1.371306 -0.096997 0
M  V30 16 C -1.473067 -1.194406 -1.236257 0
M  V30 17 C -2.133857 0.150014 -1.075474 0
M  V30 18 C -1.415455 1.003687 -2.114799 0
M  V30 19 C -0.200546 1.565045 -1.528301 0
M  V30 20 H -0.895665 -1.149866 3.122597 0
M  V30 21 H -2.051822 -2.514098 2.772119 0
M  V30 22 H -1.686201 -2.100916 4.484852 0
M  V30 23 H -0.526207 -4.216143 3.396666 0
M  V30 24 H 0.458965 -3.105112 4.379098 0
M  V30 25 H 4.598294 -0.096464 3.109088 0
M  V30 26 H -1.160213 -1.495616 0.795369 0
M  V30 27 H -0.042308 -2.382283 -0.269004 0
M  V30 28 H -0.975731 -1.365800 -2.192392 0
M  V30 29 H -2.282153 -1.975115 -1.122973 0
M  V30 30 H -1.929761 0.573594 -0.081698 0
M  V30 31 H -3.220320 0.118952 -1.225689 0
M  V30 32 H -2.123593 1.809822 -2.388929 0
M  V30 33 H -1.257684 0.429013 -3.061229 0
M  V30 34 H -0.398082 2.640093 -1.238858 0
M  V30 35 H 0.532497 1.699511 -2.386150 0
M  V30 END ATOM
M  V30 BEGIN BOND
M  V30 1 1 1 2
M  V30 2 1 2 3
M  V30 3 1 3 4
M  V30 4 2 4 5
M  V30 5 1 5 6
M  V30 6 2 6 7
M  V30 7 1 7 8
M  V30 8 1 8 9
M  V30 9 1 9 10
M  V30 10 3 10 11
M  V30 11 2 9 12
M  V30 12 1 12 13
M  V30 13 1 13 14
M  V30 14 1 13 15
M  V30 15 1 15 16
M  V30 16 1 16 17
M  V30 17 1 17 18
M  V30 18 1 18 19
M  V30 19 1 14 4
M  V30 20 2 14 8
M  V30 21 1 19 12
M  V30 22 1 1 20
M  V30 23 1 1 21
M  V30 24 1 1 22
M  V30 25 1 2 23
M  V30 26 1 2 24
M  V30 27 1 6 25
M  V30 28 1 15 26
M  V30 29 1 15 27
M  V30 30 1 16 28
M  V30 31 1 16 29
M  V30 32 1 17 30
M  V30 33 1 17 31
M  V30 34 1 18 32
M  V30 35 1 18 33
M  V30 36 1 19 34
M  V30 37 1 19 35
M  V30 END BOND
M  V30 END CTAB
M  END
>  <Dataset>  (57) 
ChEMBL_Kinases

>  <Ligand_Instance>  (57) 
nan

>  <PDB_ID>  (57) 
nan

>  <Standardized_SMILES>  (57) 
CCSc1ncnc2c(C#N)c3n(c12)CCCCC3

>  <Name>  (57) 
nan

>  <Pocket>  (57) 
nan

>  <ATP_Site>  (57) 
nan

>  <Peripheral>  (57) 
nan

>  <Num_H_Atoms_ProtBoundConf>  (57) 
nan

>  <Num_Resolved_Atoms>  (57) 
nan

>  <Num_Not_Resolved_Atoms>  (57) 
nan

$$$$
CHEMBL1391411
     RDKit          3D

  0  0  0  0  0  0  0  0  0  0999 V3000
M  V30 BEGIN CTAB
M  V30 COUNTS 34 36 0 0 0
M  V30 BEGIN ATOM
M  V30 1 C -1.050388 -2.486087 1.605436 0
M  V30 2 N 0.138856 -1.636725 1.439292 0
M  V30 3 C 1.520653 -1.843379 1.702104 0
M  V30 4 O 2.163758 -0.808545 1.393057 0
M  V30 5 C 1.917766 -3.160578 2.257315 0
M  V30 6 C 1.556392 -4.309201 1.354514 0
M  V30 7 C 2.906953 -4.876205 0.972385 0
M  V30 8 C 3.838653 -3.719366 1.264622 0
M  V30 9 O 3.290876 -3.241749 2.471141 0
M  V30 10 C -0.067931 -0.293906 0.899136 0
M  V30 11 N 0.657756 0.643234 0.637768 0
M  V30 12 N 0.248245 1.768670 0.153628 0
M  V30 13 C -0.891148 2.017919 -0.092971 0
M  V30 14 C -1.852306 3.043023 -0.612127 0
M  V30 15 C -3.201301 2.893533 -0.734345 0
M  V30 16 C -3.892095 3.977419 -1.240009 0
M  V30 17 C -3.176599 5.109147 -1.577020 0
M  V30 18 C -1.817423 5.248207 -1.449469 0
M  V30 19 N -1.174780 4.153737 -0.946163 0
M  V30 20 S -1.675279 0.369014 0.432379 0
M  V30 21 H -1.730099 -1.951696 2.332049 0
M  V30 22 H -1.614389 -2.598607 0.655736 0
M  V30 23 H -0.693064 -3.429484 2.021765 0
M  V30 24 H 1.369396 -3.296042 3.212024 0
M  V30 25 H 1.002283 -5.121015 1.870184 0
M  V30 26 H 1.045401 -3.975913 0.436177 0
M  V30 27 H 2.981756 -5.109493 -0.095335 0
M  V30 28 H 3.203592 -5.737915 1.619516 0
M  V30 29 H 4.844544 -4.108484 1.441919 0
M  V30 30 H 3.749640 -2.950021 0.487075 0
M  V30 31 H -3.606050 1.941192 -0.424500 0
M  V30 32 H -4.962179 3.867755 -1.340395 0
M  V30 33 H -3.747662 5.932166 -1.967144 0
M  V30 34 H -1.285434 6.145908 -1.721499 0
M  V30 END ATOM
M  V30 BEGIN BOND
M  V30 1 1 1 2
M  V30 2 1 2 3
M  V30 3 2 3 4
M  V30 4 1 3 5
M  V30 5 1 5 6
M  V30 6 1 6 7
M  V30 7 1 7 8
M  V30 8 1 8 9
M  V30 9 1 2 10
M  V30 10 2 10 11
M  V30 11 1 11 12
M  V30 12 2 12 13
M  V30 13 1 13 14
M  V30 14 2 14 15
M  V30 15 1 15 16
M  V30 16 2 16 17
M  V30 17 1 17 18
M  V30 18 2 18 19
M  V30 19 1 13 20
M  V30 20 1 9 5
M  V30 21 1 20 10
M  V30 22 1 19 14
M  V30 23 1 1 21
M  V30 24 1 1 22
M  V30 25 1 1 23
M  V30 26 1 5 24
M  V30 27 1 6 25
M  V30 28 1 6 26
M  V30 29 1 7 27
M  V30 30 1 7 28
M  V30 31 1 8 29
M  V30 32 1 8 30
M  V30 33 1 15 31
M  V30 34 1 16 32
M  V30 35 1 17 33
M  V30 36 1 18 34
M  V30 END BOND
M  V30 END CTAB
M  END
>  <Dataset>  (58) 
ChEMBL_Kinases

>  <Ligand_Instance>  (58) 
nan

>  <PDB_ID>  (58) 
nan

>  <Standardized_SMILES>  (58) 
CN(C(=O)C1CCCO1)c1nnc(-c2ccccn2)s1

>  <Name>  (58) 
nan

>  <Pocket>  (58) 
nan

>  <ATP_Site>  (58) 
nan

>  <Peripheral>  (58) 
nan

>  <Num_H_Atoms_ProtBoundConf>  (58) 
nan

>  <Num_Resolved_Atoms>  (58) 
nan

>  <Num_Not_Resolved_Atoms>  (58) 
nan

$$$$
CHEMBL1391385
     RDKit          3D

  0  0  0  0  0  0  0  0  0  0999 V3000
M  V30 BEGIN CTAB
M  V30 COUNTS 50 51 0 0 0
M  V30 BEGIN ATOM
M  V30 1 C 2.627573 -3.085801 -0.677025 0
M  V30 2 C 3.577801 -2.320397 -1.540328 0
M  V30 3 N 4.915288 -2.911939 -1.375925 0
M  V30 4 C 5.444188 -2.180535 -0.250455 0
M  V30 5 O 6.628647 -2.558825 0.068776 0
M  V30 6 N 4.488049 -1.202585 0.226037 0
M  V30 7 C 3.765230 -0.904016 -0.986241 0
M  V30 8 C 2.432534 -0.283183 -0.771618 0
M  V30 9 C 2.418604 1.103966 -0.236069 0
M  V30 10 C 3.001518 1.332304 1.095740 0
M  V30 11 C 2.445126 0.660774 2.278198 0
M  V30 12 C 1.054989 0.906507 2.692446 0
M  V30 13 C -0.034786 0.521393 1.800480 0
M  V30 14 O -0.496871 0.014026 0.725400 0
M  V30 15 N -1.313432 0.877947 2.395576 0
M  V30 16 C -2.609129 0.652454 1.830888 0
M  V30 17 C -3.004433 -0.759705 1.594875 0
M  V30 18 C -4.390362 -0.862866 1.004780 0
M  V30 19 C -4.641891 -0.862896 -0.352362 0
M  V30 20 C -5.950717 -0.962353 -0.774814 0
M  V30 21 C -7.029268 -1.062307 0.080053 0
M  V30 22 C -6.799530 -1.064225 1.449527 0
M  V30 23 C -5.488201 -0.964483 1.866544 0
M  V30 24 H 2.726485 -2.770457 0.375710 0
M  V30 25 H 2.779675 -4.180057 -0.692569 0
M  V30 26 H 1.560325 -2.914067 -0.962662 0
M  V30 27 H 3.341316 -2.314327 -2.601998 0
M  V30 28 H 5.268221 -3.670799 -1.994651 0
M  V30 29 H 4.702691 -1.098584 1.266523 0
M  V30 30 H 4.404612 -0.355395 -1.709730 0
M  V30 31 H 1.904221 -0.234909 -1.762075 0
M  V30 32 H 1.829654 -1.007254 -0.187574 0
M  V30 33 H 3.033661 1.730004 -0.959117 0
M  V30 34 H 1.399833 1.511990 -0.291661 0
M  V30 35 H 4.127260 1.206946 1.053883 0
M  V30 36 H 2.890178 2.452419 1.289680 0
M  V30 37 H 2.638151 -0.440609 2.196452 0
M  V30 38 H 3.117606 0.947225 3.153314 0
M  V30 39 H 0.868304 0.346852 3.662048 0
M  V30 40 H 0.882478 1.979287 3.010302 0
M  V30 41 H -1.388627 1.363462 3.357445 0
M  V30 42 H -2.620202 1.226325 0.864002 0
M  V30 43 H -3.420273 1.118394 2.442626 0
M  V30 44 H -3.057252 -1.337727 2.541080 0
M  V30 45 H -2.291663 -1.296015 0.954750 0
M  V30 46 H -3.804932 -0.785112 -1.030702 0
M  V30 47 H -6.156924 -0.963025 -1.843830 0
M  V30 48 H -8.046270 -1.139394 -0.260971 0
M  V30 49 H -7.557001 -1.136846 2.211789 0
M  V30 50 H -5.270934 -0.963019 2.942718 0
M  V30 END ATOM
M  V30 BEGIN BOND
M  V30 1 1 1 2
M  V30 2 1 2 3
M  V30 3 1 3 4
M  V30 4 2 4 5
M  V30 5 1 4 6
M  V30 6 1 6 7
M  V30 7 1 7 8
M  V30 8 1 8 9
M  V30 9 1 9 10
M  V30 10 1 10 11
M  V30 11 1 11 12
M  V30 12 1 12 13
M  V30 13 2 13 14
M  V30 14 1 13 15
M  V30 15 1 15 16
M  V30 16 1 16 17
M  V30 17 1 17 18
M  V30 18 2 18 19
M  V30 19 1 19 20
M  V30 20 2 20 21
M  V30 21 1 21 22
M  V30 22 2 22 23
M  V30 23 1 7 2
M  V30 24 1 23 18
M  V30 25 1 1 24
M  V30 26 1 1 25
M  V30 27 1 1 26
M  V30 28 1 2 27
M  V30 29 1 3 28
M  V30 30 1 6 29
M  V30 31 1 7 30
M  V30 32 1 8 31
M  V30 33 1 8 32
M  V30 34 1 9 33
M  V30 35 1 9 34
M  V30 36 1 10 35
M  V30 37 1 10 36
M  V30 38 1 11 37
M  V30 39 1 11 38
M  V30 40 1 12 39
M  V30 41 1 12 40
M  V30 42 1 15 41
M  V30 43 1 16 42
M  V30 44 1 16 43
M  V30 45 1 17 44
M  V30 46 1 17 45
M  V30 47 1 19 46
M  V30 48 1 20 47
M  V30 49 1 21 48
M  V30 50 1 22 49
M  V30 51 1 23 50
M  V30 END BOND
M  V30 END CTAB
M  END
>  <Dataset>  (59) 
ChEMBL_Kinases

>  <Ligand_Instance>  (59) 
nan

>  <PDB_ID>  (59) 
nan

>  <Standardized_SMILES>  (59) 
CC1NC(=O)NC1CCCCCC(=O)NCCc1ccccc1

>  <Name>  (59) 
nan

>  <Pocket>  (59) 
nan

>  <ATP_Site>  (59) 
nan

>  <Peripheral>  (59) 
nan

>  <Num_H_Atoms_ProtBoundConf>  (59) 
nan

>  <Num_Resolved_Atoms>  (59) 
nan

>  <Num_Not_Resolved_Atoms>  (59) 
nan

$$$$
CHEMBL1384825
     RDKit          3D

  0  0  0  0  0  0  0  0  0  0999 V3000
M  V30 BEGIN CTAB
M  V30 COUNTS 55 57 0 0 0
M  V30 BEGIN ATOM
M  V30 1 C 1.716595 -1.486027 5.956534 0
M  V30 2 C 2.685973 -1.143834 4.815008 0
M  V30 3 C 3.891239 -2.085976 4.872373 0
M  V30 4 C 3.105521 0.262563 5.021305 0
M  V30 5 O 3.987632 0.817593 4.119732 0
M  V30 6 C 3.881180 1.027149 2.777502 0
M  V30 7 C 5.060999 1.621471 2.307960 0
M  V30 8 C 5.227478 1.949934 0.956551 0
M  V30 9 C 4.215718 1.688411 0.055452 0
M  V30 10 C 3.060766 1.104571 0.526465 0
M  V30 11 C 1.979210 0.818574 -0.405094 0
M  V30 12 O 2.168371 1.128513 -1.610497 0
M  V30 13 N 0.740543 0.224590 -0.069044 0
M  V30 14 C -0.293267 -0.041703 -0.996652 0
M  V30 15 C -1.252717 0.901843 -1.242375 0
M  V30 16 C -2.238767 0.573516 -2.165200 0
M  V30 17 C -2.287833 -0.638262 -2.828373 0
M  V30 18 S -3.541407 -1.023528 -3.984732 0
M  V30 19 O -3.996844 0.209232 -4.717569 0
M  V30 20 O -3.002307 -1.970852 -5.023997 0
M  V30 21 N -4.899799 -1.763121 -3.290213 0
M  V30 22 C -5.610641 -1.007306 -2.317710 0
M  V30 23 C -5.032343 -1.138250 -0.951279 0
M  V30 24 O -4.005930 -2.031643 -0.812406 0
M  V30 25 C -4.141156 -3.223483 -1.470277 0
M  V30 26 C -4.739539 -3.107775 -2.849663 0
M  V30 27 C -1.311892 -1.593212 -2.575976 0
M  V30 28 C -0.333180 -1.255110 -1.653715 0
M  V30 29 C 2.889924 0.779001 1.853575 0
M  V30 30 H 1.950225 -0.896447 6.860850 0
M  V30 31 H 0.665288 -1.255557 5.679251 0
M  V30 32 H 1.858566 -2.569144 6.191782 0
M  V30 33 H 2.156741 -1.394978 3.905420 0
M  V30 34 H 4.388652 -2.157270 3.895564 0
M  V30 35 H 4.591903 -1.725066 5.642836 0
M  V30 36 H 3.481891 -3.086804 5.140684 0
M  V30 37 H 3.570354 0.324206 6.049055 0
M  V30 38 H 2.206861 0.912150 5.071635 0
M  V30 39 H 5.958301 1.895474 2.886508 0
M  V30 40 H 6.118574 2.408186 0.552477 0
M  V30 41 H 4.326577 1.934153 -0.987401 0
M  V30 42 H 0.572405 -0.036244 0.925098 0
M  V30 43 H -1.259346 1.862313 -0.751360 0
M  V30 44 H -3.034325 1.251336 -2.422946 0
M  V30 45 H -6.658042 -1.429871 -2.287490 0
M  V30 46 H -5.739483 0.044669 -2.642174 0
M  V30 47 H -4.631138 -0.119062 -0.677199 0
M  V30 48 H -5.848072 -1.295373 -0.187432 0
M  V30 49 H -4.671246 -3.985049 -0.829644 0
M  V30 50 H -3.126066 -3.657801 -1.610834 0
M  V30 51 H -5.773938 -3.544619 -2.760741 0
M  V30 52 H -4.231350 -3.764396 -3.594725 0
M  V30 53 H -1.300968 -2.556737 -3.065324 0
M  V30 54 H 0.425720 -2.024489 -1.471383 0
M  V30 55 H 2.023471 0.328605 2.297057 0
M  V30 END ATOM
M  V30 BEGIN BOND
M  V30 1 1 1 2
M  V30 2 1 2 3
M  V30 3 1 2 4
M  V30 4 1 4 5
M  V30 5 1 5 6
M  V30 6 2 6 7
M  V30 7 1 7 8
M  V30 8 2 8 9
M  V30 9 1 9 10
M  V30 10 1 10 11
M  V30 11 2 11 12
M  V30 12 1 11 13
M  V30 13 1 13 14
M  V30 14 2 14 15
M  V30 15 1 15 16
M  V30 16 2 16 17
M  V30 17 1 17 18
M  V30 18 2 18 19
M  V30 19 2 18 20
M  V30 20 1 18 21
M  V30 21 1 21 22
M  V30 22 1 22 23
M  V30 23 1 23 24
M  V30 24 1 24 25
M  V30 25 1 25 26
M  V30 26 1 17 27
M  V30 27 2 27 28
M  V30 28 2 10 29
M  V30 29 1 29 6
M  V30 30 1 28 14
M  V30 31 1 26 21
M  V30 32 1 1 30
M  V30 33 1 1 31
M  V30 34 1 1 32
M  V30 35 1 2 33
M  V30 36 1 3 34
M  V30 37 1 3 35
M  V30 38 1 3 36
M  V30 39 1 4 37
M  V30 40 1 4 38
M  V30 41 1 7 39
M  V30 42 1 8 40
M  V30 43 1 9 41
M  V30 44 1 13 42
M  V30 45 1 15 43
M  V30 46 1 16 44
M  V30 47 1 22 45
M  V30 48 1 22 46
M  V30 49 1 23 47
M  V30 50 1 23 48
M  V30 51 1 25 49
M  V30 52 1 25 50
M  V30 53 1 26 51
M  V30 54 1 26 52
M  V30 55 1 27 53
M  V30 56 1 28 54
M  V30 57 1 29 55
M  V30 END BOND
M  V30 END CTAB
M  END
>  <Dataset>  (60) 
ChEMBL_Kinases

>  <Ligand_Instance>  (60) 
nan

>  <PDB_ID>  (60) 
nan

>  <Standardized_SMILES>  (60) 
CC(C)COc1cccc(C(=O)Nc2ccc(S(=O)(=O)N3CCOCC3)cc2)c1

>  <Name>  (60) 
nan

>  <Pocket>  (60) 
nan

>  <ATP_Site>  (60) 
nan

>  <Peripheral>  (60) 
nan

>  <Num_H_Atoms_ProtBoundConf>  (60) 
nan

>  <Num_Resolved_Atoms>  (60) 
nan

>  <Num_Not_Resolved_Atoms>  (60) 
nan

$$$$
CHEMBL1389972
     RDKit          3D

  0  0  0  0  0  0  0  0  0  0999 V3000
M  V30 BEGIN CTAB
M  V30 COUNTS 55 58 0 0 0
M  V30 BEGIN ATOM
M  V30 1 C 5.187424 -0.012369 3.846478 0
M  V30 2 N 5.897394 1.005945 4.594621 0
M  V30 3 S 4.788601 2.241562 5.065910 0
M  V30 4 O 5.413186 3.247472 5.961482 0
M  V30 5 O 3.640490 1.603208 5.815123 0
M  V30 6 C 4.097620 2.991134 3.644553 0
M  V30 7 C 4.694006 4.088594 3.055283 0
M  V30 8 C 4.137591 4.671618 1.932082 0
M  V30 9 C 2.977395 4.179711 1.367836 0
M  V30 10 C 2.364795 3.071637 1.953115 0
M  V30 11 C 1.140986 2.415445 1.500908 0
M  V30 12 O 0.599374 1.406147 2.049319 0
M  V30 13 O 0.385819 2.800228 0.399576 0
M  V30 14 C -0.788271 2.137198 0.000566 0
M  V30 15 C -0.470809 0.735471 -0.308802 0
M  V30 16 O 0.633420 0.130895 -0.257783 0
M  V30 17 C -1.562752 -0.146949 -0.749875 0
M  V30 18 C -2.901107 0.188959 -0.916395 0
M  V30 19 C -3.616012 -0.914788 -1.343973 0
M  V30 20 C -5.073112 -0.977951 -1.638426 0
M  V30 21 N -2.740044 -1.924568 -1.443446 0
M  V30 22 C -3.120883 -3.237951 -1.862681 0
M  V30 23 C -3.515005 -3.656904 -3.117493 0
M  V30 24 C -3.843239 -4.984050 -3.308239 0
M  V30 25 C -3.789768 -5.909114 -2.280520 0
M  V30 26 C -3.391741 -5.494189 -1.006149 0
M  V30 27 C -3.059522 -4.154090 -0.810316 0
M  V30 28 O -3.432048 -6.618158 -0.190335 0
M  V30 29 C -3.398762 -7.791403 -1.018031 0
M  V30 30 O -4.053661 -7.274286 -2.173470 0
M  V30 31 C -1.515230 -1.480254 -1.092670 0
M  V30 32 C -0.285327 -2.328805 -1.082097 0
M  V30 33 C 2.942082 2.502146 3.081589 0
M  V30 34 H 4.236463 -0.331610 4.319385 0
M  V30 35 H 5.005607 0.405192 2.833606 0
M  V30 36 H 5.853534 -0.890527 3.740877 0
M  V30 37 H 6.342817 0.636149 5.443857 0
M  V30 38 H 5.606745 4.466517 3.508591 0
M  V30 39 H 4.583096 5.519131 1.463034 0
M  V30 40 H 2.469575 4.551448 0.509690 0
M  V30 41 H -1.601041 2.205229 0.767672 0
M  V30 42 H -1.116033 2.626738 -0.955053 0
M  V30 43 H -3.287459 1.190643 -0.725712 0
M  V30 44 H -5.479626 -1.901346 -1.150040 0
M  V30 45 H -5.583746 -0.067734 -1.277342 0
M  V30 46 H -5.257254 -1.112765 -2.726848 0
M  V30 47 H -3.528774 -2.885273 -3.847983 0
M  V30 48 H -4.148150 -5.287226 -4.297168 0
M  V30 49 H -2.762292 -3.920601 0.208041 0
M  V30 50 H -2.324882 -7.975749 -1.233071 0
M  V30 51 H -3.913792 -8.644798 -0.574981 0
M  V30 52 H -0.476967 -3.300820 -1.560103 0
M  V30 53 H -0.074243 -2.537728 -0.002737 0
M  V30 54 H 0.556773 -1.825587 -1.587198 0
M  V30 55 H 2.501844 1.628237 3.582995 0
M  V30 END ATOM
M  V30 BEGIN BOND
M  V30 1 1 1 2
M  V30 2 1 2 3
M  V30 3 2 3 4
M  V30 4 2 3 5
M  V30 5 1 3 6
M  V30 6 2 6 7
M  V30 7 1 7 8
M  V30 8 2 8 9
M  V30 9 1 9 10
M  V30 10 1 10 11
M  V30 11 2 11 12
M  V30 12 1 11 13
M  V30 13 1 13 14
M  V30 14 1 14 15
M  V30 15 2 15 16
M  V30 16 1 15 17
M  V30 17 1 17 18
M  V30 18 2 18 19
M  V30 19 1 19 20
M  V30 20 1 19 21
M  V30 21 1 21 22
M  V30 22 2 22 23
M  V30 23 1 23 24
M  V30 24 2 24 25
M  V30 25 1 25 26
M  V30 26 2 26 27
M  V30 27 1 26 28
M  V30 28 1 28 29
M  V30 29 1 29 30
M  V30 30 1 21 31
M  V30 31 1 31 32
M  V30 32 2 10 33
M  V30 33 1 33 6
M  V30 34 2 31 17
M  V30 35 1 27 22
M  V30 36 1 30 25
M  V30 37 1 1 34
M  V30 38 1 1 35
M  V30 39 1 1 36
M  V30 40 1 2 37
M  V30 41 1 7 38
M  V30 42 1 8 39
M  V30 43 1 9 40
M  V30 44 1 14 41
M  V30 45 1 14 42
M  V30 46 1 18 43
M  V30 47 1 20 44
M  V30 48 1 20 45
M  V30 49 1 20 46
M  V30 50 1 23 47
M  V30 51 1 24 48
M  V30 52 1 27 49
M  V30 53 1 29 50
M  V30 54 1 29 51
M  V30 55 1 32 52
M  V30 56 1 32 53
M  V30 57 1 32 54
M  V30 58 1 33 55
M  V30 END BOND
M  V30 END CTAB
M  END
>  <Dataset>  (61) 
ChEMBL_Kinases

>  <Ligand_Instance>  (61) 
nan

>  <PDB_ID>  (61) 
nan

>  <Standardized_SMILES>  (61) 
CNS(=O)(=O)c1cccc(C(=O)OCC(=O)c2cc(C)n(-c3ccc4c(c3)OCO4)c2C)c1

>  <Name>  (61) 
nan

>  <Pocket>  (61) 
nan

>  <ATP_Site>  (61) 
nan

>  <Peripheral>  (61) 
nan

>  <Num_H_Atoms_ProtBoundConf>  (61) 
nan

>  <Num_Resolved_Atoms>  (61) 
nan

>  <Num_Not_Resolved_Atoms>  (61) 
nan

$$$$
CHEMBL139
     RDKit          3D

  0  0  0  0  0  0  0  0  0  0999 V3000
M  V30 BEGIN CTAB
M  V30 COUNTS 30 31 0 0 0
M  V30 BEGIN ATOM
M  V30 1 O 0.029073 -0.186844 3.551296 0
M  V30 2 C 0.390765 -1.060817 2.674313 0
M  V30 3 O -0.689898 -1.865200 2.361219 0
M  V30 4 C 1.684277 -1.356989 1.958712 0
M  V30 5 C 1.384902 -2.000005 0.681690 0
M  V30 6 C 1.497131 -3.390027 0.649277 0
M  V30 7 C 1.194866 -4.131462 -0.504072 0
M  V30 8 C 0.786235 -3.415765 -1.595915 0
M  V30 9 C 0.671146 -2.021169 -1.593401 0
M  V30 10 C 0.976859 -1.307056 -0.427872 0
M  V30 11 N 0.797669 0.104179 -0.510425 0
M  V30 12 C -0.014267 0.938119 0.301006 0
M  V30 13 C 0.577921 1.979915 1.037618 0
M  V30 14 Cl 2.266307 2.387083 0.968443 0
M  V30 15 C -0.307695 2.710739 1.842450 0
M  V30 16 C -1.667861 2.430232 1.905509 0
M  V30 17 C -2.176433 1.397719 1.155372 0
M  V30 18 C -1.356659 0.632690 0.340135 0
M  V30 19 Cl -1.982678 -0.706115 -0.618560 0
M  V30 20 H -1.418066 -2.147325 2.996430 0
M  V30 21 H 2.259466 -2.029873 2.625969 0
M  V30 22 H 2.275793 -0.422687 1.854948 0
M  V30 23 H 1.822454 -3.938606 1.517414 0
M  V30 24 H 1.287888 -5.213721 -0.447155 0
M  V30 25 H 0.545481 -4.034194 -2.475930 0
M  V30 26 H 0.351619 -1.637054 -2.540063 0
M  V30 27 H 1.372076 0.511383 -1.303285 0
M  V30 28 H 0.147053 3.516027 2.421142 0
M  V30 29 H -2.278679 3.037021 2.544197 0
M  V30 30 H -3.223870 1.202661 1.212441 0
M  V30 END ATOM
M  V30 BEGIN BOND
M  V30 1 2 1 2
M  V30 2 1 2 3
M  V30 3 1 2 4
M  V30 4 1 4 5
M  V30 5 2 5 6
M  V30 6 1 6 7
M  V30 7 2 7 8
M  V30 8 1 8 9
M  V30 9 2 9 10
M  V30 10 1 10 11
M  V30 11 1 11 12
M  V30 12 2 12 13
M  V30 13 1 13 14
M  V30 14 1 13 15
M  V30 15 2 15 16
M  V30 16 1 16 17
M  V30 17 2 17 18
M  V30 18 1 18 19
M  V30 19 1 10 5
M  V30 20 1 18 12
M  V30 21 1 3 20
M  V30 22 1 4 21
M  V30 23 1 4 22
M  V30 24 1 6 23
M  V30 25 1 7 24
M  V30 26 1 8 25
M  V30 27 1 9 26
M  V30 28 1 11 27
M  V30 29 1 15 28
M  V30 30 1 16 29
M  V30 31 1 17 30
M  V30 END BOND
M  V30 END CTAB
M  END
>  <Dataset>  (62) 
ChEMBL_Kinases

>  <Ligand_Instance>  (62) 
nan

>  <PDB_ID>  (62) 
nan

>  <Standardized_SMILES>  (62) 
O=C(O)Cc1ccccc1Nc1c(Cl)cccc1Cl

>  <Name>  (62) 
DICLOFENAC

>  <Pocket>  (62) 
nan

>  <ATP_Site>  (62) 
nan

>  <Peripheral>  (62) 
nan

>  <Num_H_Atoms_ProtBoundConf>  (62) 
nan

>  <Num_Resolved_Atoms>  (62) 
nan

>  <Num_Not_Resolved_Atoms>  (62) 
nan

$$$$
CHEMBL1390090
     RDKit          3D

  0  0  0  0  0  0  0  0  0  0999 V3000
M  V30 BEGIN CTAB
M  V30 COUNTS 44 46 0 0 0
M  V30 BEGIN ATOM
M  V30 1 C -0.760387 -5.496292 -0.786513 0
M  V30 2 O -1.078964 -4.340420 -0.067478 0
M  V30 3 C -0.371280 -3.167204 -0.048047 0
M  V30 4 C 0.766005 -3.255490 -0.870759 0
M  V30 5 C 1.627723 -2.193010 -1.005715 0
M  V30 6 C 1.328557 -1.049753 -0.305567 0
M  V30 7 C 2.121014 0.173221 -0.324353 0
M  V30 8 O 1.844191 1.216236 0.322972 0
M  V30 9 N 3.270958 0.228578 -1.101315 0
M  V30 10 C 3.859605 1.621394 -0.904491 0
M  V30 11 N 3.645429 2.621748 -1.528610 0
M  V30 12 C 4.189648 3.796514 -1.304405 0
M  V30 13 C 3.789962 4.917450 -2.198620 0
M  V30 14 C 5.122719 3.818733 -0.189876 0
M  V30 15 S 5.039319 2.006748 0.373711 0
M  V30 16 C 0.205985 -1.034461 0.474913 0
M  V30 17 C -0.711138 -2.000242 0.691059 0
M  V30 18 S -2.174590 -2.327846 1.520437 0
M  V30 19 O -2.023291 -3.670106 2.260898 0
M  V30 20 O -3.260705 -2.590937 0.444432 0
M  V30 21 N -2.707522 -1.133896 2.566750 0
M  V30 22 C -2.789305 -1.599462 3.972742 0
M  V30 23 C -3.123129 -0.316458 4.681689 0
M  V30 24 C -2.448847 0.763851 3.902674 0
M  V30 25 C -1.844283 -0.008594 2.695460 0
M  V30 26 H -1.393515 -6.356804 -0.510919 0
M  V30 27 H -0.793285 -5.349009 -1.897862 0
M  V30 28 H 0.289740 -5.837902 -0.549272 0
M  V30 29 H 1.056696 -4.127559 -1.448326 0
M  V30 30 H 2.498427 -2.218509 -1.616806 0
M  V30 31 H 3.610325 -0.542984 -1.674114 0
M  V30 32 H 2.690491 5.079018 -2.122456 0
M  V30 33 H 3.992698 4.674198 -3.266767 0
M  V30 34 H 4.246202 5.865692 -1.880550 0
M  V30 35 H 5.592029 4.900417 -0.021232 0
M  V30 36 H -0.014868 -0.123825 0.986910 0
M  V30 37 H -1.805842 -1.939224 4.303422 0
M  V30 38 H -3.591943 -2.344997 3.990680 0
M  V30 39 H -2.770210 -0.340950 5.748336 0
M  V30 40 H -4.217911 -0.094458 4.645424 0
M  V30 41 H -3.127822 1.555343 3.556176 0
M  V30 42 H -1.607317 1.167169 4.523169 0
M  V30 43 H -0.812577 -0.294199 2.979149 0
M  V30 44 H -1.961110 0.677464 1.860636 0
M  V30 END ATOM
M  V30 BEGIN BOND
M  V30 1 1 1 2
M  V30 2 1 2 3
M  V30 3 2 3 4
M  V30 4 1 4 5
M  V30 5 2 5 6
M  V30 6 1 6 7
M  V30 7 2 7 8
M  V30 8 1 7 9
M  V30 9 1 9 10
M  V30 10 2 10 11
M  V30 11 1 11 12
M  V30 12 1 12 13
M  V30 13 2 12 14
M  V30 14 1 14 15
M  V30 15 1 6 16
M  V30 16 2 16 17
M  V30 17 1 17 18
M  V30 18 2 18 19
M  V30 19 2 18 20
M  V30 20 1 18 21
M  V30 21 1 21 22
M  V30 22 1 22 23
M  V30 23 1 23 24
M  V30 24 1 24 25
M  V30 25 1 17 3
M  V30 26 1 25 21
M  V30 27 1 15 10
M  V30 28 1 1 26
M  V30 29 1 1 27
M  V30 30 1 1 28
M  V30 31 1 4 29
M  V30 32 1 5 30
M  V30 33 1 9 31
M  V30 34 1 13 32
M  V30 35 1 13 33
M  V30 36 1 13 34
M  V30 37 1 14 35
M  V30 38 1 16 36
M  V30 39 1 22 37
M  V30 40 1 22 38
M  V30 41 1 23 39
M  V30 42 1 23 40
M  V30 43 1 24 41
M  V30 44 1 24 42
M  V30 45 1 25 43
M  V30 46 1 25 44
M  V30 END BOND
M  V30 END CTAB
M  END
>  <Dataset>  (63) 
ChEMBL_Kinases

>  <Ligand_Instance>  (63) 
nan

>  <PDB_ID>  (63) 
nan

>  <Standardized_SMILES>  (63) 
COc1ccc(C(=O)Nc2nc(C)cs2)cc1S(=O)(=O)N1CCCC1

>  <Name>  (63) 
nan

>  <Pocket>  (63) 
nan

>  <ATP_Site>  (63) 
nan

>  <Peripheral>  (63) 
nan

>  <Num_H_Atoms_ProtBoundConf>  (63) 
nan

>  <Num_Resolved_Atoms>  (63) 
nan

>  <Num_Not_Resolved_Atoms>  (63) 
nan

$$$$
CHEMBL1390109
     RDKit          3D

  0  0  0  0  0  0  0  0  0  0999 V3000
M  V30 BEGIN CTAB
M  V30 COUNTS 60 63 0 0 0
M  V30 BEGIN ATOM
M  V30 1 C 2.060594 -2.458300 3.991480 0
M  V30 2 C 3.365841 -1.968818 3.407730 0
M  V30 3 O 3.179671 -0.778038 2.687808 0
M  V30 4 C 2.687484 0.389774 3.249909 0
M  V30 5 O 2.481961 0.102911 4.449120 0
M  V30 6 C 2.473614 1.673436 2.527723 0
M  V30 7 C 3.761230 2.180536 1.953634 0
M  V30 8 C 3.640403 3.077328 0.775341 0
M  V30 9 C 2.323604 2.987711 0.043495 0
M  V30 10 N 1.719543 1.693381 0.168370 0
M  V30 11 C 1.567258 0.859565 -1.000754 0
M  V30 12 O 2.061686 1.580253 -1.904564 0
M  V30 13 C 0.956601 -0.453853 -0.886339 0
M  V30 14 C -0.407937 -0.581510 -1.036746 0
M  V30 15 C -1.077136 -1.782290 -0.945821 0
M  V30 16 C -2.516464 -1.944582 -1.100467 0
M  V30 17 C -3.041477 -3.213477 -0.981847 0
M  V30 18 C -4.424303 -3.378355 -1.129098 0
M  V30 19 C -5.269329 -2.294369 -1.390492 0
M  V30 20 O -6.582462 -2.722172 -1.491266 0
M  V30 21 C -7.658474 -1.859526 -1.746573 0
M  V30 22 C -7.741318 -0.834973 -0.638948 0
M  V30 23 C -4.708625 -1.040926 -1.502545 0
M  V30 24 C -3.352306 -0.880087 -1.357936 0
M  V30 25 N -0.312521 -2.859324 -0.695331 0
M  V30 26 C 1.013114 -2.813898 -0.537851 0
M  V30 27 C 1.708374 -3.990846 -0.281573 0
M  V30 28 C 3.064258 -3.887485 -0.128786 0
M  V30 29 C 3.734600 -2.683938 -0.219982 0
M  V30 30 C 3.044095 -1.511226 -0.475072 0
M  V30 31 C 1.668835 -1.606616 -0.631403 0
M  V30 32 C 1.372070 1.507222 1.559599 0
M  V30 33 H 1.769190 -3.449968 3.564389 0
M  V30 34 H 2.237720 -2.628010 5.088673 0
M  V30 35 H 1.217170 -1.769664 3.832962 0
M  V30 36 H 4.143639 -1.830326 4.186989 0
M  V30 37 H 3.725792 -2.738331 2.685877 0
M  V30 38 H 2.184232 2.406164 3.324842 0
M  V30 39 H 4.341437 1.275892 1.623047 0
M  V30 40 H 4.395910 2.677332 2.715474 0
M  V30 41 H 3.745085 4.129889 1.118763 0
M  V30 42 H 4.507608 2.931297 0.070614 0
M  V30 43 H 1.610355 3.779802 0.398880 0
M  V30 44 H 2.520877 3.224291 -1.015907 0
M  V30 45 H -0.970287 0.306270 -1.234799 0
M  V30 46 H -2.384357 -4.048116 -0.779820 0
M  V30 47 H -4.735530 -4.429775 -1.015493 0
M  V30 48 H -7.534001 -1.318885 -2.712482 0
M  V30 49 H -8.593242 -2.435539 -1.836110 0
M  V30 50 H -7.675790 0.205936 -1.014480 0
M  V30 51 H -6.885282 -0.966317 0.076792 0
M  V30 52 H -8.715372 -0.931232 -0.076346 0
M  V30 53 H -5.438341 -0.286662 -1.703716 0
M  V30 54 H -2.982452 0.113066 -1.455896 0
M  V30 55 H 1.235367 -4.959007 -0.200026 0
M  V30 56 H 3.655301 -4.767039 0.071602 0
M  V30 57 H 4.821147 -2.590019 -0.099100 0
M  V30 58 H 3.542438 -0.556137 -0.551609 0
M  V30 59 H 0.849671 0.531993 1.709524 0
M  V30 60 H 0.575907 2.270621 1.761408 0
M  V30 END ATOM
M  V30 BEGIN BOND
M  V30 1 1 1 2
M  V30 2 1 2 3
M  V30 3 1 3 4
M  V30 4 2 4 5
M  V30 5 1 4 6
M  V30 6 1 6 7
M  V30 7 1 7 8
M  V30 8 1 8 9
M  V30 9 1 9 10
M  V30 10 1 10 11
M  V30 11 2 11 12
M  V30 12 1 11 13
M  V30 13 2 13 14
M  V30 14 1 14 15
M  V30 15 1 15 16
M  V30 16 2 16 17
M  V30 17 1 17 18
M  V30 18 2 18 19
M  V30 19 1 19 20
M  V30 20 1 20 21
M  V30 21 1 21 22
M  V30 22 1 19 23
M  V30 23 2 23 24
M  V30 24 2 15 25
M  V30 25 1 25 26
M  V30 26 2 26 27
M  V30 27 1 27 28
M  V30 28 2 28 29
M  V30 29 1 29 30
M  V30 30 2 30 31
M  V30 31 1 10 32
M  V30 32 1 32 6
M  V30 33 1 31 13
M  V30 34 1 24 16
M  V30 35 1 31 26
M  V30 36 1 1 33
M  V30 37 1 1 34
M  V30 38 1 1 35
M  V30 39 1 2 36
M  V30 40 1 2 37
M  V30 41 1 6 38
M  V30 42 1 7 39
M  V30 43 1 7 40
M  V30 44 1 8 41
M  V30 45 1 8 42
M  V30 46 1 9 43
M  V30 47 1 9 44
M  V30 48 1 14 45
M  V30 49 1 17 46
M  V30 50 1 18 47
M  V30 51 1 21 48
M  V30 52 1 21 49
M  V30 53 1 22 50
M  V30 54 1 22 51
M  V30 55 1 22 52
M  V30 56 1 23 53
M  V30 57 1 24 54
M  V30 58 1 27 55
M  V30 59 1 28 56
M  V30 60 1 29 57
M  V30 61 1 30 58
M  V30 62 1 32 59
M  V30 63 1 32 60
M  V30 END BOND
M  V30 END CTAB
M  END
>  <Dataset>  (64) 
ChEMBL_Kinases

>  <Ligand_Instance>  (64) 
nan

>  <PDB_ID>  (64) 
nan

>  <Standardized_SMILES>  (64) 
CCOC(=O)C1CCCN(C(=O)c2cc(-c3ccc(OCC)cc3)nc3ccccc23)C1

>  <Name>  (64) 
nan

>  <Pocket>  (64) 
nan

>  <ATP_Site>  (64) 
nan

>  <Peripheral>  (64) 
nan

>  <Num_H_Atoms_ProtBoundConf>  (64) 
nan

>  <Num_Resolved_Atoms>  (64) 
nan

>  <Num_Not_Resolved_Atoms>  (64) 
nan

$$$$
CHEMBL1390244
     RDKit          3D

  0  0  0  0  0  0  0  0  0  0999 V3000
M  V30 BEGIN CTAB
M  V30 COUNTS 34 35 0 0 0
M  V30 BEGIN ATOM
M  V30 1 C 0.035881 -2.908854 5.843794 0
M  V30 2 O 1.152672 -2.016037 5.814502 0
M  V30 3 C 1.596710 -1.479938 4.595473 0
M  V30 4 C 2.696314 -0.623712 4.717188 0
M  V30 5 C 3.212151 -0.042707 3.579537 0
M  V30 6 C 2.541584 -0.397754 2.392075 0
M  V30 7 S 2.876932 0.136811 0.607580 0
M  V30 8 C 1.456444 -0.900521 -0.007748 0
M  V30 9 N 0.901900 -1.136948 -1.370582 0
M  V30 10 C -0.090392 -0.161539 -1.610995 0
M  V30 11 O -0.342306 0.689156 -0.724048 0
M  V30 12 C -0.798673 -0.201723 -2.940206 0
M  V30 13 C -1.795960 0.940466 -2.927196 0
M  V30 14 C -2.788552 0.802988 -1.818437 0
M  V30 15 C -2.472824 1.119012 -4.251893 0
M  V30 16 N 1.039738 -1.378856 0.971117 0
M  V30 17 C 1.457452 -1.232893 2.211844 0
M  V30 18 C 0.995073 -1.777989 3.393557 0
M  V30 19 H -0.045756 -3.405038 6.816044 0
M  V30 20 H -0.901959 -2.429559 5.511007 0
M  V30 21 H 0.282516 -3.680061 5.055854 0
M  V30 22 H 3.217756 -0.343573 5.613544 0
M  V30 23 H 4.036765 0.634706 3.435595 0
M  V30 24 H 1.199482 -1.880228 -2.007024 0
M  V30 25 H -1.249158 -1.184623 -3.145772 0
M  V30 26 H 0.001962 -0.033013 -3.685148 0
M  V30 27 H -1.196440 1.856231 -2.738012 0
M  V30 28 H -2.684966 1.585102 -1.023563 0
M  V30 29 H -3.852309 0.888336 -2.148075 0
M  V30 30 H -2.655624 -0.222635 -1.378227 0
M  V30 31 H -2.978499 0.226843 -4.640744 0
M  V30 32 H -1.753514 1.559325 -4.994309 0
M  V30 33 H -3.239289 1.916207 -4.116955 0
M  V30 34 H 0.143285 -2.460467 3.428467 0
M  V30 END ATOM
M  V30 BEGIN BOND
M  V30 1 1 1 2
M  V30 2 1 2 3
M  V30 3 2 3 4
M  V30 4 1 4 5
M  V30 5 2 5 6
M  V30 6 1 6 7
M  V30 7 1 7 8
M  V30 8 1 8 9
M  V30 9 1 9 10
M  V30 10 2 10 11
M  V30 11 1 10 12
M  V30 12 1 12 13
M  V30 13 1 13 14
M  V30 14 1 13 15
M  V30 15 2 8 16
M  V30 16 1 16 17
M  V30 17 2 17 18
M  V30 18 1 18 3
M  V30 19 1 17 6
M  V30 20 1 1 19
M  V30 21 1 1 20
M  V30 22 1 1 21
M  V30 23 1 4 22
M  V30 24 1 5 23
M  V30 25 1 9 24
M  V30 26 1 12 25
M  V30 27 1 12 26
M  V30 28 1 13 27
M  V30 29 1 14 28
M  V30 30 1 14 29
M  V30 31 1 14 30
M  V30 32 1 15 31
M  V30 33 1 15 32
M  V30 34 1 15 33
M  V30 35 1 18 34
M  V30 END BOND
M  V30 END CTAB
M  END
>  <Dataset>  (65) 
ChEMBL_Kinases

>  <Ligand_Instance>  (65) 
nan

>  <PDB_ID>  (65) 
nan

>  <Standardized_SMILES>  (65) 
COc1ccc2sc(NC(=O)CC(C)C)nc2c1

>  <Name>  (65) 
nan

>  <Pocket>  (65) 
nan

>  <ATP_Site>  (65) 
nan

>  <Peripheral>  (65) 
nan

>  <Num_H_Atoms_ProtBoundConf>  (65) 
nan

>  <Num_Resolved_Atoms>  (65) 
nan

>  <Num_Not_Resolved_Atoms>  (65) 
nan

$$$$
CHEMBL1390362
     RDKit          3D

  0  0  0  0  0  0  0  0  0  0999 V3000
M  V30 BEGIN CTAB
M  V30 COUNTS 35 37 0 0 0
M  V30 BEGIN ATOM
M  V30 1 C 2.763576 -3.016156 3.657913 0
M  V30 2 N 2.219506 -3.627543 2.489450 0
M  V30 3 C 0.844841 -4.000857 2.561734 0
M  V30 4 S 2.675258 -2.893579 1.024261 0
M  V30 5 O 2.180785 -3.733789 -0.113524 0
M  V30 6 O 4.183279 -2.887155 0.935882 0
M  V30 7 C 2.162505 -1.231252 0.874016 0
M  V30 8 C 2.980161 -0.197533 1.313151 0
M  V30 9 C 2.614085 1.124826 1.213173 0
M  V30 10 C 1.385637 1.420504 0.653481 0
M  V30 11 C 0.525828 0.447713 0.197887 0
M  V30 12 C -0.774999 0.758907 -0.394901 0
M  V30 13 C -1.249436 2.045949 -0.547599 0
M  V30 14 N -2.466240 1.964912 -1.122226 0
M  V30 15 C -3.355433 2.906341 -1.487978 0
M  V30 16 C -4.550810 2.502519 -2.070015 0
M  V30 17 C -4.867893 1.163075 -2.291093 0
M  V30 18 N -3.927882 0.275367 -1.898618 0
M  V30 19 C -2.771280 0.671239 -1.335180 0
M  V30 20 N -1.720482 -0.064450 -0.882544 0
M  V30 21 C 0.950136 -0.851251 0.326423 0
M  V30 22 H 2.650919 -3.697968 4.524384 0
M  V30 23 H 2.394542 -2.003080 3.881208 0
M  V30 24 H 3.866850 -2.929548 3.490246 0
M  V30 25 H 0.669951 -4.503353 3.532182 0
M  V30 26 H 0.666382 -4.786694 1.787472 0
M  V30 27 H 0.119879 -3.170377 2.505795 0
M  V30 28 H 3.950930 -0.456689 1.754057 0
M  V30 29 H 3.234286 1.950632 1.548510 0
M  V30 30 H 1.089713 2.448871 0.570457 0
M  V30 31 H -0.725975 2.950586 -0.253345 0
M  V30 32 H -3.122777 3.949837 -1.322498 0
M  V30 33 H -5.205202 3.308683 -2.333049 0
M  V30 34 H -5.815591 0.948700 -2.746801 0
M  V30 35 H 0.319116 -1.658838 -0.013020 0
M  V30 END ATOM
M  V30 BEGIN BOND
M  V30 1 1 1 2
M  V30 2 1 2 3
M  V30 3 1 2 4
M  V30 4 2 4 5
M  V30 5 2 4 6
M  V30 6 1 4 7
M  V30 7 2 7 8
M  V30 8 1 8 9
M  V30 9 2 9 10
M  V30 10 1 10 11
M  V30 11 1 11 12
M  V30 12 2 12 13
M  V30 13 1 13 14
M  V30 14 1 14 15
M  V30 15 2 15 16
M  V30 16 1 16 17
M  V30 17 2 17 18
M  V30 18 1 18 19
M  V30 19 2 19 20
M  V30 20 2 11 21
M  V30 21 1 21 7
M  V30 22 1 20 12
M  V30 23 1 19 14
M  V30 24 1 1 22
M  V30 25 1 1 23
M  V30 26 1 1 24
M  V30 27 1 3 25
M  V30 28 1 3 26
M  V30 29 1 3 27
M  V30 30 1 8 28
M  V30 31 1 9 29
M  V30 32 1 10 30
M  V30 33 1 13 31
M  V30 34 1 15 32
M  V30 35 1 16 33
M  V30 36 1 17 34
M  V30 37 1 21 35
M  V30 END BOND
M  V30 END CTAB
M  END
>  <Dataset>  (66) 
ChEMBL_Kinases

>  <Ligand_Instance>  (66) 
nan

>  <PDB_ID>  (66) 
nan

>  <Standardized_SMILES>  (66) 
CN(C)S(=O)(=O)c1cccc(-c2cn3cccnc3n2)c1

>  <Name>  (66) 
nan

>  <Pocket>  (66) 
nan

>  <ATP_Site>  (66) 
nan

>  <Peripheral>  (66) 
nan

>  <Num_H_Atoms_ProtBoundConf>  (66) 
nan

>  <Num_Resolved_Atoms>  (66) 
nan

>  <Num_Not_Resolved_Atoms>  (66) 
nan

$$$$
CHEMBL1390386
     RDKit          3D

  0  0  0  0  0  0  0  0  0  0999 V3000
M  V30 BEGIN CTAB
M  V30 COUNTS 44 48 0 0 0
M  V30 BEGIN ATOM
M  V30 1 F -1.180327 -8.236601 2.421159 0
M  V30 2 C -0.772571 -6.974271 2.068986 0
M  V30 3 C 0.583777 -6.657839 2.130117 0
M  V30 4 C 1.034640 -5.382706 1.778992 0
M  V30 5 C 0.139815 -4.420253 1.366809 0
M  V30 6 N 0.261060 -3.142531 0.975560 0
M  V30 7 C -0.950150 -2.657525 0.677002 0
M  V30 8 C -1.242427 -1.387219 0.241918 0
M  V30 9 N -0.386401 -0.287846 -0.020397 0
M  V30 10 C -0.998680 1.005619 -0.372478 0
M  V30 11 C -0.276592 2.003217 0.546260 0
M  V30 12 N 1.082749 2.168911 0.137128 0
M  V30 13 C 1.857530 3.310376 0.452519 0
M  V30 14 C 3.169746 3.532998 0.087696 0
M  V30 15 C 3.870529 4.666576 0.426478 0
M  V30 16 C 3.261336 5.659169 1.172175 0
M  V30 17 C 1.951186 5.439063 1.537553 0
M  V30 18 C 1.248686 4.301870 1.197502 0
M  V30 19 C 1.560406 1.038569 -0.629261 0
M  V30 20 C 1.059757 -0.259032 -0.000151 0
M  V30 21 N -2.580822 -1.215637 0.032024 0
M  V30 22 C -3.488633 -2.155433 0.222683 0
M  V30 23 N -3.160010 -3.371887 0.644565 0
M  V30 24 C -1.884583 -3.644904 0.879428 0
M  V30 25 C -1.196312 -4.757937 1.314828 0
M  V30 26 C -1.672331 -6.010754 1.655873 0
M  V30 27 H 1.333163 -7.391739 2.452421 0
M  V30 28 H 2.089426 -5.151032 1.831149 0
M  V30 29 H 1.184353 -2.669869 0.938838 0
M  V30 30 H -2.064702 0.941958 -0.110154 0
M  V30 31 H -0.827990 1.230734 -1.434395 0
M  V30 32 H -0.827790 2.956555 0.389443 0
M  V30 33 H -0.405725 1.635134 1.585216 0
M  V30 34 H 3.649459 2.768725 -0.490385 0
M  V30 35 H 4.905201 4.754959 0.093078 0
M  V30 36 H 3.795370 6.549983 1.444509 0
M  V30 37 H 1.505589 6.249280 2.127262 0
M  V30 38 H 0.234101 4.268887 1.552755 0
M  V30 39 H 2.674779 0.988725 -0.670394 0
M  V30 40 H 1.197096 1.168222 -1.668666 0
M  V30 41 H 1.422615 -1.054014 -0.718467 0
M  V30 42 H 1.512355 -0.344227 0.989119 0
M  V30 43 H -4.525883 -1.883402 0.016150 0
M  V30 44 H -2.744908 -6.253690 1.605142 0
M  V30 END ATOM
M  V30 BEGIN BOND
M  V30 1 1 1 2
M  V30 2 2 2 3
M  V30 3 1 3 4
M  V30 4 2 4 5
M  V30 5 1 5 6
M  V30 6 1 6 7
M  V30 7 2 7 8
M  V30 8 1 8 9
M  V30 9 1 9 10
M  V30 10 1 10 11
M  V30 11 1 11 12
M  V30 12 1 12 13
M  V30 13 2 13 14
M  V30 14 1 14 15
M  V30 15 2 15 16
M  V30 16 1 16 17
M  V30 17 2 17 18
M  V30 18 1 12 19
M  V30 19 1 19 20
M  V30 20 1 8 21
M  V30 21 2 21 22
M  V30 22 1 22 23
M  V30 23 2 23 24
M  V30 24 1 24 25
M  V30 25 2 25 26
M  V30 26 1 26 2
M  V30 27 1 25 5
M  V30 28 1 24 7
M  V30 29 1 20 9
M  V30 30 1 18 13
M  V30 31 1 3 27
M  V30 32 1 4 28
M  V30 33 1 6 29
M  V30 34 1 10 30
M  V30 35 1 10 31
M  V30 36 1 11 32
M  V30 37 1 11 33
M  V30 38 1 14 34
M  V30 39 1 15 35
M  V30 40 1 16 36
M  V30 41 1 17 37
M  V30 42 1 18 38
M  V30 43 1 19 39
M  V30 44 1 19 40
M  V30 45 1 20 41
M  V30 46 1 20 42
M  V30 47 1 22 43
M  V30 48 1 26 44
M  V30 END BOND
M  V30 END CTAB
M  END
>  <Dataset>  (67) 
ChEMBL_Kinases

>  <Ligand_Instance>  (67) 
nan

>  <PDB_ID>  (67) 
nan

>  <Standardized_SMILES>  (67) 
Fc1ccc2[nH]c3c(N4CCN(c5ccccc5)CC4)ncnc3c2c1

>  <Name>  (67) 
nan

>  <Pocket>  (67) 
nan

>  <ATP_Site>  (67) 
nan

>  <Peripheral>  (67) 
nan

>  <Num_H_Atoms_ProtBoundConf>  (67) 
nan

>  <Num_Resolved_Atoms>  (67) 
nan

>  <Num_Not_Resolved_Atoms>  (67) 
nan

$$$$
CHEMBL1391281
     RDKit          3D

  0  0  0  0  0  0  0  0  0  0999 V3000
M  V30 BEGIN CTAB
M  V30 COUNTS 36 38 0 0 0
M  V30 BEGIN ATOM
M  V30 1 C 0.086520 -2.091823 3.908657 0
M  V30 2 C -0.372095 -2.248034 2.533844 0
M  V30 3 O -1.547258 -1.751278 2.556288 0
M  V30 4 N 0.020282 -2.730217 1.267953 0
M  V30 5 C 1.306941 -3.320320 0.988609 0
M  V30 6 C 1.629785 -3.259171 -0.477378 0
M  V30 7 C 1.258921 -1.868645 -0.959026 0
M  V30 8 N 2.607458 -1.571414 -0.875812 0
M  V30 9 N 2.831944 -0.193344 -1.281772 0
M  V30 10 C 1.852388 0.804811 -0.946550 0
M  V30 11 N 1.128419 1.517197 -0.685248 0
M  V30 12 C 0.357213 2.510494 -0.632343 0
M  V30 13 C -0.274678 3.677091 -0.963703 0
M  V30 14 C -1.257818 4.170282 -0.176265 0
M  V30 15 C -1.756624 3.626928 1.010834 0
M  V30 16 C -1.168670 2.437400 1.422912 0
M  V30 17 C -0.102258 1.920537 0.545289 0
M  V30 18 S 0.859667 0.492797 0.662501 0
M  V30 19 C -0.145743 -2.095145 -1.064956 0
M  V30 20 C -0.801148 -2.738685 0.098975 0
M  V30 21 H 1.141344 -2.412247 4.082819 0
M  V30 22 H -0.523783 -2.767910 4.556713 0
M  V30 23 H -0.016740 -1.068890 4.336013 0
M  V30 24 H 1.337294 -4.353200 1.362756 0
M  V30 25 H 2.094665 -2.749259 1.522507 0
M  V30 26 H 0.956905 -4.055486 -0.975154 0
M  V30 27 H 2.659400 -3.559735 -0.659241 0
M  V30 28 H 3.557707 0.343334 -1.780499 0
M  V30 29 H 0.071812 4.148489 -1.864062 0
M  V30 30 H -1.709871 5.121235 -0.527518 0
M  V30 31 H -2.520460 4.016292 1.618345 0
M  V30 32 H -1.470210 1.905765 2.341555 0
M  V30 33 H -0.375193 -2.681063 -2.009838 0
M  V30 34 H -0.723762 -1.136862 -1.276823 0
M  V30 35 H -0.954528 -3.832529 -0.168014 0
M  V30 36 H -1.824157 -2.334266 0.302617 0
M  V30 END ATOM
M  V30 BEGIN BOND
M  V30 1 1 1 2
M  V30 2 2 2 3
M  V30 3 1 2 4
M  V30 4 1 4 5
M  V30 5 1 5 6
M  V30 6 1 6 7
M  V30 7 2 7 8 CFG=2
M  V30 8 1 8 9
M  V30 9 1 9 10
M  V30 10 2 10 11
M  V30 11 1 11 12
M  V30 12 2 12 13
M  V30 13 1 13 14
M  V30 14 2 14 15
M  V30 15 1 15 16
M  V30 16 2 16 17
M  V30 17 1 17 18
M  V30 18 1 7 19
M  V30 19 1 19 20
M  V30 20 1 20 4
M  V30 21 1 18 10
M  V30 22 1 17 12
M  V30 23 1 1 21
M  V30 24 1 1 22
M  V30 25 1 1 23
M  V30 26 1 5 24
M  V30 27 1 5 25
M  V30 28 1 6 26
M  V30 29 1 6 27
M  V30 30 1 9 28
M  V30 31 1 13 29
M  V30 32 1 14 30
M  V30 33 1 15 31
M  V30 34 1 16 32
M  V30 35 1 19 33
M  V30 36 1 19 34
M  V30 37 1 20 35
M  V30 38 1 20 36
M  V30 END BOND
M  V30 END CTAB
M  END
>  <Dataset>  (68) 
ChEMBL_Kinases

>  <Ligand_Instance>  (68) 
nan

>  <PDB_ID>  (68) 
nan

>  <Standardized_SMILES>  (68) 
CC(=O)N1CCC(=NNc2nc3ccccc3s2)CC1

>  <Name>  (68) 
nan

>  <Pocket>  (68) 
nan

>  <ATP_Site>  (68) 
nan

>  <Peripheral>  (68) 
nan

>  <Num_H_Atoms_ProtBoundConf>  (68) 
nan

>  <Num_Resolved_Atoms>  (68) 
nan

>  <Num_Not_Resolved_Atoms>  (68) 
nan

$$$$
CHEMBL1390824
     RDKit          3D

  0  0  0  0  0  0  0  0  0  0999 V3000
M  V30 BEGIN CTAB
M  V30 COUNTS 43 46 0 0 0
M  V30 BEGIN ATOM
M  V30 1 C -1.665063 -2.206225 -0.983127 0
M  V30 2 C -0.190263 -2.090016 -1.296951 0
M  V30 3 N 0.370180 -3.275393 -1.667014 0
M  V30 4 C 1.653884 -3.302233 -1.993201 0
M  V30 5 N 2.380316 -4.372718 -2.376928 0
M  V30 6 C 3.626005 -3.889686 -2.593030 0
M  V30 7 N 3.612243 -2.593291 -2.343903 0
M  V30 8 N 2.402851 -2.217006 -1.972347 0
M  V30 9 C 1.827674 -1.068950 -1.606099 0
M  V30 10 C 2.719043 0.082940 -1.641792 0
M  V30 11 C 0.530499 -0.864729 -1.238880 0
M  V30 12 C -0.309543 0.197987 -0.798206 0
M  V30 13 C 0.142426 1.424827 -0.123859 0
M  V30 14 C 0.897508 1.376801 1.097613 0
M  V30 15 O 2.142599 1.634678 1.002120 0
M  V30 16 N 0.679117 1.127410 2.472536 0
M  V30 17 C 1.507782 1.331238 3.660442 0
M  V30 18 C 1.199335 0.110734 4.498766 0
M  V30 19 C -0.284365 -0.021269 4.251244 0
M  V30 20 C -1.215366 -0.645363 5.067377 0
M  V30 21 C -2.497776 -0.612776 4.570698 0
M  V30 22 C -2.868630 -0.031559 3.389230 0
M  V30 23 C -1.855878 0.570626 2.640688 0
M  V30 24 C -0.539894 0.598700 3.038255 0
M  V30 25 H -1.847607 -2.170247 0.091031 0
M  V30 26 H -2.199487 -1.335342 -1.449785 0
M  V30 27 H -2.057224 -3.131456 -1.392599 0
M  V30 28 H 4.346050 -4.663684 -2.927422 0
M  V30 29 H 3.444460 0.101561 -0.787058 0
M  V30 30 H 3.389586 -0.020415 -2.566409 0
M  V30 31 H 2.289696 1.063856 -1.756901 0
M  V30 32 H -1.168700 -0.254263 -0.141394 0
M  V30 33 H -0.963249 0.488301 -1.708005 0
M  V30 34 H -0.796167 2.065717 0.136838 0
M  V30 35 H 0.613242 2.136792 -0.867047 0
M  V30 36 H 1.143833 2.230853 4.205461 0
M  V30 37 H 2.565392 1.468476 3.468159 0
M  V30 38 H 1.384031 0.291346 5.564894 0
M  V30 39 H 1.747107 -0.767618 4.119754 0
M  V30 40 H -0.909586 -1.098638 5.997600 0
M  V30 41 H -3.289501 -1.070420 5.130634 0
M  V30 42 H -3.859833 -0.004294 2.997547 0
M  V30 43 H -2.121757 1.025369 1.719861 0
M  V30 END ATOM
M  V30 BEGIN BOND
M  V30 1 1 1 2
M  V30 2 2 2 3
M  V30 3 1 3 4
M  V30 4 2 4 5
M  V30 5 1 5 6
M  V30 6 2 6 7
M  V30 7 1 7 8
M  V30 8 1 8 9
M  V30 9 1 9 10
M  V30 10 2 9 11
M  V30 11 1 11 12
M  V30 12 1 12 13
M  V30 13 1 13 14
M  V30 14 2 14 15
M  V30 15 1 14 16
M  V30 16 1 16 17
M  V30 17 1 17 18
M  V30 18 1 18 19
M  V30 19 2 19 20
M  V30 20 1 20 21
M  V30 21 2 21 22
M  V30 22 1 22 23
M  V30 23 2 23 24
M  V30 24 1 11 2
M  V30 25 1 24 16
M  V30 26 1 8 4
M  V30 27 1 24 19
M  V30 28 1 1 25
M  V30 29 1 1 26
M  V30 30 1 1 27
M  V30 31 1 6 28
M  V30 32 1 10 29
M  V30 33 1 10 30
M  V30 34 1 10 31
M  V30 35 1 12 32
M  V30 36 1 12 33
M  V30 37 1 13 34
M  V30 38 1 13 35
M  V30 39 1 17 36
M  V30 40 1 17 37
M  V30 41 1 18 38
M  V30 42 1 18 39
M  V30 43 1 20 40
M  V30 44 1 21 41
M  V30 45 1 22 42
M  V30 46 1 23 43
M  V30 END BOND
M  V30 END CTAB
M  END
>  <Dataset>  (69) 
ChEMBL_Kinases

>  <Ligand_Instance>  (69) 
nan

>  <PDB_ID>  (69) 
nan

>  <Standardized_SMILES>  (69) 
Cc1nc2ncnn2c(C)c1CCC(=O)N1CCc2ccccc21

>  <Name>  (69) 
nan

>  <Pocket>  (69) 
nan

>  <ATP_Site>  (69) 
nan

>  <Peripheral>  (69) 
nan

>  <Num_H_Atoms_ProtBoundConf>  (69) 
nan

>  <Num_Resolved_Atoms>  (69) 
nan

>  <Num_Not_Resolved_Atoms>  (69) 
nan

$$$$
CHEMBL1390986
     RDKit          3D

  0  0  0  0  0  0  0  0  0  0999 V3000
M  V30 BEGIN CTAB
M  V30 COUNTS 54 56 0 0 0
M  V30 BEGIN ATOM
M  V30 1 C 4.633272 -7.303124 4.226408 0
M  V30 2 C 4.462397 -6.842868 2.813714 0
M  V30 3 O 4.059604 -5.480891 2.734877 0
M  V30 4 C 3.881420 -4.984867 1.450203 0
M  V30 5 O 4.127376 -5.893801 0.591238 0
M  V30 6 C 3.473207 -3.620958 1.177979 0
M  V30 7 C 3.244386 -2.753889 2.229018 0
M  V30 8 C 2.859028 -1.472019 1.905645 0
M  V30 9 C 2.716585 -1.100788 0.581953 0
M  V30 10 N 2.313784 0.236876 0.218661 0
M  V30 11 C 0.906885 0.328560 0.124182 0
M  V30 12 O 0.311597 -0.747506 0.370049 0
M  V30 13 C 0.239491 1.576441 -0.229433 0
M  V30 14 C 0.903551 2.752962 -0.497560 0
M  V30 15 C 0.126481 3.845395 -0.816866 0
M  V30 16 C -1.272195 3.806278 -0.877365 0
M  V30 17 C -1.958845 5.075024 -1.237334 0
M  V30 18 C -1.937204 2.605476 -0.602984 0
M  V30 19 S -3.668433 2.695503 -0.718167 0
M  V30 20 O -4.040300 3.195757 -2.117044 0
M  V30 21 O -4.155198 3.796385 0.193111 0
M  V30 22 N -4.470579 1.244939 -0.362206 0
M  V30 23 C -4.287260 0.746474 0.947028 0
M  V30 24 C -4.176347 -0.775616 0.980197 0
M  V30 25 O -5.212905 -1.385693 0.323864 0
M  V30 26 C -5.336567 -0.932374 -0.960578 0
M  V30 27 C -4.412983 0.212021 -1.326208 0
M  V30 28 C -1.134284 1.534191 -0.287931 0
M  V30 29 C 2.947049 -1.971903 -0.451051 0
M  V30 30 C 3.338324 -3.275898 -0.151366 0
M  V30 31 H 4.116864 -6.668828 4.973430 0
M  V30 32 H 5.701894 -7.476438 4.491180 0
M  V30 33 H 4.148406 -8.318059 4.286132 0
M  V30 34 H 3.688198 -7.406749 2.245467 0
M  V30 35 H 5.448815 -6.900398 2.304782 0
M  V30 36 H 3.364614 -3.074429 3.261860 0
M  V30 37 H 2.660175 -0.730826 2.674445 0
M  V30 38 H 2.922013 1.063855 0.037315 0
M  V30 39 H 1.979720 2.788466 -0.452345 0
M  V30 40 H 0.674605 4.763343 -1.024605 0
M  V30 41 H -2.540356 4.965820 -2.160152 0
M  V30 42 H -1.218658 5.889386 -1.396822 0
M  V30 43 H -2.652492 5.442707 -0.449624 0
M  V30 44 H -5.127444 0.995334 1.641425 0
M  V30 45 H -3.392101 1.164249 1.405325 0
M  V30 46 H -4.194391 -1.068887 2.045020 0
M  V30 47 H -3.236968 -1.061923 0.475382 0
M  V30 48 H -6.384255 -0.535550 -1.099559 0
M  V30 49 H -5.149097 -1.743821 -1.714892 0
M  V30 50 H -4.744247 0.552341 -2.334486 0
M  V30 51 H -3.380356 -0.167436 -1.491666 0
M  V30 52 H -1.655841 0.623461 -0.083821 0
M  V30 53 H 2.849605 -1.731149 -1.511481 0
M  V30 54 H 3.530920 -3.998008 -0.945645 0
M  V30 END ATOM
M  V30 BEGIN BOND
M  V30 1 1 1 2
M  V30 2 1 2 3
M  V30 3 1 3 4
M  V30 4 2 4 5
M  V30 5 1 4 6
M  V30 6 2 6 7
M  V30 7 1 7 8
M  V30 8 2 8 9
M  V30 9 1 9 10
M  V30 10 1 10 11
M  V30 11 2 11 12
M  V30 12 1 11 13
M  V30 13 2 13 14
M  V30 14 1 14 15
M  V30 15 2 15 16
M  V30 16 1 16 17
M  V30 17 1 16 18
M  V30 18 1 18 19
M  V30 19 2 19 20
M  V30 20 2 19 21
M  V30 21 1 19 22
M  V30 22 1 22 23
M  V30 23 1 23 24
M  V30 24 1 24 25
M  V30 25 1 25 26
M  V30 26 1 26 27
M  V30 27 2 18 28
M  V30 28 1 9 29
M  V30 29 2 29 30
M  V30 30 1 30 6
M  V30 31 1 28 13
M  V30 32 1 27 22
M  V30 33 1 1 31
M  V30 34 1 1 32
M  V30 35 1 1 33
M  V30 36 1 2 34
M  V30 37 1 2 35
M  V30 38 1 7 36
M  V30 39 1 8 37
M  V30 40 1 10 38
M  V30 41 1 14 39
M  V30 42 1 15 40
M  V30 43 1 17 41
M  V30 44 1 17 42
M  V30 45 1 17 43
M  V30 46 1 23 44
M  V30 47 1 23 45
M  V30 48 1 24 46
M  V30 49 1 24 47
M  V30 50 1 26 48
M  V30 51 1 26 49
M  V30 52 1 27 50
M  V30 53 1 27 51
M  V30 54 1 28 52
M  V30 55 1 29 53
M  V30 56 1 30 54
M  V30 END BOND
M  V30 END CTAB
M  END
>  <Dataset>  (70) 
ChEMBL_Kinases

>  <Ligand_Instance>  (70) 
nan

>  <PDB_ID>  (70) 
nan

>  <Standardized_SMILES>  (70) 
CCOC(=O)c1ccc(NC(=O)c2ccc(C)c(S(=O)(=O)N3CCOCC3)c2)cc1

>  <Name>  (70) 
nan

>  <Pocket>  (70) 
nan

>  <ATP_Site>  (70) 
nan

>  <Peripheral>  (70) 
nan

>  <Num_H_Atoms_ProtBoundConf>  (70) 
nan

>  <Num_Resolved_Atoms>  (70) 
nan

>  <Num_Not_Resolved_Atoms>  (70) 
nan

$$$$
CHEMBL1391039
     RDKit          3D

  0  0  0  0  0  0  0  0  0  0999 V3000
M  V30 BEGIN CTAB
M  V30 COUNTS 45 46 0 0 0
M  V30 BEGIN ATOM
M  V30 1 C 2.024999 -4.200063 4.296854 0
M  V30 2 O 0.795777 -4.534486 3.705880 0
M  V30 3 C 0.418651 -3.904705 2.519269 0
M  V30 4 C 1.204149 -2.957014 1.889444 0
M  V30 5 C 0.731884 -2.398104 0.718831 0
M  V30 6 N 1.532453 -1.405961 0.041055 0
M  V30 7 C 1.201883 -0.104653 0.515228 0
M  V30 8 O 0.296515 -0.190911 1.399347 0
M  V30 9 C 1.872113 1.084042 -0.011539 0
M  V30 10 C 2.855588 1.274097 -0.960841 0
M  V30 11 C 3.030841 2.641836 -0.978651 0
M  V30 12 C 2.159424 3.224967 -0.052238 0
M  V30 13 C 2.168287 4.702571 0.107197 0
M  V30 14 O 1.250343 5.224604 -0.799093 0
M  V30 15 C 0.006485 4.716264 -0.517148 0
M  V30 16 C -1.064303 5.235237 -1.454569 0
M  V30 17 F -1.127692 6.612176 -1.344728 0
M  V30 18 F -2.290082 4.757242 -0.999656 0
M  V30 19 F -0.856102 4.840277 -2.758193 0
M  V30 20 O 1.497875 2.237330 0.488760 0
M  V30 21 C -0.479432 -2.735961 0.147817 0
M  V30 22 C -1.268951 -3.668021 0.752750 0
M  V30 23 O -2.501489 -4.058019 0.235173 0
M  V30 24 C -2.860361 -3.393260 -0.983871 0
M  V30 25 C -0.787906 -4.224407 1.927403 0
M  V30 26 O -1.598416 -5.183205 2.551107 0
M  V30 27 C -2.567420 -4.761820 3.522308 0
M  V30 28 H 2.878469 -4.158693 3.594340 0
M  V30 29 H 2.284799 -4.970933 5.079841 0
M  V30 30 H 1.962844 -3.205440 4.810614 0
M  V30 31 H 2.163381 -2.680727 2.329632 0
M  V30 32 H 2.273717 -1.553137 -0.707554 0
M  V30 33 H 3.291456 0.448266 -1.484833 0
M  V30 34 H 3.756086 3.114323 -1.640987 0
M  V30 35 H 3.187284 5.115105 -0.001725 0
M  V30 36 H 1.770259 4.873893 1.150793 0
M  V30 37 H -0.288441 5.039528 0.501738 0
M  V30 38 H -0.072365 3.612473 -0.534400 0
M  V30 39 H -0.805128 -2.262818 -0.779867 0
M  V30 40 H -2.891562 -2.290087 -0.844252 0
M  V30 41 H -2.048057 -3.586061 -1.724072 0
M  V30 42 H -3.838650 -3.703523 -1.365800 0
M  V30 43 H -2.886235 -5.632634 4.115600 0
M  V30 44 H -3.457043 -4.317342 3.030369 0
M  V30 45 H -2.097091 -4.045250 4.232814 0
M  V30 END ATOM
M  V30 BEGIN BOND
M  V30 1 1 1 2
M  V30 2 1 2 3
M  V30 3 2 3 4
M  V30 4 1 4 5
M  V30 5 1 5 6
M  V30 6 1 6 7
M  V30 7 2 7 8
M  V30 8 1 7 9
M  V30 9 2 9 10
M  V30 10 1 10 11
M  V30 11 2 11 12
M  V30 12 1 12 13
M  V30 13 1 13 14
M  V30 14 1 14 15
M  V30 15 1 15 16
M  V30 16 1 16 17
M  V30 17 1 16 18
M  V30 18 1 16 19
M  V30 19 1 12 20
M  V30 20 2 5 21
M  V30 21 1 21 22
M  V30 22 1 22 23
M  V30 23 1 23 24
M  V30 24 2 22 25
M  V30 25 1 25 26
M  V30 26 1 26 27
M  V30 27 1 25 3
M  V30 28 1 20 9
M  V30 29 1 1 28
M  V30 30 1 1 29
M  V30 31 1 1 30
M  V30 32 1 4 31
M  V30 33 1 6 32
M  V30 34 1 10 33
M  V30 35 1 11 34
M  V30 36 1 13 35
M  V30 37 1 13 36
M  V30 38 1 15 37
M  V30 39 1 15 38
M  V30 40 1 21 39
M  V30 41 1 24 40
M  V30 42 1 24 41
M  V30 43 1 24 42
M  V30 44 1 27 43
M  V30 45 1 27 44
M  V30 46 1 27 45
M  V30 END BOND
M  V30 END CTAB
M  END
>  <Dataset>  (71) 
ChEMBL_Kinases

>  <Ligand_Instance>  (71) 
nan

>  <PDB_ID>  (71) 
nan

>  <Standardized_SMILES>  (71) 
COc1cc(NC(=O)c2ccc(COCC(F)(F)F)o2)cc(OC)c1OC

>  <Name>  (71) 
nan

>  <Pocket>  (71) 
nan

>  <ATP_Site>  (71) 
nan

>  <Peripheral>  (71) 
nan

>  <Num_H_Atoms_ProtBoundConf>  (71) 
nan

>  <Num_Resolved_Atoms>  (71) 
nan

>  <Num_Not_Resolved_Atoms>  (71) 
nan

$$$$
CHEMBL1391041
     RDKit          3D

  0  0  0  0  0  0  0  0  0  0999 V3000
M  V30 BEGIN CTAB
M  V30 COUNTS 34 37 0 0 0
M  V30 BEGIN ATOM
M  V30 1 N 2.907336 -0.242290 3.413326 0
M  V30 2 C 2.298467 -1.057409 2.666742 0
M  V30 3 O 2.763972 -2.283607 2.882602 0
M  V30 4 C 2.328003 -3.347305 2.255896 0
M  V30 5 C 2.789347 -4.631000 2.456688 0
M  V30 6 C 2.274771 -5.697879 1.753185 0
M  V30 7 C 1.276785 -5.543730 0.815474 0
M  V30 8 C 0.786448 -4.275156 0.583677 0
M  V30 9 C 1.330197 -3.228573 1.311564 0
M  V30 10 C 0.796983 -1.985483 1.033321 0
M  V30 11 C 1.306513 -0.920615 1.731547 0
M  V30 12 C 0.780444 0.480521 1.490539 0
M  V30 13 N -0.091627 0.715802 0.690507 0
M  V30 14 C -0.591546 1.911331 0.435403 0
M  V30 15 C -1.647103 2.154049 -0.541035 0
M  V30 16 C -2.218646 1.149694 -1.287672 0
M  V30 17 C -3.217133 1.298076 -2.226894 0
M  V30 18 C -3.692716 2.574632 -2.442856 0
M  V30 19 Cl -4.962632 2.780969 -3.634015 0
M  V30 20 C -3.148913 3.614278 -1.716332 0
M  V30 21 C -2.150957 3.407655 -0.788800 0
M  V30 22 C -0.014795 2.983466 1.200092 0
M  V30 23 S 1.235966 1.997122 2.223024 0
M  V30 24 H 2.846769 0.759742 3.546929 0
M  V30 25 H 3.579696 -4.757139 3.198532 0
M  V30 26 H 2.683339 -6.678460 1.960994 0
M  V30 27 H 0.860764 -6.368742 0.253909 0
M  V30 28 H 0.002967 -4.117131 -0.145390 0
M  V30 29 H 0.016780 -1.792529 0.314141 0
M  V30 30 H -1.864004 0.128862 -1.139853 0
M  V30 31 H -3.603615 0.432962 -2.767459 0
M  V30 32 H -3.532668 4.618876 -1.895484 0
M  V30 33 H -1.794412 4.282728 -0.275338 0
M  V30 34 H -0.336386 4.092800 1.101278 0
M  V30 END ATOM
M  V30 BEGIN BOND
M  V30 1 2 1 2 CFG=2
M  V30 2 1 2 3
M  V30 3 1 3 4
M  V30 4 2 4 5
M  V30 5 1 5 6
M  V30 6 2 6 7
M  V30 7 1 7 8
M  V30 8 2 8 9
M  V30 9 1 9 10
M  V30 10 2 10 11
M  V30 11 1 11 12
M  V30 12 2 12 13
M  V30 13 1 13 14
M  V30 14 1 14 15
M  V30 15 2 15 16
M  V30 16 1 16 17
M  V30 17 2 17 18
M  V30 18 1 18 19
M  V30 19 1 18 20
M  V30 20 2 20 21
M  V30 21 2 14 22
M  V30 22 1 22 23
M  V30 23 1 11 2
M  V30 24 1 23 12
M  V30 25 1 9 4
M  V30 26 1 21 15
M  V30 27 1 1 24
M  V30 28 1 5 25
M  V30 29 1 6 26
M  V30 30 1 7 27
M  V30 31 1 8 28
M  V30 32 1 10 29
M  V30 33 1 16 30
M  V30 34 1 17 31
M  V30 35 1 20 32
M  V30 36 1 21 33
M  V30 37 1 22 34
M  V30 END BOND
M  V30 END CTAB
M  END
>  <Dataset>  (72) 
ChEMBL_Kinases

>  <Ligand_Instance>  (72) 
nan

>  <PDB_ID>  (72) 
nan

>  <Standardized_SMILES>  (72) 
N=c1oc2ccccc2cc1-c1nc(-c2ccc(Cl)cc2)cs1

>  <Name>  (72) 
nan

>  <Pocket>  (72) 
nan

>  <ATP_Site>  (72) 
nan

>  <Peripheral>  (72) 
nan

>  <Num_H_Atoms_ProtBoundConf>  (72) 
nan

>  <Num_Resolved_Atoms>  (72) 
nan

>  <Num_Not_Resolved_Atoms>  (72) 
nan

$$$$
CHEMBL1391062
     RDKit          3D

  0  0  0  0  0  0  0  0  0  0999 V3000
M  V30 BEGIN CTAB
M  V30 COUNTS 46 49 0 0 0
M  V30 BEGIN ATOM
M  V30 1 C 0.808195 -6.043392 2.879746 0
M  V30 2 C 1.681768 -4.830346 2.563709 0
M  V30 3 C 0.778924 -3.615997 2.492382 0
M  V30 4 C 1.608952 -2.397277 2.181410 0
M  V30 5 C 0.812937 -1.118728 2.081235 0
M  V30 6 N -0.194988 -1.118267 1.074645 0
M  V30 7 C 0.128058 -0.745139 -0.199582 0
M  V30 8 S 1.696982 -0.233052 -0.868426 0
M  V30 9 C 1.921646 1.537451 -0.732451 0
M  V30 10 N 2.701655 2.312515 -0.993965 0
M  V30 11 C 2.742465 3.618497 -0.834784 0
M  V30 12 C 3.761256 4.495513 -1.194854 0
M  V30 13 C 3.602568 5.827589 -0.938129 0
M  V30 14 C 2.511643 6.422925 -0.342947 0
M  V30 15 C 1.493823 5.530925 0.014616 0
M  V30 16 C 1.661587 4.146798 -0.253499 0
M  V30 17 S 0.652005 2.763137 0.033010 0
M  V30 18 N -0.946478 -0.798431 -1.004355 0
M  V30 19 C -1.997956 -1.205195 -0.284316 0
M  V30 20 C -1.505180 -1.392276 0.984467 0
M  V30 21 C -2.309434 -1.811449 2.021324 0
M  V30 22 O -1.891834 -1.988122 3.185119 0
M  V30 23 N -3.605458 -2.040467 1.771012 0
M  V30 24 C -4.070807 -1.854334 0.528125 0
M  V30 25 O -5.292556 -2.072368 0.299819 0
M  V30 26 N -3.301629 -1.442279 -0.508123 0
M  V30 27 C -3.808886 -1.241539 -1.852912 0
M  V30 28 H 1.385993 -6.977201 2.830548 0
M  V30 29 H 0.345722 -5.863327 3.875366 0
M  V30 30 H -0.028714 -6.012520 2.139505 0
M  V30 31 H 2.209396 -5.013997 1.600230 0
M  V30 32 H 2.462157 -4.692609 3.330468 0
M  V30 33 H -0.037627 -3.806510 1.790165 0
M  V30 34 H 0.386895 -3.472869 3.521864 0
M  V30 35 H 2.349026 -2.318641 3.018341 0
M  V30 36 H 2.232029 -2.553307 1.271414 0
M  V30 37 H 1.560679 -0.302228 1.928626 0
M  V30 38 H 0.401639 -0.951147 3.111373 0
M  V30 39 H 4.710237 4.234547 -1.677501 0
M  V30 40 H 4.381623 6.560632 -1.204990 0
M  V30 41 H 2.393034 7.475242 -0.143315 0
M  V30 42 H 0.575235 5.843149 0.489958 0
M  V30 43 H -4.235887 -2.360576 2.545914 0
M  V30 44 H -3.630559 -2.125948 -2.510544 0
M  V30 45 H -3.311597 -0.346433 -2.324369 0
M  V30 46 H -4.900243 -1.069418 -1.807426 0
M  V30 END ATOM
M  V30 BEGIN BOND
M  V30 1 1 1 2
M  V30 2 1 2 3
M  V30 3 1 3 4
M  V30 4 1 4 5
M  V30 5 1 5 6
M  V30 6 1 6 7
M  V30 7 1 7 8
M  V30 8 1 8 9
M  V30 9 2 9 10
M  V30 10 1 10 11
M  V30 11 2 11 12
M  V30 12 1 12 13
M  V30 13 2 13 14
M  V30 14 1 14 15
M  V30 15 2 15 16
M  V30 16 1 16 17
M  V30 17 2 7 18
M  V30 18 1 18 19
M  V30 19 2 19 20
M  V30 20 1 20 21
M  V30 21 2 21 22
M  V30 22 1 21 23
M  V30 23 1 23 24
M  V30 24 2 24 25
M  V30 25 1 24 26
M  V30 26 1 26 27
M  V30 27 1 20 6
M  V30 28 1 17 9
M  V30 29 1 26 19
M  V30 30 1 16 11
M  V30 31 1 1 28
M  V30 32 1 1 29
M  V30 33 1 1 30
M  V30 34 1 2 31
M  V30 35 1 2 32
M  V30 36 1 3 33
M  V30 37 1 3 34
M  V30 38 1 4 35
M  V30 39 1 4 36
M  V30 40 1 5 37
M  V30 41 1 5 38
M  V30 42 1 12 39
M  V30 43 1 13 40
M  V30 44 1 14 41
M  V30 45 1 15 42
M  V30 46 1 23 43
M  V30 47 1 27 44
M  V30 48 1 27 45
M  V30 49 1 27 46
M  V30 END BOND
M  V30 END CTAB
M  END
>  <Dataset>  (73) 
ChEMBL_Kinases

>  <Ligand_Instance>  (73) 
nan

>  <PDB_ID>  (73) 
nan

>  <Standardized_SMILES>  (73) 
CCCCCn1c(Sc2nc3ccccc3s2)nc2c1c(=O)[nH]c(=O)n2C

>  <Name>  (73) 
nan

>  <Pocket>  (73) 
nan

>  <ATP_Site>  (73) 
nan

>  <Peripheral>  (73) 
nan

>  <Num_H_Atoms_ProtBoundConf>  (73) 
nan

>  <Num_Resolved_Atoms>  (73) 
nan

>  <Num_Not_Resolved_Atoms>  (73) 
nan

$$$$
CHEMBL1391065
     RDKit          3D

  0  0  0  0  0  0  0  0  0  0999 V3000
M  V30 BEGIN CTAB
M  V30 COUNTS 36 38 0 0 0
M  V30 BEGIN ATOM
M  V30 1 C 0.325448 -6.440569 3.490455 0
M  V30 2 C 0.282982 -5.115377 2.829919 0
M  V30 3 O -0.791169 -4.480110 2.944431 0
M  V30 4 N 1.363005 -4.557266 2.102518 0
M  V30 5 C 1.446390 -3.313491 1.432134 0
M  V30 6 C 2.624121 -3.008046 0.794056 0
M  V30 7 C 2.762066 -1.812399 0.125952 0
M  V30 8 C 1.770271 -0.859010 0.043968 0
M  V30 9 C 1.979655 0.389941 -0.680619 0
M  V30 10 C 3.158369 0.677032 -1.309710 0
M  V30 11 S 2.831019 2.389968 -2.052080 0
M  V30 12 C 1.127399 2.357198 -1.338351 0
M  V30 13 N 0.160494 3.485746 -1.520096 0
M  V30 14 C -1.131911 3.375204 -0.934788 0
M  V30 15 C -2.007308 4.426296 -1.114210 0
M  V30 16 C -3.233094 4.212090 -0.503134 0
M  V30 17 C -3.579732 3.088987 0.213102 0
M  V30 18 C -2.648147 2.087609 0.344111 0
M  V30 19 N -1.449797 2.268576 -0.238737 0
M  V30 20 N 1.099371 1.347372 -0.810283 0
M  V30 21 C 0.592668 -1.177144 0.688481 0
M  V30 22 C 0.451928 -2.372369 1.357511 0
M  V30 23 H -0.324290 -7.174881 2.976260 0
M  V30 24 H -0.120344 -6.322167 4.521359 0
M  V30 25 H 1.377350 -6.826173 3.549484 0
M  V30 26 H 2.180076 -5.205447 2.099799 0
M  V30 27 H 3.454307 -3.715674 0.816430 0
M  V30 28 H 3.712606 -1.638502 -0.351874 0
M  V30 29 H 4.174094 0.046077 -1.402471 0
M  V30 30 H 0.489492 4.286115 -2.064141 0
M  V30 31 H -1.750435 5.300024 -1.666173 0
M  V30 32 H -4.003883 4.983399 -0.582259 0
M  V30 33 H -4.559663 2.993718 0.662761 0
M  V30 34 H -2.834929 1.171917 0.888855 0
M  V30 35 H -0.222090 -0.458743 0.654284 0
M  V30 36 H -0.492651 -2.536768 1.828039 0
M  V30 END ATOM
M  V30 BEGIN BOND
M  V30 1 1 1 2
M  V30 2 2 2 3
M  V30 3 1 2 4
M  V30 4 1 4 5
M  V30 5 2 5 6
M  V30 6 1 6 7
M  V30 7 2 7 8
M  V30 8 1 8 9
M  V30 9 2 9 10
M  V30 10 1 10 11
M  V30 11 1 11 12
M  V30 12 1 12 13
M  V30 13 1 13 14
M  V30 14 2 14 15
M  V30 15 1 15 16
M  V30 16 2 16 17
M  V30 17 1 17 18
M  V30 18 2 18 19
M  V30 19 2 12 20
M  V30 20 1 8 21
M  V30 21 2 21 22
M  V30 22 1 22 5
M  V30 23 1 20 9
M  V30 24 1 19 14
M  V30 25 1 1 23
M  V30 26 1 1 24
M  V30 27 1 1 25
M  V30 28 1 4 26
M  V30 29 1 6 27
M  V30 30 1 7 28
M  V30 31 1 10 29
M  V30 32 1 13 30
M  V30 33 1 15 31
M  V30 34 1 16 32
M  V30 35 1 17 33
M  V30 36 1 18 34
M  V30 37 1 21 35
M  V30 38 1 22 36
M  V30 END BOND
M  V30 END CTAB
M  END
>  <Dataset>  (74) 
ChEMBL_Kinases

>  <Ligand_Instance>  (74) 
nan

>  <PDB_ID>  (74) 
nan

>  <Standardized_SMILES>  (74) 
CC(=O)Nc1ccc(-c2csc(Nc3ccccn3)n2)cc1

>  <Name>  (74) 
nan

>  <Pocket>  (74) 
nan

>  <ATP_Site>  (74) 
nan

>  <Peripheral>  (74) 
nan

>  <Num_H_Atoms_ProtBoundConf>  (74) 
nan

>  <Num_Resolved_Atoms>  (74) 
nan

>  <Num_Not_Resolved_Atoms>  (74) 
nan

$$$$
CHEMBL1391228
     RDKit          3D

  0  0  0  0  0  0  0  0  0  0999 V3000
M  V30 BEGIN CTAB
M  V30 COUNTS 50 53 0 0 0
M  V30 BEGIN ATOM
M  V30 1 C 1.620203 -4.702261 0.703768 0
M  V30 2 O 1.836742 -3.405178 0.205967 0
M  V30 3 C 3.077344 -3.096325 -0.324326 0
M  V30 4 C 4.087320 -4.027473 -0.371628 0
M  V30 5 C 5.255445 -3.587516 -0.920333 0
M  V30 6 C 5.471836 -2.317940 -1.409121 0
M  V30 7 F 6.684114 -1.988709 -1.937252 0
M  V30 8 C 4.424448 -1.431600 -1.334082 0
M  V30 9 C 3.207912 -1.807380 -0.789217 0
M  V30 10 C 2.252886 -0.738196 -0.798950 0
M  V30 11 O 2.422306 0.423395 -1.246441 0
M  V30 12 C 0.861941 -0.443551 -0.393394 0
M  V30 13 C 0.431214 0.935709 -0.770606 0
M  V30 14 C 0.816766 1.992650 0.222457 0
M  V30 15 C 0.573094 1.552633 1.645693 0
M  V30 16 N 0.004902 0.252136 1.730420 0
M  V30 17 C -0.970727 0.004819 2.695948 0
M  V30 18 C -2.208155 0.801957 2.638577 0
M  V30 19 C -2.719988 1.867229 3.352303 0
M  V30 20 N -3.935444 2.217473 2.862176 0
M  V30 21 C -4.247204 1.397444 1.824198 0
M  V30 22 C -5.370597 1.366502 1.015447 0
M  V30 23 C -5.438350 0.417711 0.017136 0
M  V30 24 C -4.410104 -0.468193 -0.159234 0
M  V30 25 C -3.304863 -0.408876 0.665444 0
M  V30 26 C -3.184889 0.524565 1.684379 0
M  V30 27 C 0.596496 -0.805256 1.041521 0
M  V30 28 H 2.435020 -4.958203 1.432591 0
M  V30 29 H 1.648159 -5.494159 -0.074130 0
M  V30 30 H 0.656781 -4.718147 1.285040 0
M  V30 31 H 3.898959 -5.010406 0.013717 0
M  V30 32 H 6.082330 -4.291975 -0.977880 0
M  V30 33 H 4.666534 -0.436832 -1.741759 0
M  V30 34 H 0.232103 -1.140268 -1.024604 0
M  V30 35 H -0.689677 0.953802 -0.838896 0
M  V30 36 H 0.781518 1.191040 -1.780315 0
M  V30 37 H 1.880327 2.258461 0.073075 0
M  V30 38 H 0.224667 2.912768 0.046689 0
M  V30 39 H 1.553461 1.531695 2.159800 0
M  V30 40 H -0.048750 2.291983 2.180880 0
M  V30 41 H -0.516734 0.216799 3.708282 0
M  V30 42 H -1.190756 -1.083114 2.718892 0
M  V30 43 H -2.151016 2.292246 4.171966 0
M  V30 44 H -4.510538 3.008357 3.257569 0
M  V30 45 H -6.199096 2.072348 1.149807 0
M  V30 46 H -6.275388 0.318350 -0.661789 0
M  V30 47 H -4.419345 -1.235030 -0.934271 0
M  V30 48 H -2.493669 -1.122712 0.511155 0
M  V30 49 H -0.076813 -1.684943 1.093570 0
M  V30 50 H 1.578796 -1.039265 1.549028 0
M  V30 END ATOM
M  V30 BEGIN BOND
M  V30 1 1 1 2
M  V30 2 1 2 3
M  V30 3 2 3 4
M  V30 4 1 4 5
M  V30 5 2 5 6
M  V30 6 1 6 7
M  V30 7 1 6 8
M  V30 8 2 8 9
M  V30 9 1 9 10
M  V30 10 2 10 11
M  V30 11 1 10 12
M  V30 12 1 12 13
M  V30 13 1 13 14
M  V30 14 1 14 15
M  V30 15 1 15 16
M  V30 16 1 16 17
M  V30 17 1 17 18
M  V30 18 2 18 19
M  V30 19 1 19 20
M  V30 20 1 20 21
M  V30 21 2 21 22
M  V30 22 1 22 23
M  V30 23 2 23 24
M  V30 24 1 24 25
M  V30 25 2 25 26
M  V30 26 1 16 27
M  V30 27 1 9 3
M  V30 28 1 27 12
M  V30 29 1 26 18
M  V30 30 1 26 21
M  V30 31 1 1 28
M  V30 32 1 1 29
M  V30 33 1 1 30
M  V30 34 1 4 31
M  V30 35 1 5 32
M  V30 36 1 8 33
M  V30 37 1 12 34
M  V30 38 1 13 35
M  V30 39 1 13 36
M  V30 40 1 14 37
M  V30 41 1 14 38
M  V30 42 1 15 39
M  V30 43 1 15 40
M  V30 44 1 17 41
M  V30 45 1 17 42
M  V30 46 1 19 43
M  V30 47 1 20 44
M  V30 48 1 22 45
M  V30 49 1 23 46
M  V30 50 1 24 47
M  V30 51 1 25 48
M  V30 52 1 27 49
M  V30 53 1 27 50
M  V30 END BOND
M  V30 END CTAB
M  END
>  <Dataset>  (75) 
ChEMBL_Kinases

>  <Ligand_Instance>  (75) 
nan

>  <PDB_ID>  (75) 
nan

>  <Standardized_SMILES>  (75) 
COc1ccc(F)cc1C(=O)C1CCCN(Cc2c[nH]c3ccccc23)C1

>  <Name>  (75) 
nan

>  <Pocket>  (75) 
nan

>  <ATP_Site>  (75) 
nan

>  <Peripheral>  (75) 
nan

>  <Num_H_Atoms_ProtBoundConf>  (75) 
nan

>  <Num_Resolved_Atoms>  (75) 
nan

>  <Num_Not_Resolved_Atoms>  (75) 
nan

$$$$
CHEMBL1391280
     RDKit          3D

  0  0  0  0  0  0  0  0  0  0999 V3000
M  V30 BEGIN CTAB
M  V30 COUNTS 56 59 0 0 0
M  V30 BEGIN ATOM
M  V30 1 C 6.558072 -4.684673 1.957292 0
M  V30 2 O 5.414827 -4.183021 1.320799 0
M  V30 3 C 4.621960 -3.177183 1.835327 0
M  V30 4 C 4.963300 -2.620249 3.050158 0
M  V30 5 C 4.146496 -1.617465 3.531336 0
M  V30 6 C 3.050632 -1.225690 2.793375 0
M  V30 7 C 2.694043 -1.769342 1.579465 0
M  V30 8 C 1.535692 -1.356167 0.801717 0
M  V30 9 C 0.618955 -0.427028 1.072421 0
M  V30 10 C -0.460266 -0.194244 0.120068 0
M  V30 11 C -1.412439 0.667873 0.413395 0
M  V30 12 C -2.518148 0.975203 -0.458344 0
M  V30 13 O -2.883355 0.620179 -1.583152 0
M  V30 14 N -3.315641 1.922267 0.236568 0
M  V30 15 C -4.535350 2.654172 -0.005894 0
M  V30 16 C -4.692300 3.894091 -0.589868 0
M  V30 17 C -5.971913 4.395804 -0.716752 0
M  V30 18 C -7.074944 3.670527 -0.267726 0
M  V30 19 C -6.913730 2.412639 0.324381 0
M  V30 20 C -5.623955 1.922235 0.444961 0
M  V30 21 N -2.692314 2.150699 1.459267 0
M  V30 22 C -1.612127 1.467592 1.611898 0
M  V30 23 C -0.743448 1.507072 2.815152 0
M  V30 24 C -0.516815 -0.939582 -1.128952 0
M  V30 25 C 0.451353 -0.963956 -2.112400 0
M  V30 26 C 0.391341 -1.708360 -3.266685 0
M  V30 27 C -0.713456 -2.503447 -3.485465 0
M  V30 28 Br -0.716502 -3.500841 -5.107092 0
M  V30 29 C -1.731313 -2.542743 -2.556881 0
M  V30 30 C -1.598817 -1.768451 -1.423720 0
M  V30 31 C 3.519742 -2.761625 1.124167 0
M  V30 32 O 3.262419 -3.392274 -0.097311 0
M  V30 33 C 2.434871 -4.544618 -0.077462 0
M  V30 34 H 7.403595 -4.037325 1.699879 0
M  V30 35 H 6.370771 -4.785078 3.047842 0
M  V30 36 H 6.820874 -5.712762 1.608807 0
M  V30 37 H 5.817164 -2.917272 3.638434 0
M  V30 38 H 4.396083 -1.163103 4.488216 0
M  V30 39 H 2.474774 -0.447859 3.235779 0
M  V30 40 H 1.401556 -1.908726 -0.146410 0
M  V30 41 H 0.958873 -0.066392 2.003798 0
M  V30 42 H -3.771171 4.332888 -0.883777 0
M  V30 43 H -6.051602 5.364597 -1.176972 0
M  V30 44 H -8.066869 4.084581 -0.378270 0
M  V30 45 H -7.808566 1.894709 0.654949 0
M  V30 46 H -5.612830 0.948696 0.913312 0
M  V30 47 H -1.261324 2.210475 3.550929 0
M  V30 48 H 0.216061 1.990969 2.647455 0
M  V30 49 H -0.732118 0.557230 3.390911 0
M  V30 50 H 1.333548 -0.327502 -1.939371 0
M  V30 51 H 1.239872 -1.626790 -3.959945 0
M  V30 52 H -2.582104 -3.172753 -2.753842 0
M  V30 53 H -2.452140 -1.882007 -0.740909 0
M  V30 54 H 2.976335 -5.468802 0.180655 0
M  V30 55 H 1.545349 -4.381335 0.547529 0
M  V30 56 H 2.070505 -4.671696 -1.120198 0
M  V30 END ATOM
M  V30 BEGIN BOND
M  V30 1 1 1 2
M  V30 2 1 2 3
M  V30 3 2 3 4
M  V30 4 1 4 5
M  V30 5 2 5 6
M  V30 6 1 6 7
M  V30 7 1 7 8
M  V30 8 2 8 9
M  V30 9 1 9 10
M  V30 10 2 10 11
M  V30 11 1 11 12
M  V30 12 2 12 13
M  V30 13 1 12 14
M  V30 14 1 14 15
M  V30 15 2 15 16
M  V30 16 1 16 17
M  V30 17 2 17 18
M  V30 18 1 18 19
M  V30 19 2 19 20
M  V30 20 1 14 21
M  V30 21 2 21 22
M  V30 22 1 22 23
M  V30 23 1 10 24
M  V30 24 2 24 25
M  V30 25 1 25 26
M  V30 26 2 26 27
M  V30 27 1 27 28
M  V30 28 1 27 29
M  V30 29 2 29 30
M  V30 30 2 7 31
M  V30 31 1 31 32
M  V30 32 1 32 33
M  V30 33 1 31 3
M  V30 34 1 22 11
M  V30 35 1 30 24
M  V30 36 1 20 15
M  V30 37 1 1 34
M  V30 38 1 1 35
M  V30 39 1 1 36
M  V30 40 1 4 37
M  V30 41 1 5 38
M  V30 42 1 6 39
M  V30 43 1 8 40
M  V30 44 1 9 41
M  V30 45 1 16 42
M  V30 46 1 17 43
M  V30 47 1 18 44
M  V30 48 1 19 45
M  V30 49 1 20 46
M  V30 50 1 23 47
M  V30 51 1 23 48
M  V30 52 1 23 49
M  V30 53 1 25 50
M  V30 54 1 26 51
M  V30 55 1 29 52
M  V30 56 1 30 53
M  V30 57 1 33 54
M  V30 58 1 33 55
M  V30 59 1 33 56
M  V30 END BOND
M  V30 END CTAB
M  END
>  <Dataset>  (76) 
ChEMBL_Kinases

>  <Ligand_Instance>  (76) 
nan

>  <PDB_ID>  (76) 
nan

>  <Standardized_SMILES>  (76) 
COc1cccc(/C=C/C(=C2/C(=O)N(c3ccccc3)N=C2C)c2ccc(Br)cc2)c1OC

>  <Name>  (76) 
nan

>  <Pocket>  (76) 
nan

>  <ATP_Site>  (76) 
nan

>  <Peripheral>  (76) 
nan

>  <Num_H_Atoms_ProtBoundConf>  (76) 
nan

>  <Num_Resolved_Atoms>  (76) 
nan

>  <Num_Not_Resolved_Atoms>  (76) 
nan

$$$$
CHEMBL1390391
     RDKit          3D

  0  0  0  0  0  0  0  0  0  0999 V3000
M  V30 BEGIN CTAB
M  V30 COUNTS 32 33 0 0 0
M  V30 BEGIN ATOM
M  V30 1 C -1.970602 -0.069234 5.130610 0
M  V30 2 C -0.862314 -0.379340 4.233299 0
M  V30 3 O -0.010287 -0.719942 5.131740 0
M  V30 4 C -0.364564 -0.456972 2.877756 0
M  V30 5 C 0.928272 -0.868233 2.651358 0
M  V30 6 C 1.383464 -0.935550 1.357651 0
M  V30 7 C 2.736781 -1.357705 1.161068 0
M  V30 8 N 3.838121 -1.691380 1.019640 0
M  V30 9 C 0.560359 -0.598120 0.311327 0
M  V30 10 N 1.002315 -0.672923 -1.039013 0
M  V30 11 C 0.148335 -0.204818 -2.148205 0
M  V30 12 C 0.462297 -1.269882 -3.178616 0
M  V30 13 C 1.994139 -1.233122 -3.085881 0
M  V30 14 C 2.253233 -1.182432 -1.570535 0
M  V30 15 N -0.686120 -0.205404 0.593417 0
M  V30 16 C -1.182147 -0.121071 1.833594 0
M  V30 17 C -2.585160 0.333414 1.925692 0
M  V30 18 H -2.320504 -1.027693 5.606578 0
M  V30 19 H -1.738319 0.693224 5.919770 0
M  V30 20 H -2.847428 0.291929 4.574043 0
M  V30 21 H 1.591142 -1.138470 3.464800 0
M  V30 22 H -0.897521 -0.169237 -1.868306 0
M  V30 23 H 0.570161 0.734694 -2.566026 0
M  V30 24 H 0.177664 -2.272433 -2.812346 0
M  V30 25 H 0.111813 -1.012498 -4.175270 0
M  V30 26 H 2.312179 -0.294478 -3.583939 0
M  V30 27 H 2.460950 -2.114368 -3.551476 0
M  V30 28 H 3.114121 -0.523674 -1.390165 0
M  V30 29 H 2.385140 -2.234736 -1.243214 0
M  V30 30 H -2.636348 1.279519 2.501492 0
M  V30 31 H -3.211134 -0.433541 2.420016 0
M  V30 32 H -3.020152 0.510181 0.906513 0
M  V30 END ATOM
M  V30 BEGIN BOND
M  V30 1 1 1 2
M  V30 2 2 2 3
M  V30 3 1 2 4
M  V30 4 2 4 5
M  V30 5 1 5 6
M  V30 6 1 6 7
M  V30 7 3 7 8
M  V30 8 2 6 9
M  V30 9 1 9 10
M  V30 10 1 10 11
M  V30 11 1 11 12
M  V30 12 1 12 13
M  V30 13 1 13 14
M  V30 14 1 9 15
M  V30 15 2 15 16
M  V30 16 1 16 17
M  V30 17 1 16 4
M  V30 18 1 14 10
M  V30 19 1 1 18
M  V30 20 1 1 19
M  V30 21 1 1 20
M  V30 22 1 5 21
M  V30 23 1 11 22
M  V30 24 1 11 23
M  V30 25 1 12 24
M  V30 26 1 12 25
M  V30 27 1 13 26
M  V30 28 1 13 27
M  V30 29 1 14 28
M  V30 30 1 14 29
M  V30 31 1 17 30
M  V30 32 1 17 31
M  V30 33 1 17 32
M  V30 END BOND
M  V30 END CTAB
M  END
>  <Dataset>  (77) 
ChEMBL_Kinases

>  <Ligand_Instance>  (77) 
nan

>  <PDB_ID>  (77) 
nan

>  <Standardized_SMILES>  (77) 
CC(=O)c1cc(C#N)c(N2CCCC2)nc1C

>  <Name>  (77) 
nan

>  <Pocket>  (77) 
nan

>  <ATP_Site>  (77) 
nan

>  <Peripheral>  (77) 
nan

>  <Num_H_Atoms_ProtBoundConf>  (77) 
nan

>  <Num_Resolved_Atoms>  (77) 
nan

>  <Num_Not_Resolved_Atoms>  (77) 
nan

$$$$
CHEMBL1396407
     RDKit          3D

  0  0  0  0  0  0  0  0  0  0999 V3000
M  V30 BEGIN CTAB
M  V30 COUNTS 48 51 0 0 0
M  V30 BEGIN ATOM
M  V30 1 C 2.570988 -5.192608 5.091492 0
M  V30 2 O 1.544634 -4.974033 4.144732 0
M  V30 3 C 1.691097 -4.226072 2.998748 0
M  V30 4 C 2.832301 -3.574618 2.580712 0
M  V30 5 C 2.845272 -2.853301 1.402562 0
M  V30 6 C 1.737042 -2.750918 0.600230 0
M  V30 7 C 1.609104 -2.031557 -0.666884 0
M  V30 8 N 0.870522 -0.794233 -0.600083 0
M  V30 9 C 1.312692 0.274228 0.231093 0
M  V30 10 N 2.431875 0.110217 0.951676 0
M  V30 11 C 2.853194 1.114448 1.735331 0
M  V30 12 N 2.215854 2.295289 1.847763 0
M  V30 13 C 1.083422 2.521878 1.148005 0
M  V30 14 C 0.412855 3.722042 1.245630 0
M  V30 15 C -0.738388 3.893413 0.505151 0
M  V30 16 C -1.219916 2.884626 -0.323701 0
M  V30 17 C -2.440281 3.084180 -1.100569 0
M  V30 18 C -3.181541 1.918771 -1.319723 0
M  V30 19 C -4.360451 1.990127 -2.048638 0
M  V30 20 C -4.772831 3.213476 -2.540572 0
M  V30 21 N -4.026376 4.308576 -2.304340 0
M  V30 22 C -2.875266 4.273516 -1.599390 0
M  V30 23 C -0.494697 1.700910 -0.374405 0
M  V30 24 C 0.659790 1.484897 0.346611 0
M  V30 25 C 0.561932 -3.403117 0.999804 0
M  V30 26 O -0.619763 -3.361788 0.255661 0
M  V30 27 C -1.780869 -4.019822 0.671963 0
M  V30 28 C 0.560656 -4.126788 2.188701 0
M  V30 29 H 2.262202 -6.134521 5.634038 0
M  V30 30 H 3.566083 -5.337147 4.594529 0
M  V30 31 H 2.605699 -4.362496 5.840462 0
M  V30 32 H 3.694937 -3.658946 3.212411 0
M  V30 33 H 3.735001 -2.342010 1.063371 0
M  V30 34 H 1.150499 -2.706336 -1.413340 0
M  V30 35 H 2.629760 -1.804799 -1.097466 0
M  V30 36 H 0.013002 -0.748954 -1.192080 0
M  V30 37 H 3.768687 0.906768 2.288900 0
M  V30 38 H 0.787580 4.516450 1.895959 0
M  V30 39 H -1.278271 4.828845 0.569220 0
M  V30 40 H -2.952675 0.920824 -0.983934 0
M  V30 41 H -4.980835 1.129699 -2.254486 0
M  V30 42 H -5.703166 3.287950 -3.119730 0
M  V30 43 H -2.262338 5.142180 -1.399008 0
M  V30 44 H -0.915569 0.976300 -1.023856 0
M  V30 45 H -1.611163 -5.096355 0.923107 0
M  V30 46 H -2.517258 -4.016234 -0.168455 0
M  V30 47 H -2.153772 -3.522245 1.580569 0
M  V30 48 H -0.377231 -4.627923 2.476955 0
M  V30 END ATOM
M  V30 BEGIN BOND
M  V30 1 1 1 2
M  V30 2 1 2 3
M  V30 3 2 3 4
M  V30 4 1 4 5
M  V30 5 2 5 6
M  V30 6 1 6 7
M  V30 7 1 7 8
M  V30 8 1 8 9
M  V30 9 2 9 10
M  V30 10 1 10 11
M  V30 11 2 11 12
M  V30 12 1 12 13
M  V30 13 2 13 14
M  V30 14 1 14 15
M  V30 15 2 15 16
M  V30 16 1 16 17
M  V30 17 2 17 18
M  V30 18 1 18 19
M  V30 19 2 19 20
M  V30 20 1 20 21
M  V30 21 2 21 22
M  V30 22 1 16 23
M  V30 23 2 23 24
M  V30 24 1 6 25
M  V30 25 1 25 26
M  V30 26 1 26 27
M  V30 27 2 25 28
M  V30 28 1 28 3
M  V30 29 1 24 9
M  V30 30 1 24 13
M  V30 31 1 22 17
M  V30 32 1 1 29
M  V30 33 1 1 30
M  V30 34 1 1 31
M  V30 35 1 4 32
M  V30 36 1 5 33
M  V30 37 1 7 34
M  V30 38 1 7 35
M  V30 39 1 8 36
M  V30 40 1 11 37
M  V30 41 1 14 38
M  V30 42 1 15 39
M  V30 43 1 18 40
M  V30 44 1 19 41
M  V30 45 1 20 42
M  V30 46 1 22 43
M  V30 47 1 23 44
M  V30 48 1 27 45
M  V30 49 1 27 46
M  V30 50 1 27 47
M  V30 51 1 28 48
M  V30 END BOND
M  V30 END CTAB
M  END
>  <Dataset>  (78) 
ChEMBL_Kinases

>  <Ligand_Instance>  (78) 
nan

>  <PDB_ID>  (78) 
nan

>  <Standardized_SMILES>  (78) 
COc1ccc(CNc2ncnc3ccc(-c4cccnc4)cc23)c(OC)c1

>  <Name>  (78) 
nan

>  <Pocket>  (78) 
nan

>  <ATP_Site>  (78) 
nan

>  <Peripheral>  (78) 
nan

>  <Num_H_Atoms_ProtBoundConf>  (78) 
nan

>  <Num_Resolved_Atoms>  (78) 
nan

>  <Num_Not_Resolved_Atoms>  (78) 
nan

$$$$
CHEMBL1396310
     RDKit          3D

  0  0  0  0  0  0  0  0  0  0999 V3000
M  V30 BEGIN CTAB
M  V30 COUNTS 53 56 0 0 0
M  V30 BEGIN ATOM
M  V30 1 C -0.920518 -4.023934 4.213528 0
M  V30 2 C 0.167714 -4.968886 3.729256 0
M  V30 3 N 0.330230 -4.944128 2.295971 0
M  V30 4 C 0.682753 -3.604067 1.902517 0
M  V30 5 N 1.981780 -3.232796 1.840613 0
M  V30 6 C 2.343056 -1.972176 1.471652 0
M  V30 7 C 1.318668 -1.094468 1.164735 0
M  V30 8 N 1.605585 0.168482 0.792175 0
M  V30 9 C 0.635334 1.062388 0.482482 0
M  V30 10 C 0.935375 2.436567 0.076649 0
M  V30 11 C 1.882994 3.186405 0.779408 0
M  V30 12 C 2.163849 4.486246 0.392060 0
M  V30 13 C 1.473924 5.006651 -0.708995 0
M  V30 14 O 1.698253 6.300753 -1.159821 0
M  V30 15 C 2.654517 7.143433 -0.498212 0
M  V30 16 C 0.542266 4.252766 -1.390699 0
M  V30 17 C 0.262862 2.954535 -1.002530 0
M  V30 18 C -0.685137 0.645760 0.557329 0
M  V30 19 O -1.625728 1.448238 0.276589 0
M  V30 20 N -1.026440 -0.607110 0.924693 0
M  V30 21 C -2.419796 -0.990364 0.986536 0
M  V30 22 C -2.945869 -1.549220 -0.303943 0
M  V30 23 C -2.249840 -2.755977 -0.771936 0
M  V30 24 C -1.149299 -2.787510 -1.596363 0
M  V30 25 C -0.547164 -3.963319 -1.995280 0
M  V30 26 C -1.048567 -5.183557 -1.564099 0
M  V30 27 C -2.151154 -5.207527 -0.735636 0
M  V30 28 C -2.719903 -4.004000 -0.363020 0
M  V30 29 C -0.021558 -1.453007 1.221153 0
M  V30 30 N -0.308974 -2.727488 1.597222 0
M  V30 31 H -0.743717 -2.978292 3.947653 0
M  V30 32 H -1.912186 -4.418119 3.918680 0
M  V30 33 H -0.868784 -4.074414 5.333619 0
M  V30 34 H -0.164962 -5.978157 4.034221 0
M  V30 35 H 1.085450 -4.705430 4.282630 0
M  V30 36 H 0.260144 -5.615531 1.519356 0
M  V30 37 H 3.373408 -1.643304 1.412085 0
M  V30 38 H 2.396656 2.748136 1.627229 0
M  V30 39 H 2.890469 5.083558 0.918553 0
M  V30 40 H 2.457197 7.149952 0.598359 0
M  V30 41 H 2.627995 8.143108 -0.930306 0
M  V30 42 H 3.654105 6.699643 -0.634887 0
M  V30 43 H 0.012160 4.676103 -2.249658 0
M  V30 44 H -0.479158 2.419584 -1.581670 0
M  V30 45 H -2.997802 -0.057578 1.180115 0
M  V30 46 H -2.626597 -1.731380 1.769072 0
M  V30 47 H -4.006670 -1.816362 -0.112728 0
M  V30 48 H -2.979838 -0.772364 -1.096276 0
M  V30 49 H -0.757394 -1.829184 -1.933607 0
M  V30 50 H 0.314815 -3.978379 -2.641436 0
M  V30 51 H -0.646333 -6.157600 -1.822106 0
M  V30 52 H -2.566922 -6.134876 -0.381917 0
M  V30 53 H -3.595181 -4.065792 0.296590 0
M  V30 END ATOM
M  V30 BEGIN BOND
M  V30 1 1 1 2
M  V30 2 1 2 3
M  V30 3 1 3 4
M  V30 4 2 4 5
M  V30 5 1 5 6
M  V30 6 2 6 7
M  V30 7 1 7 8
M  V30 8 2 8 9
M  V30 9 1 9 10
M  V30 10 2 10 11
M  V30 11 1 11 12
M  V30 12 2 12 13
M  V30 13 1 13 14
M  V30 14 1 14 15
M  V30 15 1 13 16
M  V30 16 2 16 17
M  V30 17 1 9 18
M  V30 18 2 18 19
M  V30 19 1 18 20
M  V30 20 1 20 21
M  V30 21 1 21 22
M  V30 22 1 22 23
M  V30 23 2 23 24
M  V30 24 1 24 25
M  V30 25 2 25 26
M  V30 26 1 26 27
M  V30 27 2 27 28
M  V30 28 1 20 29
M  V30 29 2 29 30
M  V30 30 1 30 4
M  V30 31 1 29 7
M  V30 32 1 17 10
M  V30 33 1 28 23
M  V30 34 1 1 31
M  V30 35 1 1 32
M  V30 36 1 1 33
M  V30 37 1 2 34
M  V30 38 1 2 35
M  V30 39 1 3 36
M  V30 40 1 6 37
M  V30 41 1 11 38
M  V30 42 1 12 39
M  V30 43 1 15 40
M  V30 44 1 15 41
M  V30 45 1 15 42
M  V30 46 1 16 43
M  V30 47 1 17 44
M  V30 48 1 21 45
M  V30 49 1 21 46
M  V30 50 1 22 47
M  V30 51 1 22 48
M  V30 52 1 24 49
M  V30 53 1 25 50
M  V30 54 1 26 51
M  V30 55 1 27 52
M  V30 56 1 28 53
M  V30 END BOND
M  V30 END CTAB
M  END
>  <Dataset>  (79) 
ChEMBL_Kinases

>  <Ligand_Instance>  (79) 
nan

>  <PDB_ID>  (79) 
nan

>  <Standardized_SMILES>  (79) 
CCNc1ncc2nc(-c3ccc(OC)cc3)c(=O)n(CCc3ccccc3)c2n1

>  <Name>  (79) 
nan

>  <Pocket>  (79) 
nan

>  <ATP_Site>  (79) 
nan

>  <Peripheral>  (79) 
nan

>  <Num_H_Atoms_ProtBoundConf>  (79) 
nan

>  <Num_Resolved_Atoms>  (79) 
nan

>  <Num_Not_Resolved_Atoms>  (79) 
nan

$$$$
CHEMBL1396239
     RDKit          3D

  0  0  0  0  0  0  0  0  0  0999 V3000
M  V30 BEGIN CTAB
M  V30 COUNTS 30 32 0 0 0
M  V30 BEGIN ATOM
M  V30 1 C -2.390092 -2.917585 1.313834 0
M  V30 2 C -1.905977 -2.454219 2.651253 0
M  V30 3 C -0.406237 -2.369748 2.742392 0
M  V30 4 N 0.170401 -1.465239 1.795863 0
M  V30 5 C 0.565414 -1.825918 0.560081 0
M  V30 6 O 0.437857 -3.001059 0.186268 0
M  V30 7 C 1.114671 -0.919589 -0.315690 0
M  V30 8 C 1.502833 -1.347121 -1.573795 0
M  V30 9 C 2.043029 -0.418984 -2.413107 0
M  V30 10 C 2.220097 0.911030 -2.074304 0
M  V30 11 C 1.821857 1.316780 -0.803214 0
M  V30 12 C 1.283127 0.397211 0.037441 0
M  V30 13 N 0.892717 0.746343 1.254453 0
M  V30 14 C 0.922199 1.926689 1.884763 0
M  V30 15 S 1.479770 3.536879 1.408779 0
M  V30 16 N 0.404616 1.740837 3.109945 0
M  V30 17 N 0.055221 0.468584 3.250658 0
M  V30 18 C 0.359449 -0.151853 2.093804 0
M  V30 19 H -1.982898 -3.934423 1.095569 0
M  V30 20 H -2.170018 -2.193329 0.509991 0
M  V30 21 H -3.498236 -3.002586 1.363502 0
M  V30 22 H -2.357680 -1.471473 2.893974 0
M  V30 23 H -2.262100 -3.159752 3.428196 0
M  V30 24 H -0.131939 -2.002777 3.746670 0
M  V30 25 H 0.062912 -3.352637 2.628653 0
M  V30 26 H 1.382128 -2.392020 -1.887485 0
M  V30 27 H 2.337476 -0.776266 -3.387201 0
M  V30 28 H 2.659935 1.587786 -2.804919 0
M  V30 29 H 1.991432 2.344206 -0.626139 0
M  V30 30 H 0.600911 4.163095 0.512670 0
M  V30 END ATOM
M  V30 BEGIN BOND
M  V30 1 1 1 2
M  V30 2 1 2 3
M  V30 3 1 3 4
M  V30 4 1 4 5
M  V30 5 2 5 6
M  V30 6 1 5 7
M  V30 7 2 7 8
M  V30 8 1 8 9
M  V30 9 2 9 10
M  V30 10 1 10 11
M  V30 11 2 11 12
M  V30 12 1 12 13
M  V30 13 1 13 14
M  V30 14 1 14 15
M  V30 15 2 14 16
M  V30 16 1 16 17
M  V30 17 2 17 18
M  V30 18 1 18 4
M  V30 19 1 12 7
M  V30 20 1 18 13
M  V30 21 1 1 19
M  V30 22 1 1 20
M  V30 23 1 1 21
M  V30 24 1 2 22
M  V30 25 1 2 23
M  V30 26 1 3 24
M  V30 27 1 3 25
M  V30 28 1 8 26
M  V30 29 1 9 27
M  V30 30 1 10 28
M  V30 31 1 11 29
M  V30 32 1 15 30
M  V30 END BOND
M  V30 END CTAB
M  END
>  <Dataset>  (80) 
ChEMBL_Kinases

>  <Ligand_Instance>  (80) 
nan

>  <PDB_ID>  (80) 
nan

>  <Standardized_SMILES>  (80) 
CCCn1c(=O)c2ccccc2n2c(S)nnc12

>  <Name>  (80) 
nan

>  <Pocket>  (80) 
nan

>  <ATP_Site>  (80) 
nan

>  <Peripheral>  (80) 
nan

>  <Num_H_Atoms_ProtBoundConf>  (80) 
nan

>  <Num_Resolved_Atoms>  (80) 
nan

>  <Num_Not_Resolved_Atoms>  (80) 
nan

$$$$
CHEMBL1396211
     RDKit          3D

  0  0  0  0  0  0  0  0  0  0999 V3000
M  V30 BEGIN CTAB
M  V30 COUNTS 42 44 0 0 0
M  V30 BEGIN ATOM
M  V30 1 C 1.354996 -7.035791 -0.521882 0
M  V30 2 O 2.220830 -6.404158 0.349969 0
M  V30 3 C 1.872223 -5.114177 0.678706 0
M  V30 4 C 1.797953 -4.195867 -0.503881 0
M  V30 5 N 1.425654 -2.849694 -0.086354 0
M  V30 6 C 1.313820 -1.860755 -1.096638 0
M  V30 7 N 1.540623 -2.147600 -2.385952 0
M  V30 8 C 1.456746 -1.276280 -3.395276 0
M  V30 9 N 1.119439 0.001267 -3.130443 0
M  V30 10 C 0.866039 0.409284 -1.860018 0
M  V30 11 C 0.524105 1.710772 -1.604848 0
M  V30 12 C 0.271392 2.100614 -0.305847 0
M  V30 13 C 0.366867 1.166532 0.730633 0
M  V30 14 C 0.100353 1.560744 2.131241 0
M  V30 15 C 0.738061 0.959277 3.200290 0
M  V30 16 C 0.408935 1.410048 4.462714 0
M  V30 17 C -0.520190 2.418608 4.613169 0
M  V30 18 C -1.165670 3.027402 3.530431 0
M  V30 19 O -2.067391 4.022299 3.883524 0
M  V30 20 C -2.775263 4.703970 2.874323 0
M  V30 21 C -0.828982 2.568393 2.267158 0
M  V30 22 C 0.715958 -0.127502 0.402873 0
M  V30 23 C 0.974344 -0.547670 -0.883411 0
M  V30 24 H 0.314211 -7.112956 -0.115627 0
M  V30 25 H 1.760161 -8.083077 -0.635361 0
M  V30 26 H 1.299368 -6.569553 -1.526445 0
M  V30 27 H 2.594081 -4.771967 1.442672 0
M  V30 28 H 0.871505 -5.167741 1.189499 0
M  V30 29 H 1.013861 -4.578561 -1.205895 0
M  V30 30 H 2.776683 -4.142924 -1.005921 0
M  V30 31 H 1.265809 -2.701918 0.927885 0
M  V30 32 H 1.672026 -1.669967 -4.384602 0
M  V30 33 H 0.442824 2.460814 -2.397838 0
M  V30 34 H -0.000249 3.123899 -0.082023 0
M  V30 35 H 1.453275 0.175481 2.988135 0
M  V30 36 H 0.902389 0.945826 5.305223 0
M  V30 37 H -0.704230 2.696906 5.659363 0
M  V30 38 H -2.222770 4.844290 1.935857 0
M  V30 39 H -3.747892 4.243969 2.610854 0
M  V30 40 H -2.962724 5.751623 3.252883 0
M  V30 41 H -1.346726 3.062649 1.476026 0
M  V30 42 H 0.772446 -0.799054 1.246549 0
M  V30 END ATOM
M  V30 BEGIN BOND
M  V30 1 1 1 2
M  V30 2 1 2 3
M  V30 3 1 3 4
M  V30 4 1 4 5
M  V30 5 1 5 6
M  V30 6 2 6 7
M  V30 7 1 7 8
M  V30 8 2 8 9
M  V30 9 1 9 10
M  V30 10 2 10 11
M  V30 11 1 11 12
M  V30 12 2 12 13
M  V30 13 1 13 14
M  V30 14 2 14 15
M  V30 15 1 15 16
M  V30 16 2 16 17
M  V30 17 1 17 18
M  V30 18 1 18 19
M  V30 19 1 19 20
M  V30 20 2 18 21
M  V30 21 1 13 22
M  V30 22 2 22 23
M  V30 23 1 23 6
M  V30 24 1 23 10
M  V30 25 1 21 14
M  V30 26 1 1 24
M  V30 27 1 1 25
M  V30 28 1 1 26
M  V30 29 1 3 27
M  V30 30 1 3 28
M  V30 31 1 4 29
M  V30 32 1 4 30
M  V30 33 1 5 31
M  V30 34 1 8 32
M  V30 35 1 11 33
M  V30 36 1 12 34
M  V30 37 1 15 35
M  V30 38 1 16 36
M  V30 39 1 17 37
M  V30 40 1 20 38
M  V30 41 1 20 39
M  V30 42 1 20 40
M  V30 43 1 21 41
M  V30 44 1 22 42
M  V30 END BOND
M  V30 END CTAB
M  END
>  <Dataset>  (81) 
ChEMBL_Kinases

>  <Ligand_Instance>  (81) 
nan

>  <PDB_ID>  (81) 
nan

>  <Standardized_SMILES>  (81) 
COCCNc1ncnc2ccc(-c3cccc(OC)c3)cc12

>  <Name>  (81) 
nan

>  <Pocket>  (81) 
nan

>  <ATP_Site>  (81) 
nan

>  <Peripheral>  (81) 
nan

>  <Num_H_Atoms_ProtBoundConf>  (81) 
nan

>  <Num_Resolved_Atoms>  (81) 
nan

>  <Num_Not_Resolved_Atoms>  (81) 
nan

$$$$
CHEMBL1396170
     RDKit          3D

  0  0  0  0  0  0  0  0  0  0999 V3000
M  V30 BEGIN CTAB
M  V30 COUNTS 57 56 0 0 0
M  V30 BEGIN ATOM
M  V30 1 C 0.071288 -1.990122 -1.640174 0
M  V30 2 C 1.009763 -2.733321 -1.540425 0
M  V30 3 C 2.121520 -3.637730 -1.437828 0
M  V30 4 C 2.973080 -3.334446 -0.234015 0
M  V30 5 C 3.495657 -1.951603 -0.362066 0
M  V30 6 C 4.395904 -1.533499 0.779425 0
M  V30 7 C 4.896787 -0.167937 0.647021 0
M  V30 8 C 4.067974 1.026568 0.666207 0
M  V30 9 C 3.286828 1.458643 1.808593 0
M  V30 10 C 2.190710 0.737491 2.429780 0
M  V30 11 C 0.950225 0.448265 1.693100 0
M  V30 12 C 0.216828 1.677285 1.208170 0
M  V30 13 C -1.024248 1.220827 0.477558 0
M  V30 14 C -1.972905 0.418244 1.314265 0
M  V30 15 O -2.436851 1.128855 2.422492 0
M  V30 16 C -3.172931 0.106577 0.408773 0
M  V30 17 C -4.152706 -0.712009 1.244146 0
M  V30 18 O -3.567596 -1.891831 1.683868 0
M  V30 19 C -5.363540 -1.053284 0.411476 0
M  V30 20 O -5.007858 -1.830115 -0.700363 0
M  V30 21 C -5.975167 -2.261554 -1.611275 0
M  V30 22 C -5.533090 -3.086005 -2.774990 0
M  V30 23 O -7.154267 -1.910334 -1.365070 0
M  V30 24 H -0.760457 -1.346357 -1.742163 0
M  V30 25 H 2.757413 -3.466455 -2.357073 0
M  V30 26 H 1.832152 -4.706155 -1.497279 0
M  V30 27 H 3.856845 -4.037164 -0.268835 0
M  V30 28 H 2.430343 -3.532852 0.706463 0
M  V30 29 H 4.109851 -1.936229 -1.317785 0
M  V30 30 H 2.666936 -1.241057 -0.450139 0
M  V30 31 H 3.928880 -1.820400 1.745849 0
M  V30 32 H 5.248064 -2.287401 0.711213 0
M  V30 33 H 5.514154 -0.142545 -0.316750 0
M  V30 34 H 5.757138 -0.072995 1.400254 0
M  V30 35 H 3.431638 1.081202 -0.280540 0
M  V30 36 H 4.770969 1.901500 0.449287 0
M  V30 37 H 2.843962 2.474338 1.496295 0
M  V30 38 H 4.017758 1.844276 2.606661 0
M  V30 39 H 1.854343 1.262125 3.386574 0
M  V30 40 H 2.575330 -0.237076 2.859948 0
M  V30 41 H 0.211611 -0.047831 2.397187 0
M  V30 42 H 1.076592 -0.245122 0.885760 0
M  V30 43 H -0.121719 2.292765 2.084091 0
M  V30 44 H 0.814056 2.291691 0.536493 0
M  V30 45 H -0.661255 0.574193 -0.346970 0
M  V30 46 H -1.609350 2.081293 0.079463 0
M  V30 47 H -1.616195 -0.548620 1.660327 0
M  V30 48 H -1.861311 0.873149 3.185647 0
M  V30 49 H -3.636880 1.064111 0.135122 0
M  V30 50 H -2.837409 -0.468265 -0.458190 0
M  V30 51 H -4.462604 -0.086503 2.102358 0
M  V30 52 H -4.237283 -2.627678 1.773586 0
M  V30 53 H -5.816500 -0.093266 0.072472 0
M  V30 54 H -6.113431 -1.556961 1.050515 0
M  V30 55 H -4.771719 -2.530770 -3.370142 0
M  V30 56 H -5.029688 -3.994793 -2.397884 0
M  V30 57 H -6.415624 -3.356862 -3.359390 0
M  V30 END ATOM
M  V30 BEGIN BOND
M  V30 1 3 1 2
M  V30 2 1 2 3
M  V30 3 1 3 4
M  V30 4 1 4 5
M  V30 5 1 5 6
M  V30 6 1 6 7
M  V30 7 1 7 8
M  V30 8 1 8 9
M  V30 9 1 9 10
M  V30 10 1 10 11
M  V30 11 1 11 12
M  V30 12 1 12 13
M  V30 13 1 13 14
M  V30 14 1 14 15
M  V30 15 1 14 16
M  V30 16 1 16 17
M  V30 17 1 17 18
M  V30 18 1 17 19
M  V30 19 1 19 20
M  V30 20 1 20 21
M  V30 21 1 21 22
M  V30 22 2 21 23
M  V30 23 1 1 24
M  V30 24 1 3 25
M  V30 25 1 3 26
M  V30 26 1 4 27
M  V30 27 1 4 28
M  V30 28 1 5 29
M  V30 29 1 5 30
M  V30 30 1 6 31
M  V30 31 1 6 32
M  V30 32 1 7 33
M  V30 33 1 7 34
M  V30 34 1 8 35
M  V30 35 1 8 36
M  V30 36 1 9 37
M  V30 37 1 9 38
M  V30 38 1 10 39
M  V30 39 1 10 40
M  V30 40 1 11 41
M  V30 41 1 11 42
M  V30 42 1 12 43
M  V30 43 1 12 44
M  V30 44 1 13 45
M  V30 45 1 13 46
M  V30 46 1 14 47
M  V30 47 1 15 48
M  V30 48 1 16 49
M  V30 49 1 16 50
M  V30 50 1 17 51
M  V30 51 1 18 52
M  V30 52 1 19 53
M  V30 53 1 19 54
M  V30 54 1 22 55
M  V30 55 1 22 56
M  V30 56 1 22 57
M  V30 END BOND
M  V30 END CTAB
M  END
>  <Dataset>  (82) 
ChEMBL_Kinases

>  <Ligand_Instance>  (82) 
nan

>  <PDB_ID>  (82) 
nan

>  <Standardized_SMILES>  (82) 
C#CCCCCCCCCCCCC(O)CC(O)COC(C)=O

>  <Name>  (82) 
AVOCADYNE ACETATE

>  <Pocket>  (82) 
nan

>  <ATP_Site>  (82) 
nan

>  <Peripheral>  (82) 
nan

>  <Num_H_Atoms_ProtBoundConf>  (82) 
nan

>  <Num_Resolved_Atoms>  (82) 
nan

>  <Num_Not_Resolved_Atoms>  (82) 
nan

$$$$
CHEMBL1396108
     RDKit          3D

  0  0  0  0  0  0  0  0  0  0999 V3000
M  V30 BEGIN CTAB
M  V30 COUNTS 43 46 0 0 0
M  V30 BEGIN ATOM
M  V30 1 C 0.225827 -5.179275 0.608453 0
M  V30 2 O 0.328896 -3.801630 0.840366 0
M  V30 3 C 1.513642 -3.106421 0.831284 0
M  V30 4 C 2.809112 -3.513839 0.614992 0
M  V30 5 C 3.851209 -2.621204 0.656836 0
M  V30 6 C 3.619984 -1.290190 0.917924 0
M  V30 7 C 2.329888 -0.808870 1.146614 0
M  V30 8 C 2.136463 0.620750 1.421746 0
M  V30 9 N 1.928485 1.440630 0.268989 0
M  V30 10 C 2.976392 2.016201 -0.385510 0
M  V30 11 O 4.152300 1.857938 -0.016164 0
M  V30 12 C 2.847282 2.808606 -1.489587 0
M  V30 13 N 1.613803 3.068260 -2.005094 0
M  V30 14 C 0.561674 2.528642 -1.400306 0
M  V30 15 C -0.686076 2.795623 -1.926043 0
M  V30 16 N -1.746879 2.247998 -1.309684 0
M  V30 17 C -1.594547 1.458123 -0.206019 0
M  V30 18 O -2.798520 0.980864 0.295535 0
M  V30 19 C -2.768044 0.165039 1.418418 0
M  V30 20 C -2.845901 0.812373 2.642193 0
M  V30 21 C -2.823546 0.092167 3.809901 0
M  V30 22 C -2.723613 -1.286612 3.797126 0
M  V30 23 C -2.646749 -1.920786 2.574732 0
M  V30 24 C -2.667552 -1.216209 1.389965 0
M  V30 25 N -0.360569 1.222272 0.275164 0
M  V30 26 C 0.739257 1.735222 -0.288654 0
M  V30 27 C 1.310579 -1.747336 1.094212 0
M  V30 28 H -0.276421 -5.617360 1.505055 0
M  V30 29 H -0.419305 -5.344200 -0.284843 0
M  V30 30 H 1.202892 -5.658131 0.524030 0
M  V30 31 H 2.896623 -4.559124 0.420126 0
M  V30 32 H 4.829994 -3.036655 0.474443 0
M  V30 33 H 4.500484 -0.693562 0.926280 0
M  V30 34 H 1.362575 0.767742 2.202893 0
M  V30 35 H 3.083635 0.998189 1.900973 0
M  V30 36 H 3.668198 3.266441 -2.012148 0
M  V30 37 H -0.794450 3.434460 -2.816738 0
M  V30 38 H -2.925977 1.895604 2.716928 0
M  V30 39 H -2.883953 0.587103 4.783888 0
M  V30 40 H -2.710069 -1.807063 4.744409 0
M  V30 41 H -2.567949 -2.998025 2.532434 0
M  V30 42 H -2.608515 -1.690039 0.407407 0
M  V30 43 H 0.334407 -1.283100 1.286264 0
M  V30 END ATOM
M  V30 BEGIN BOND
M  V30 1 1 1 2
M  V30 2 1 2 3
M  V30 3 2 3 4
M  V30 4 1 4 5
M  V30 5 2 5 6
M  V30 6 1 6 7
M  V30 7 1 7 8
M  V30 8 1 8 9
M  V30 9 1 9 10
M  V30 10 2 10 11
M  V30 11 1 10 12
M  V30 12 2 12 13
M  V30 13 1 13 14
M  V30 14 2 14 15
M  V30 15 1 15 16
M  V30 16 2 16 17
M  V30 17 1 17 18
M  V30 18 1 18 19
M  V30 19 2 19 20
M  V30 20 1 20 21
M  V30 21 2 21 22
M  V30 22 1 22 23
M  V30 23 2 23 24
M  V30 24 1 17 25
M  V30 25 2 25 26
M  V30 26 2 7 27
M  V30 27 1 27 3
M  V30 28 1 26 9
M  V30 29 1 26 14
M  V30 30 1 24 19
M  V30 31 1 1 28
M  V30 32 1 1 29
M  V30 33 1 1 30
M  V30 34 1 4 31
M  V30 35 1 5 32
M  V30 36 1 6 33
M  V30 37 1 8 34
M  V30 38 1 8 35
M  V30 39 1 12 36
M  V30 40 1 15 37
M  V30 41 1 20 38
M  V30 42 1 21 39
M  V30 43 1 22 40
M  V30 44 1 23 41
M  V30 45 1 24 42
M  V30 46 1 27 43
M  V30 END BOND
M  V30 END CTAB
M  END
>  <Dataset>  (83) 
ChEMBL_Kinases

>  <Ligand_Instance>  (83) 
nan

>  <PDB_ID>  (83) 
nan

>  <Standardized_SMILES>  (83) 
COc1cccc(Cn2c(=O)cnc3cnc(Oc4ccccc4)nc32)c1

>  <Name>  (83) 
nan

>  <Pocket>  (83) 
nan

>  <ATP_Site>  (83) 
nan

>  <Peripheral>  (83) 
nan

>  <Num_H_Atoms_ProtBoundConf>  (83) 
nan

>  <Num_Resolved_Atoms>  (83) 
nan

>  <Num_Not_Resolved_Atoms>  (83) 
nan

$$$$
CHEMBL1395915
     RDKit          3D

  0  0  0  0  0  0  0  0  0  0999 V3000
M  V30 BEGIN CTAB
M  V30 COUNTS 43 46 0 0 0
M  V30 BEGIN ATOM
M  V30 1 C 0.863257 -6.353025 -1.306384 0
M  V30 2 N 1.138784 -5.530628 -0.135817 0
M  V30 3 C 1.493356 -6.084399 1.135274 0
M  V30 4 C 1.045493 -4.120258 -0.286423 0
M  V30 5 C 1.295772 -3.275744 0.789290 0
M  V30 6 C 1.201191 -1.910161 0.626037 0
M  V30 7 C 0.863445 -1.326955 -0.576918 0
M  V30 8 C 0.794739 0.134144 -0.626534 0
M  V30 9 C 1.098884 0.834416 -1.792156 0
M  V30 10 C 1.021651 2.216803 -1.799661 0
M  V30 11 C 0.646187 2.939423 -0.669369 0
M  V30 12 N 0.564171 4.287878 -0.655278 0
M  V30 13 C 0.189134 4.905987 0.492711 0
M  V30 14 N -0.103423 4.214866 1.617209 0
M  V30 15 C -0.040272 2.892622 1.661858 0
M  V30 16 N -0.358991 2.213546 2.870438 0
M  V30 17 C -0.742336 3.049923 3.998360 0
M  V30 18 C -1.097331 2.421186 5.317725 0
M  V30 19 C -2.157247 2.968580 4.462440 0
M  V30 20 C 0.339683 2.251559 0.501706 0
M  V30 21 C 0.426332 0.885515 0.474193 0
M  V30 22 C 0.610572 -2.145363 -1.658733 0
M  V30 23 C 0.709449 -3.523524 -1.480857 0
M  V30 24 H -0.130132 -6.029236 -1.690129 0
M  V30 25 H 0.859796 -7.422289 -1.095559 0
M  V30 26 H 1.615035 -6.037727 -2.069086 0
M  V30 27 H 1.290978 -7.193405 1.119561 0
M  V30 28 H 2.549947 -5.977666 1.419998 0
M  V30 29 H 0.859994 -5.691331 1.967166 0
M  V30 30 H 1.559943 -3.756306 1.726710 0
M  V30 31 H 1.413909 -1.333680 1.519621 0
M  V30 32 H 1.398816 0.294476 -2.701983 0
M  V30 33 H 1.258177 2.751252 -2.704133 0
M  V30 34 H 0.139969 5.987420 0.448411 0
M  V30 35 H -0.359090 1.202805 3.070107 0
M  V30 36 H -0.170488 3.995124 4.076846 0
M  V30 37 H -0.835516 1.342836 5.363145 0
M  V30 38 H -0.812375 2.935195 6.263641 0
M  V30 39 H -2.683699 3.884182 4.849277 0
M  V30 40 H -2.836535 2.268435 3.957212 0
M  V30 41 H 0.200686 0.296830 1.352347 0
M  V30 42 H 0.345209 -1.689712 -2.604117 0
M  V30 43 H 0.507845 -4.152978 -2.339356 0
M  V30 END ATOM
M  V30 BEGIN BOND
M  V30 1 1 1 2
M  V30 2 1 2 3
M  V30 3 1 2 4
M  V30 4 2 4 5
M  V30 5 1 5 6
M  V30 6 2 6 7
M  V30 7 1 7 8
M  V30 8 2 8 9
M  V30 9 1 9 10
M  V30 10 2 10 11
M  V30 11 1 11 12
M  V30 12 2 12 13
M  V30 13 1 13 14
M  V30 14 2 14 15
M  V30 15 1 15 16
M  V30 16 1 16 17
M  V30 17 1 17 18
M  V30 18 1 18 19
M  V30 19 1 15 20
M  V30 20 2 20 21
M  V30 21 1 7 22
M  V30 22 2 22 23
M  V30 23 1 23 4
M  V30 24 1 21 8
M  V30 25 1 20 11
M  V30 26 1 19 17
M  V30 27 1 1 24
M  V30 28 1 1 25
M  V30 29 1 1 26
M  V30 30 1 3 27
M  V30 31 1 3 28
M  V30 32 1 3 29
M  V30 33 1 5 30
M  V30 34 1 6 31
M  V30 35 1 9 32
M  V30 36 1 10 33
M  V30 37 1 13 34
M  V30 38 1 16 35
M  V30 39 1 17 36
M  V30 40 1 18 37
M  V30 41 1 18 38
M  V30 42 1 19 39
M  V30 43 1 19 40
M  V30 44 1 21 41
M  V30 45 1 22 42
M  V30 46 1 23 43
M  V30 END BOND
M  V30 END CTAB
M  END
>  <Dataset>  (84) 
ChEMBL_Kinases

>  <Ligand_Instance>  (84) 
nan

>  <PDB_ID>  (84) 
nan

>  <Standardized_SMILES>  (84) 
CN(C)c1ccc(-c2ccc3ncnc(NC4CC4)c3c2)cc1

>  <Name>  (84) 
nan

>  <Pocket>  (84) 
nan

>  <ATP_Site>  (84) 
nan

>  <Peripheral>  (84) 
nan

>  <Num_H_Atoms_ProtBoundConf>  (84) 
nan

>  <Num_Resolved_Atoms>  (84) 
nan

>  <Num_Not_Resolved_Atoms>  (84) 
nan

$$$$
CHEMBL1395805
     RDKit          3D

  0  0  0  0  0  0  0  0  0  0999 V3000
M  V30 BEGIN CTAB
M  V30 COUNTS 53 56 0 0 0
M  V30 BEGIN ATOM
M  V30 1 C 0.263009 -2.035146 8.905629 0
M  V30 2 O -0.492119 -2.496142 7.801072 0
M  V30 3 C -0.283600 -1.955759 6.538250 0
M  V30 4 C 0.608651 -0.969407 6.167064 0
M  V30 5 C 0.667495 -0.563801 4.850052 0
M  V30 6 C -0.136191 -1.105023 3.866566 0
M  V30 7 C -0.029102 -0.636155 2.491725 0
M  V30 8 N 1.168852 -0.446274 1.877166 0
M  V30 9 C 1.228731 -0.008152 0.594471 0
M  V30 10 C 2.494102 0.153985 0.057635 0
M  V30 11 N 2.562727 0.591311 -1.223139 0
M  V30 12 C 1.457030 0.857009 -1.943901 0
M  V30 13 N 1.529792 1.316065 -3.288368 0
M  V30 14 C 0.368812 1.615743 -4.104921 0
M  V30 15 C 2.862559 1.495100 -3.878762 0
M  V30 16 N 0.231088 0.688876 -1.391513 0
M  V30 17 C 0.080458 0.257485 -0.123978 0
M  V30 18 N -1.111517 0.073679 0.472530 0
M  V30 19 C -2.309675 0.343571 -0.256145 0
M  V30 20 C -2.837894 -0.848621 -1.010708 0
M  V30 21 C -1.910496 -1.389898 -2.009159 0
M  V30 22 C -1.053791 -2.378822 -1.513602 0
M  V30 23 C -0.110392 -3.011272 -2.292229 0
M  V30 24 C -0.002720 -2.662576 -3.601979 0
M  V30 25 C -0.831455 -1.696942 -4.107462 0
M  V30 26 C -1.781091 -1.054220 -3.341340 0
M  V30 27 C -1.176069 -0.362971 1.751165 0
M  V30 28 O -2.281181 -0.542479 2.330778 0
M  V30 29 C -1.029294 -2.090890 4.232704 0
M  V30 30 C -1.099945 -2.508339 5.550025 0
M  V30 31 H -0.321158 -2.146316 9.863815 0
M  V30 32 H 0.500498 -0.950865 8.858890 0
M  V30 33 H 1.220859 -2.608548 9.039369 0
M  V30 34 H 1.207499 -0.586814 6.978432 0
M  V30 35 H 1.394392 0.216746 4.634970 0
M  V30 36 H 3.399849 -0.054454 0.621157 0
M  V30 37 H -0.498648 1.709598 -3.402578 0
M  V30 38 H 0.201059 0.888400 -4.919876 0
M  V30 39 H 0.542606 2.651506 -4.508378 0
M  V30 40 H 3.400606 0.543535 -3.786868 0
M  V30 41 H 3.393481 2.211207 -3.215844 0
M  V30 42 H 2.806696 1.901319 -4.890287 0
M  V30 43 H -3.088942 0.634439 0.474652 0
M  V30 44 H -2.143770 1.151420 -0.973815 0
M  V30 45 H -3.746108 -0.522561 -1.561497 0
M  V30 46 H -3.168511 -1.616183 -0.299490 0
M  V30 47 H -1.070213 -2.723262 -0.469041 0
M  V30 48 H 0.546422 -3.771421 -1.906541 0
M  V30 49 H 0.730144 -3.140837 -4.244698 0
M  V30 50 H -0.814441 -1.358972 -5.134941 0
M  V30 51 H -2.470169 -0.284601 -3.665108 0
M  V30 52 H -1.650419 -2.501760 3.444503 0
M  V30 53 H -1.832439 -3.285493 5.731148 0
M  V30 END ATOM
M  V30 BEGIN BOND
M  V30 1 1 1 2
M  V30 2 1 2 3
M  V30 3 2 3 4
M  V30 4 1 4 5
M  V30 5 2 5 6
M  V30 6 1 6 7
M  V30 7 2 7 8
M  V30 8 1 8 9
M  V30 9 2 9 10
M  V30 10 1 10 11
M  V30 11 2 11 12
M  V30 12 1 12 13
M  V30 13 1 13 14
M  V30 14 1 13 15
M  V30 15 1 12 16
M  V30 16 2 16 17
M  V30 17 1 17 18
M  V30 18 1 18 19
M  V30 19 1 19 20
M  V30 20 1 20 21
M  V30 21 2 21 22
M  V30 22 1 22 23
M  V30 23 2 23 24
M  V30 24 1 24 25
M  V30 25 2 25 26
M  V30 26 1 18 27
M  V30 27 2 27 28
M  V30 28 1 6 29
M  V30 29 2 29 30
M  V30 30 1 30 3
M  V30 31 1 27 7
M  V30 32 1 17 9
M  V30 33 1 26 21
M  V30 34 1 1 31
M  V30 35 1 1 32
M  V30 36 1 1 33
M  V30 37 1 4 34
M  V30 38 1 5 35
M  V30 39 1 10 36
M  V30 40 1 14 37
M  V30 41 1 14 38
M  V30 42 1 14 39
M  V30 43 1 15 40
M  V30 44 1 15 41
M  V30 45 1 15 42
M  V30 46 1 19 43
M  V30 47 1 19 44
M  V30 48 1 20 45
M  V30 49 1 20 46
M  V30 50 1 22 47
M  V30 51 1 23 48
M  V30 52 1 24 49
M  V30 53 1 25 50
M  V30 54 1 26 51
M  V30 55 1 29 52
M  V30 56 1 30 53
M  V30 END BOND
M  V30 END CTAB
M  END
>  <Dataset>  (85) 
ChEMBL_Kinases

>  <Ligand_Instance>  (85) 
nan

>  <PDB_ID>  (85) 
nan

>  <Standardized_SMILES>  (85) 
COc1ccc(-c2nc3cnc(N(C)C)nc3n(CCc3ccccc3)c2=O)cc1

>  <Name>  (85) 
nan

>  <Pocket>  (85) 
nan

>  <ATP_Site>  (85) 
nan

>  <Peripheral>  (85) 
nan

>  <Num_H_Atoms_ProtBoundConf>  (85) 
nan

>  <Num_Resolved_Atoms>  (85) 
nan

>  <Num_Not_Resolved_Atoms>  (85) 
nan

$$$$
CHEMBL1395792
     RDKit          3D

  0  0  0  0  0  0  0  0  0  0999 V3000
M  V30 BEGIN CTAB
M  V30 COUNTS 40 43 0 0 0
M  V30 BEGIN ATOM
M  V30 1 C -0.248421 -4.027398 2.417537 0
M  V30 2 C 1.108344 -3.448390 2.274337 0
M  V30 3 C 2.227208 -4.145647 2.749590 0
M  V30 4 C 3.535087 -3.712582 2.673013 0
M  V30 5 C 3.759388 -2.485336 2.075933 0
M  V30 6 C 2.654804 -1.780639 1.598614 0
M  V30 7 C 1.352452 -2.226896 1.682531 0
M  V30 8 C 0.253579 -1.426167 1.159619 0
M  V30 9 N 0.423078 -0.245559 0.586795 0
M  V30 10 C -0.518764 0.555295 0.079652 0
M  V30 11 N -0.328073 1.814934 -0.529593 0
M  V30 12 C 0.862398 2.561967 -0.725897 0
M  V30 13 C 0.998090 3.707035 -1.481483 0
M  V30 14 C 2.168916 4.405365 -1.640940 0
M  V30 15 N 3.272720 3.956159 -1.023912 0
M  V30 16 C 3.245880 2.843667 -0.260562 0
M  V30 17 C 2.035952 2.163446 -0.124414 0
M  V30 18 C -1.798055 0.066828 0.181136 0
M  V30 19 C -2.942461 0.680742 -0.253526 0
M  V30 20 C -4.211174 0.173900 -0.140467 0
M  V30 21 C -4.395510 -1.049094 0.451812 0
M  V30 22 C -3.275491 -1.712138 0.908386 0
M  V30 23 C -2.022382 -1.155598 0.768740 0
M  V30 24 N -1.004866 -1.886055 1.248960 0
M  V30 25 H -0.932128 -3.428659 3.035873 0
M  V30 26 H -0.682166 -4.218562 1.399547 0
M  V30 27 H -0.122815 -5.068952 2.842387 0
M  V30 28 H 2.042313 -5.117045 3.221475 0
M  V30 29 H 4.315656 -4.360419 3.086427 0
M  V30 30 H 4.768132 -2.128566 2.005363 0
M  V30 31 H 2.930038 -0.839759 1.150860 0
M  V30 32 H -1.109334 2.360092 -0.925655 0
M  V30 33 H 0.089275 4.069666 -1.984431 0
M  V30 34 H 2.142701 5.278459 -2.253303 0
M  V30 35 H 4.169356 2.538218 0.207243 0
M  V30 36 H 2.148776 1.308456 0.504091 0
M  V30 37 H -2.868551 1.645726 -0.727331 0
M  V30 38 H -5.082754 0.700330 -0.501006 0
M  V30 39 H -5.348770 -1.519100 0.581612 0
M  V30 40 H -3.408945 -2.696169 1.386815 0
M  V30 END ATOM
M  V30 BEGIN BOND
M  V30 1 1 1 2
M  V30 2 2 2 3
M  V30 3 1 3 4
M  V30 4 2 4 5
M  V30 5 1 5 6
M  V30 6 2 6 7
M  V30 7 1 7 8
M  V30 8 2 8 9
M  V30 9 1 9 10
M  V30 10 1 10 11
M  V30 11 1 11 12
M  V30 12 2 12 13
M  V30 13 1 13 14
M  V30 14 2 14 15
M  V30 15 1 15 16
M  V30 16 2 16 17
M  V30 17 2 10 18
M  V30 18 1 18 19
M  V30 19 2 19 20
M  V30 20 1 20 21
M  V30 21 2 21 22
M  V30 22 1 22 23
M  V30 23 2 23 24
M  V30 24 1 7 2
M  V30 25 1 24 8
M  V30 26 1 17 12
M  V30 27 1 23 18
M  V30 28 1 1 25
M  V30 29 1 1 26
M  V30 30 1 1 27
M  V30 31 1 3 28
M  V30 32 1 4 29
M  V30 33 1 5 30
M  V30 34 1 6 31
M  V30 35 1 11 32
M  V30 36 1 13 33
M  V30 37 1 14 34
M  V30 38 1 16 35
M  V30 39 1 17 36
M  V30 40 1 19 37
M  V30 41 1 20 38
M  V30 42 1 21 39
M  V30 43 1 22 40
M  V30 END BOND
M  V30 END CTAB
M  END
>  <Dataset>  (86) 
ChEMBL_Kinases

>  <Ligand_Instance>  (86) 
nan

>  <PDB_ID>  (86) 
nan

>  <Standardized_SMILES>  (86) 
Cc1ccccc1-c1nc(Nc2ccncc2)c2ccccc2n1

>  <Name>  (86) 
nan

>  <Pocket>  (86) 
nan

>  <ATP_Site>  (86) 
nan

>  <Peripheral>  (86) 
nan

>  <Num_H_Atoms_ProtBoundConf>  (86) 
nan

>  <Num_Resolved_Atoms>  (86) 
nan

>  <Num_Not_Resolved_Atoms>  (86) 
nan

$$$$
CHEMBL1395747
     RDKit          3D

  0  0  0  0  0  0  0  0  0  0999 V3000
M  V30 BEGIN CTAB
M  V30 COUNTS 43 44 0 0 0
M  V30 BEGIN ATOM
M  V30 1 C 0.788901 -6.050054 0.156263 0
M  V30 2 C 1.510312 -4.802691 0.587043 0
M  V30 3 C 1.765589 -4.858932 2.077328 0
M  V30 4 C 0.780130 -3.547578 0.176363 0
M  V30 5 N -0.531298 -3.450162 0.727621 0
M  V30 6 C 1.542756 -2.321422 0.510082 0
M  V30 7 O 2.726465 -2.264972 0.085246 0
M  V30 8 O 0.965182 -1.300988 1.252411 0
M  V30 9 C 1.653242 -0.104669 1.598934 0
M  V30 10 C 2.111320 0.685841 0.404944 0
M  V30 11 O 2.774921 1.844093 0.687039 0
M  V30 12 C 2.101474 2.806963 1.381767 0
M  V30 13 N 0.925421 3.333235 0.753542 0
M  V30 14 C 1.046211 4.411882 -0.075169 0
M  V30 15 N -0.165095 4.767765 -0.578945 0
M  V30 16 C -1.100290 3.918918 -0.081423 0
M  V30 17 C -2.475458 3.705556 -0.165562 0
M  V30 18 O -3.063450 4.533806 -0.927351 0
M  V30 19 N -3.058670 2.702719 0.518938 0
M  V30 20 C -2.326185 1.886461 1.297803 0
M  V30 21 N -2.956688 0.831483 2.014821 0
M  V30 22 N -0.998476 2.072430 1.394819 0
M  V30 23 C -0.389095 3.057824 0.728851 0
M  V30 24 H 1.396790 -6.905345 0.573490 0
M  V30 25 H -0.213561 -6.177952 0.559823 0
M  V30 26 H 0.844311 -6.192111 -0.945122 0
M  V30 27 H 2.510315 -4.849694 0.109420 0
M  V30 28 H 2.659350 -4.235824 2.278613 0
M  V30 29 H 0.891361 -4.510147 2.666470 0
M  V30 30 H 2.009602 -5.911214 2.352089 0
M  V30 31 H 0.686290 -3.602238 -0.935761 0
M  V30 32 H -1.140579 -2.821017 0.158554 0
M  V30 33 H -1.042649 -4.339194 0.862447 0
M  V30 34 H 1.064687 0.464969 2.324438 0
M  V30 35 H 2.553030 -0.461948 2.189365 0
M  V30 36 H 2.806856 0.049909 -0.180460 0
M  V30 37 H 1.224587 0.815289 -0.247889 0
M  V30 38 H 1.812201 2.362107 2.366952 0
M  V30 39 H 2.832994 3.609104 1.627226 0
M  V30 40 H 1.908264 4.978501 -0.363439 0
M  V30 41 H -4.081967 2.605556 0.407613 0
M  V30 42 H -2.400096 0.209536 2.616271 0
M  V30 43 H -3.974040 0.674825 1.943327 0
M  V30 END ATOM
M  V30 BEGIN BOND
M  V30 1 1 1 2
M  V30 2 1 2 3
M  V30 3 1 2 4
M  V30 4 1 4 5
M  V30 5 1 4 6
M  V30 6 2 6 7
M  V30 7 1 6 8
M  V30 8 1 8 9
M  V30 9 1 9 10
M  V30 10 1 10 11
M  V30 11 1 11 12
M  V30 12 1 12 13
M  V30 13 1 13 14
M  V30 14 2 14 15
M  V30 15 1 15 16
M  V30 16 1 16 17
M  V30 17 2 17 18
M  V30 18 1 17 19
M  V30 19 1 19 20
M  V30 20 1 20 21
M  V30 21 2 20 22
M  V30 22 1 22 23
M  V30 23 1 23 13
M  V30 24 2 23 16
M  V30 25 1 1 24
M  V30 26 1 1 25
M  V30 27 1 1 26
M  V30 28 1 2 27
M  V30 29 1 3 28
M  V30 30 1 3 29
M  V30 31 1 3 30
M  V30 32 1 4 31
M  V30 33 1 5 32
M  V30 34 1 5 33
M  V30 35 1 9 34
M  V30 36 1 9 35
M  V30 37 1 10 36
M  V30 38 1 10 37
M  V30 39 1 12 38
M  V30 40 1 12 39
M  V30 41 1 14 40
M  V30 42 1 19 41
M  V30 43 1 21 42
M  V30 44 1 21 43
M  V30 END BOND
M  V30 END CTAB
M  END
>  <Dataset>  (87) 
ChEMBL_Kinases

>  <Ligand_Instance>  (87) 
nan

>  <PDB_ID>  (87) 
nan

>  <Standardized_SMILES>  (87) 
CC(C)C(N)C(=O)OCCOCn1cnc2c(=O)[nH]c(N)nc21

>  <Name>  (87) 
nan

>  <Pocket>  (87) 
nan

>  <ATP_Site>  (87) 
nan

>  <Peripheral>  (87) 
nan

>  <Num_H_Atoms_ProtBoundConf>  (87) 
nan

>  <Num_Resolved_Atoms>  (87) 
nan

>  <Num_Not_Resolved_Atoms>  (87) 
nan

$$$$
CHEMBL1395431
     RDKit          3D

  0  0  0  0  0  0  0  0  0  0999 V3000
M  V30 BEGIN CTAB
M  V30 COUNTS 46 49 0 0 0
M  V30 BEGIN ATOM
M  V30 1 C -0.733303 -4.529968 4.647719 0
M  V30 2 C -0.315026 -3.422402 3.706041 0
M  V30 3 N 1.130234 -3.452413 3.621139 0
M  V30 4 C 1.799976 -2.500591 2.788598 0
M  V30 5 N 3.143334 -2.460970 2.654385 0
M  V30 6 C 3.779314 -1.567275 1.872204 0
M  V30 7 C 3.019238 -0.649420 1.175837 0
M  V30 8 N 3.570445 0.276862 0.373340 0
M  V30 9 C 2.829658 1.190985 -0.321389 0
M  V30 10 C 3.706492 2.090398 -1.126437 0
M  V30 11 C 3.207469 3.057236 -1.882817 0
M  V30 12 C 3.942872 3.900113 -2.630732 0
M  V30 13 C 5.366431 3.623568 -2.511240 0
M  V30 14 S 5.404270 2.153639 -1.306764 0
M  V30 15 C 1.482637 1.153552 -0.188704 0
M  V30 16 O 0.890733 2.028710 -0.862696 0
M  V30 17 N 0.926479 0.229869 0.612033 0
M  V30 18 C -0.519830 0.251358 0.703798 0
M  V30 19 C -1.187456 -0.620429 -0.332633 0
M  V30 20 C -2.667108 -0.583105 -0.219960 0
M  V30 21 C -3.486025 0.312129 -0.875615 0
M  V30 22 C -4.858903 0.312092 -0.742598 0
M  V30 23 C -5.438246 -0.636699 0.092472 0
M  V30 24 C -4.689799 -1.566395 0.783247 0
M  V30 25 C -3.324264 -1.495159 0.592488 0
M  V30 26 C 1.645880 -0.673847 1.299838 0
M  V30 27 N 1.078115 -1.579645 2.086796 0
M  V30 28 H 0.004794 -5.334834 4.573270 0
M  V30 29 H -0.821860 -4.098753 5.668315 0
M  V30 30 H -1.733127 -4.907031 4.345102 0
M  V30 31 H -0.597521 -2.422086 4.093075 0
M  V30 32 H -0.776053 -3.613383 2.703988 0
M  V30 33 H 1.736763 -4.129754 4.131486 0
M  V30 34 H 4.856328 -1.540805 1.768961 0
M  V30 35 H 2.200627 3.442707 -2.123294 0
M  V30 36 H 4.098993 4.710650 -3.308291 0
M  V30 37 H 6.492616 3.878277 -2.805624 0
M  V30 38 H -0.853478 1.301715 0.659485 0
M  V30 39 H -0.855057 -0.165526 1.697773 0
M  V30 40 H -0.912369 -0.225047 -1.328826 0
M  V30 41 H -0.866225 -1.658003 -0.185318 0
M  V30 42 H -2.976443 1.032954 -1.516780 0
M  V30 43 H -5.457907 1.041990 -1.283821 0
M  V30 44 H -6.523312 -0.649425 0.208035 0
M  V30 45 H -5.112669 -2.318324 1.441547 0
M  V30 46 H -2.719421 -2.233981 1.140470 0
M  V30 END ATOM
M  V30 BEGIN BOND
M  V30 1 1 1 2
M  V30 2 1 2 3
M  V30 3 1 3 4
M  V30 4 2 4 5
M  V30 5 1 5 6
M  V30 6 2 6 7
M  V30 7 1 7 8
M  V30 8 2 8 9
M  V30 9 1 9 10
M  V30 10 2 10 11
M  V30 11 1 11 12
M  V30 12 2 12 13
M  V30 13 1 13 14
M  V30 14 1 9 15
M  V30 15 2 15 16
M  V30 16 1 15 17
M  V30 17 1 17 18
M  V30 18 1 18 19
M  V30 19 1 19 20
M  V30 20 2 20 21
M  V30 21 1 21 22
M  V30 22 2 22 23
M  V30 23 1 23 24
M  V30 24 2 24 25
M  V30 25 1 17 26
M  V30 26 2 26 27
M  V30 27 1 27 4
M  V30 28 1 26 7
M  V30 29 1 14 10
M  V30 30 1 25 20
M  V30 31 1 1 28
M  V30 32 1 1 29
M  V30 33 1 1 30
M  V30 34 1 2 31
M  V30 35 1 2 32
M  V30 36 1 3 33
M  V30 37 1 6 34
M  V30 38 1 11 35
M  V30 39 1 12 36
M  V30 40 1 13 37
M  V30 41 1 18 38
M  V30 42 1 18 39
M  V30 43 1 19 40
M  V30 44 1 19 41
M  V30 45 1 21 42
M  V30 46 1 22 43
M  V30 47 1 23 44
M  V30 48 1 24 45
M  V30 49 1 25 46
M  V30 END BOND
M  V30 END CTAB
M  END
>  <Dataset>  (88) 
ChEMBL_Kinases

>  <Ligand_Instance>  (88) 
nan

>  <PDB_ID>  (88) 
nan

>  <Standardized_SMILES>  (88) 
CCNc1ncc2nc(-c3cccs3)c(=O)n(CCc3ccccc3)c2n1

>  <Name>  (88) 
nan

>  <Pocket>  (88) 
nan

>  <ATP_Site>  (88) 
nan

>  <Peripheral>  (88) 
nan

>  <Num_H_Atoms_ProtBoundConf>  (88) 
nan

>  <Num_Resolved_Atoms>  (88) 
nan

>  <Num_Not_Resolved_Atoms>  (88) 
nan

$$$$
CHEMBL1395417
     RDKit          3D

  0  0  0  0  0  0  0  0  0  0999 V3000
M  V30 BEGIN CTAB
M  V30 COUNTS 43 46 0 0 0
M  V30 BEGIN ATOM
M  V30 1 C -0.842216 -6.288612 -0.092833 0
M  V30 2 O 0.201090 -6.043927 0.831110 0
M  V30 3 C 0.711794 -4.763040 0.947971 0
M  V30 4 C 1.735036 -4.597119 1.876057 0
M  V30 5 C 2.281749 -3.329838 2.031291 0
M  V30 6 C 1.781234 -2.282601 1.251238 0
M  V30 7 C 0.766875 -2.473066 0.338711 0
M  V30 8 C 0.334227 -1.286408 -0.416299 0
M  V30 9 C -0.148756 -1.376349 -1.705428 0
M  V30 10 C -0.549115 -0.243824 -2.392226 0
M  V30 11 C -0.478353 1.021814 -1.807141 0
M  V30 12 N -0.857537 2.148027 -2.438900 0
M  V30 13 C -0.733610 3.315935 -1.744215 0
M  V30 14 N -0.256716 3.401660 -0.472262 0
M  V30 15 C 0.125332 2.253750 0.160058 0
M  V30 16 N 0.601647 2.488990 1.472793 0
M  V30 17 C 1.900805 2.226661 2.063855 0
M  V30 18 C 1.650781 1.728507 3.472691 0
M  V30 19 O 0.403848 1.168890 3.650503 0
M  V30 20 C -0.660303 2.005330 3.419445 0
M  V30 21 C -0.366854 3.096174 2.396321 0
M  V30 22 C 0.007925 1.062631 -0.524933 0
M  V30 23 C 0.410816 -0.033645 0.179963 0
M  V30 24 C 0.221241 -3.726351 0.180434 0
M  V30 25 H -1.294026 -7.286448 0.044025 0
M  V30 26 H -1.609175 -5.489599 0.119196 0
M  V30 27 H -0.439411 -6.145288 -1.114796 0
M  V30 28 H 2.113518 -5.424248 2.476295 0
M  V30 29 H 3.067933 -3.233660 2.753276 0
M  V30 30 H 2.299870 -1.338771 1.473364 0
M  V30 31 H -0.218650 -2.343657 -2.193622 0
M  V30 32 H -0.935665 -0.286509 -3.414821 0
M  V30 33 H -1.053995 4.199080 -2.299745 0
M  V30 34 H 2.560215 1.600339 1.466844 0
M  V30 35 H 2.374189 3.244945 2.189153 0
M  V30 36 H 2.381616 0.899224 3.641652 0
M  V30 37 H 1.900990 2.479685 4.254434 0
M  V30 38 H -1.463580 1.357875 2.960629 0
M  V30 39 H -1.085979 2.419338 4.364671 0
M  V30 40 H -1.271297 3.451205 1.898881 0
M  V30 41 H 0.184375 3.893383 2.936439 0
M  V30 42 H 0.791489 0.009979 1.188948 0
M  V30 43 H -0.568392 -3.859843 -0.534238 0
M  V30 END ATOM
M  V30 BEGIN BOND
M  V30 1 1 1 2
M  V30 2 1 2 3
M  V30 3 2 3 4
M  V30 4 1 4 5
M  V30 5 2 5 6
M  V30 6 1 6 7
M  V30 7 1 7 8
M  V30 8 2 8 9
M  V30 9 1 9 10
M  V30 10 2 10 11
M  V30 11 1 11 12
M  V30 12 2 12 13
M  V30 13 1 13 14
M  V30 14 2 14 15
M  V30 15 1 15 16
M  V30 16 1 16 17
M  V30 17 1 17 18
M  V30 18 1 18 19
M  V30 19 1 19 20
M  V30 20 1 20 21
M  V30 21 1 15 22
M  V30 22 2 22 23
M  V30 23 2 7 24
M  V30 24 1 24 3
M  V30 25 1 23 8
M  V30 26 1 22 11
M  V30 27 1 21 16
M  V30 28 1 1 25
M  V30 29 1 1 26
M  V30 30 1 1 27
M  V30 31 1 4 28
M  V30 32 1 5 29
M  V30 33 1 6 30
M  V30 34 1 9 31
M  V30 35 1 10 32
M  V30 36 1 13 33
M  V30 37 1 17 34
M  V30 38 1 17 35
M  V30 39 1 18 36
M  V30 40 1 18 37
M  V30 41 1 20 38
M  V30 42 1 20 39
M  V30 43 1 21 40
M  V30 44 1 21 41
M  V30 45 1 23 42
M  V30 46 1 24 43
M  V30 END BOND
M  V30 END CTAB
M  END
>  <Dataset>  (89) 
ChEMBL_Kinases

>  <Ligand_Instance>  (89) 
nan

>  <PDB_ID>  (89) 
nan

>  <Standardized_SMILES>  (89) 
COc1cccc(-c2ccc3ncnc(N4CCOCC4)c3c2)c1

>  <Name>  (89) 
nan

>  <Pocket>  (89) 
nan

>  <ATP_Site>  (89) 
nan

>  <Peripheral>  (89) 
nan

>  <Num_H_Atoms_ProtBoundConf>  (89) 
nan

>  <Num_Resolved_Atoms>  (89) 
nan

>  <Num_Not_Resolved_Atoms>  (89) 
nan

$$$$
CHEMBL1395415
     RDKit          3D

  0  0  0  0  0  0  0  0  0  0999 V3000
M  V30 BEGIN CTAB
M  V30 COUNTS 46 49 0 0 0
M  V30 BEGIN ATOM
M  V30 1 C -0.245652 -3.352559 4.237216 0
M  V30 2 N -1.162601 -3.426557 3.123746 0
M  V30 3 C -1.432715 -2.140207 2.512853 0
M  V30 4 C -1.605131 -2.318693 1.031315 0
M  V30 5 N -0.345542 -2.767129 0.431362 0
M  V30 6 C 0.352830 -2.445676 -0.760663 0
M  V30 7 N 0.582214 -3.453205 -1.639232 0
M  V30 8 C 1.249792 -3.203113 -2.804077 0
M  V30 9 N 1.688685 -1.966114 -3.100729 0
M  V30 10 C 1.493824 -0.924911 -2.273334 0
M  V30 11 C 1.901197 0.376095 -2.481689 0
M  V30 12 C 1.630091 1.358787 -1.535327 0
M  V30 13 C 0.942231 1.094978 -0.338975 0
M  V30 14 C 0.843135 2.314124 0.432567 0
M  V30 15 C 2.069473 2.886085 0.795531 0
M  V30 16 C 2.227890 4.037392 1.543454 0
M  V30 17 C 1.063836 4.650969 1.951361 0
M  V30 18 C -0.151255 4.102618 1.603334 0
M  V30 19 C -0.296230 2.952303 0.855723 0
M  V30 20 C -1.622164 2.435359 0.515900 0
M  V30 21 F -2.582760 3.325701 1.029511 0
M  V30 22 F -1.915688 1.224643 1.162655 0
M  V30 23 F -1.841154 2.303733 -0.817715 0
M  V30 24 C 0.558960 -0.212768 -0.177413 0
M  V30 25 C 0.818591 -1.194675 -1.102469 0
M  V30 26 C 0.333401 -3.760035 1.240422 0
M  V30 27 C -0.668582 -4.392613 2.181240 0
M  V30 28 H 0.468079 -2.514697 4.175092 0
M  V30 29 H -0.846314 -3.326460 5.189869 0
M  V30 30 H 0.379540 -4.285191 4.317200 0
M  V30 31 H -2.432277 -1.787821 2.898420 0
M  V30 32 H -0.691261 -1.400004 2.814083 0
M  V30 33 H -2.300205 -3.197827 0.907003 0
M  V30 34 H -2.061067 -1.478671 0.509027 0
M  V30 35 H 1.417804 -4.027970 -3.485595 0
M  V30 36 H 2.425019 0.532614 -3.412185 0
M  V30 37 H 2.026364 2.313008 -1.874094 0
M  V30 38 H 3.018566 2.424110 0.487806 0
M  V30 39 H 3.204900 4.425075 1.788411 0
M  V30 40 H 1.118669 5.558782 2.541878 0
M  V30 41 H -1.062459 4.613810 1.942669 0
M  V30 42 H 0.054734 -0.374537 0.758392 0
M  V30 43 H 0.674852 -4.586494 0.563244 0
M  V30 44 H 1.201191 -3.347972 1.754517 0
M  V30 45 H -1.444135 -4.910536 1.610419 0
M  V30 46 H -0.150379 -5.180221 2.785178 0
M  V30 END ATOM
M  V30 BEGIN BOND
M  V30 1 1 1 2
M  V30 2 1 2 3
M  V30 3 1 3 4
M  V30 4 1 4 5
M  V30 5 1 5 6
M  V30 6 2 6 7
M  V30 7 1 7 8
M  V30 8 2 8 9
M  V30 9 1 9 10
M  V30 10 2 10 11
M  V30 11 1 11 12
M  V30 12 2 12 13
M  V30 13 1 13 14
M  V30 14 2 14 15
M  V30 15 1 15 16
M  V30 16 2 16 17
M  V30 17 1 17 18
M  V30 18 2 18 19
M  V30 19 1 19 20
M  V30 20 1 20 21
M  V30 21 1 20 22
M  V30 22 1 20 23
M  V30 23 1 13 24
M  V30 24 2 24 25
M  V30 25 1 5 26
M  V30 26 1 26 27
M  V30 27 1 27 2
M  V30 28 1 25 6
M  V30 29 1 25 10
M  V30 30 1 19 14
M  V30 31 1 1 28
M  V30 32 1 1 29
M  V30 33 1 1 30
M  V30 34 1 3 31
M  V30 35 1 3 32
M  V30 36 1 4 33
M  V30 37 1 4 34
M  V30 38 1 8 35
M  V30 39 1 11 36
M  V30 40 1 12 37
M  V30 41 1 15 38
M  V30 42 1 16 39
M  V30 43 1 17 40
M  V30 44 1 18 41
M  V30 45 1 24 42
M  V30 46 1 26 43
M  V30 47 1 26 44
M  V30 48 1 27 45
M  V30 49 1 27 46
M  V30 END BOND
M  V30 END CTAB
M  END
>  <Dataset>  (90) 
ChEMBL_Kinases

>  <Ligand_Instance>  (90) 
nan

>  <PDB_ID>  (90) 
nan

>  <Standardized_SMILES>  (90) 
CN1CCN(c2ncnc3ccc(-c4ccccc4C(F)(F)F)cc23)CC1

>  <Name>  (90) 
nan

>  <Pocket>  (90) 
nan

>  <ATP_Site>  (90) 
nan

>  <Peripheral>  (90) 
nan

>  <Num_H_Atoms_ProtBoundConf>  (90) 
nan

>  <Num_Resolved_Atoms>  (90) 
nan

>  <Num_Not_Resolved_Atoms>  (90) 
nan

$$$$
CHEMBL1395334
     RDKit          3D

  0  0  0  0  0  0  0  0  0  0999 V3000
M  V30 BEGIN CTAB
M  V30 COUNTS 31 32 0 0 0
M  V30 BEGIN ATOM
M  V30 1 O -0.799992 -2.042624 3.039931 0
M  V30 2 C -0.431811 -1.453662 1.986954 0
M  V30 3 C -1.073057 -2.694024 1.690688 0
M  V30 4 C -1.095969 -3.112203 0.430348 0
M  V30 5 C -0.549386 -2.533504 -0.779286 0
M  V30 6 C 0.454826 -1.613245 -0.906770 0
M  V30 7 C 0.956290 -0.974938 -2.011416 0
M  V30 8 C 0.353123 -1.312974 -3.201536 0
M  V30 9 O 0.782357 -0.727338 -4.375416 0
M  V30 10 C -0.672685 -2.229340 -3.225897 0
M  V30 11 C -1.072055 -2.790389 -2.031906 0
M  V30 12 C 0.106117 -0.365545 2.709063 0
M  V30 13 C 0.498877 -0.208127 4.024990 0
M  V30 14 C 1.101568 0.867543 4.626226 0
M  V30 15 C 1.302854 1.872213 3.728025 0
M  V30 16 O 1.923529 2.960373 4.375235 0
M  V30 17 C 0.960047 1.844700 2.395439 0
M  V30 18 C 0.357545 0.719598 1.884596 0
M  V30 19 O 0.148513 1.042253 0.538474 0
M  V30 20 H -1.629675 -3.549547 2.114657 0
M  V30 21 H -1.568596 -4.050554 0.113125 0
M  V30 22 H 0.974001 -1.370914 0.022774 0
M  V30 23 H 1.750254 -0.271694 -1.958435 0
M  V30 24 H 1.640721 -0.212582 -4.414073 0
M  V30 25 H -1.137867 -2.485790 -4.164797 0
M  V30 26 H -1.891525 -3.503999 -2.157106 0
M  V30 27 H 0.290745 -1.093541 4.631388 0
M  V30 28 H 1.341917 0.823585 5.671151 0
M  V30 29 H 1.627550 3.874356 4.081111 0
M  V30 30 H 1.247494 2.795298 1.936376 0
M  V30 31 H -0.741073 1.272301 0.141551 0
M  V30 END ATOM
M  V30 BEGIN BOND
M  V30 1 2 1 2
M  V30 2 1 2 3
M  V30 3 2 3 4
M  V30 4 1 4 5
M  V30 5 2 5 6
M  V30 6 1 6 7
M  V30 7 2 7 8
M  V30 8 1 8 9
M  V30 9 1 8 10
M  V30 10 2 10 11
M  V30 11 1 2 12
M  V30 12 2 12 13
M  V30 13 1 13 14
M  V30 14 2 14 15
M  V30 15 1 15 16
M  V30 16 1 15 17
M  V30 17 2 17 18
M  V30 18 1 18 19
M  V30 19 1 11 5
M  V30 20 1 18 12
M  V30 21 1 3 20
M  V30 22 1 4 21
M  V30 23 1 6 22
M  V30 24 1 7 23
M  V30 25 1 9 24
M  V30 26 1 10 25
M  V30 27 1 11 26
M  V30 28 1 13 27
M  V30 29 1 14 28
M  V30 30 1 16 29
M  V30 31 1 17 30
M  V30 32 1 19 31
M  V30 END BOND
M  V30 END CTAB
M  END
>  <Dataset>  (91) 
ChEMBL_Kinases

>  <Ligand_Instance>  (91) 
nan

>  <PDB_ID>  (91) 
nan

>  <Standardized_SMILES>  (91) 
O=C(/C=C\c1ccc(O)cc1)c1ccc(O)cc1O

>  <Name>  (91) 
nan

>  <Pocket>  (91) 
nan

>  <ATP_Site>  (91) 
nan

>  <Peripheral>  (91) 
nan

>  <Num_H_Atoms_ProtBoundConf>  (91) 
nan

>  <Num_Resolved_Atoms>  (91) 
nan

>  <Num_Not_Resolved_Atoms>  (91) 
nan

$$$$
CHEMBL1393118
     RDKit          3D

  0  0  0  0  0  0  0  0  0  0999 V3000
M  V30 BEGIN CTAB
M  V30 COUNTS 33 34 0 0 0
M  V30 BEGIN ATOM
M  V30 1 C -2.601206 -2.078280 1.946092 0
M  V30 2 C -1.606637 -3.020457 2.599952 0
M  V30 3 N -0.370105 -2.317585 2.911656 0
M  V30 4 C 0.288857 -1.758573 1.781017 0
M  V30 5 N 1.203883 -2.462291 1.086366 0
M  V30 6 C 1.833274 -1.920429 0.001757 0
M  V30 7 C 2.838312 -2.742096 -0.732444 0
M  V30 8 C 1.514848 -0.629432 -0.375250 0
M  V30 9 C 2.122829 -0.054260 -1.453543 0
M  V30 10 C 1.754049 1.244838 -1.774200 0
M  V30 11 Br 2.578108 2.102684 -3.281999 0
M  V30 12 C 0.804710 1.887384 -1.001717 0
M  V30 13 O 0.480625 3.062905 -1.303539 0
M  V30 14 N 0.204279 1.322043 0.061596 0
M  V30 15 C -0.790917 2.034391 0.848458 0
M  V30 16 C -2.162015 1.764359 0.253167 0
M  V30 17 C 0.562189 0.060261 0.373381 0
M  V30 18 N -0.038407 -0.486712 1.426052 0
M  V30 19 H -2.243897 -1.797721 0.920084 0
M  V30 20 H -2.627045 -1.139279 2.528180 0
M  V30 21 H -3.586187 -2.571558 1.922405 0
M  V30 22 H -2.092212 -3.363565 3.543902 0
M  V30 23 H -1.408606 -3.907469 1.971654 0
M  V30 24 H 0.011649 -2.226296 3.891670 0
M  V30 25 H 2.604202 -3.835005 -0.565099 0
M  V30 26 H 2.800259 -2.627296 -1.823578 0
M  V30 27 H 3.863069 -2.605942 -0.342013 0
M  V30 28 H 2.857550 -0.598044 -2.023872 0
M  V30 29 H -0.743301 1.594936 1.880136 0
M  V30 30 H -0.563069 3.105701 0.911618 0
M  V30 31 H -2.680614 0.968180 0.859328 0
M  V30 32 H -2.100003 1.339848 -0.771764 0
M  V30 33 H -2.767492 2.672687 0.165655 0
M  V30 END ATOM
M  V30 BEGIN BOND
M  V30 1 1 1 2
M  V30 2 1 2 3
M  V30 3 1 3 4
M  V30 4 2 4 5
M  V30 5 1 5 6
M  V30 6 1 6 7
M  V30 7 2 6 8
M  V30 8 1 8 9
M  V30 9 2 9 10
M  V30 10 1 10 11
M  V30 11 1 10 12
M  V30 12 2 12 13
M  V30 13 1 12 14
M  V30 14 1 14 15
M  V30 15 1 15 16
M  V30 16 1 14 17
M  V30 17 2 17 18
M  V30 18 1 18 4
M  V30 19 1 17 8
M  V30 20 1 1 19
M  V30 21 1 1 20
M  V30 22 1 1 21
M  V30 23 1 2 22
M  V30 24 1 2 23
M  V30 25 1 3 24
M  V30 26 1 7 25
M  V30 27 1 7 26
M  V30 28 1 7 27
M  V30 29 1 9 28
M  V30 30 1 15 29
M  V30 31 1 15 30
M  V30 32 1 16 31
M  V30 33 1 16 32
M  V30 34 1 16 33
M  V30 END BOND
M  V30 END CTAB
M  END
>  <Dataset>  (92) 
ChEMBL_Kinases

>  <Ligand_Instance>  (92) 
nan

>  <PDB_ID>  (92) 
nan

>  <Standardized_SMILES>  (92) 
CCNc1nc(C)c2cc(Br)c(=O)n(CC)c2n1

>  <Name>  (92) 
nan

>  <Pocket>  (92) 
nan

>  <ATP_Site>  (92) 
nan

>  <Peripheral>  (92) 
nan

>  <Num_H_Atoms_ProtBoundConf>  (92) 
nan

>  <Num_Resolved_Atoms>  (92) 
nan

>  <Num_Not_Resolved_Atoms>  (92) 
nan

$$$$
CHEMBL1393143
     RDKit          3D

  0  0  0  0  0  0  0  0  0  0999 V3000
M  V30 BEGIN CTAB
M  V30 COUNTS 47 51 0 0 0
M  V30 BEGIN ATOM
M  V30 1 O 1.959882 -1.288724 4.558818 0
M  V30 2 C 1.084648 -0.651379 3.949752 0
M  V30 3 C 1.445228 0.550054 3.204395 0
M  V30 4 C 1.442792 0.445558 1.808786 0
M  V30 5 C 1.801162 1.675359 1.285709 0
M  V30 6 C 1.929007 2.032962 -0.130525 0
M  V30 7 C 1.707825 1.112531 -1.142239 0
M  V30 8 C 1.825399 1.467350 -2.473210 0
M  V30 9 C 2.171459 2.773599 -2.757290 0
M  V30 10 C 2.398936 3.716727 -1.772070 0
M  V30 11 C 2.273814 3.331335 -0.452705 0
M  V30 12 O 2.720376 4.903609 -2.431305 0
M  V30 13 C 2.228975 4.831559 -3.779820 0
M  V30 14 O 2.364758 3.425483 -3.991834 0
M  V30 15 O 2.001195 2.451668 2.319324 0
M  V30 16 N 1.802853 1.827410 3.432120 0
M  V30 17 N -0.327362 -0.940690 3.863958 0
M  V30 18 C -1.315994 -0.150868 3.128707 0
M  V30 19 C -1.889800 -0.959366 1.975966 0
M  V30 20 N -1.856280 -2.385229 2.215961 0
M  V30 21 C -1.598931 -3.377567 1.238541 0
M  V30 22 C -1.310372 -3.038518 -0.054704 0
M  V30 23 C -1.044956 -3.952842 -1.081162 0
M  V30 24 C -1.091066 -5.297694 -0.703205 0
M  V30 25 C -1.376441 -5.669267 0.579206 0
M  V30 26 C -1.633754 -4.713937 1.565458 0
M  V30 27 C -2.126652 -2.619590 3.614194 0
M  V30 28 C -1.018517 -2.049849 4.479541 0
M  V30 29 H 1.221719 -0.383383 1.144757 0
M  V30 30 H 1.438630 0.097073 -0.871371 0
M  V30 31 H 1.649067 0.733783 -3.251812 0
M  V30 32 H 2.449797 4.063093 0.326048 0
M  V30 33 H 2.825554 5.437893 -4.480089 0
M  V30 34 H 1.152357 5.090725 -3.737389 0
M  V30 35 H -2.151992 0.132123 3.797431 0
M  V30 36 H -0.870198 0.766757 2.713314 0
M  V30 37 H -2.986567 -0.719083 1.847799 0
M  V30 38 H -1.439328 -0.655454 1.012713 0
M  V30 39 H -1.256405 -2.025951 -0.423382 0
M  V30 40 H -0.820291 -3.676833 -2.091597 0
M  V30 41 H -0.896612 -6.069937 -1.442816 0
M  V30 42 H -1.400346 -6.738166 0.823894 0
M  V30 43 H -1.843764 -5.115792 2.528925 0
M  V30 44 H -3.077200 -2.074390 3.898475 0
M  V30 45 H -2.266928 -3.686421 3.828502 0
M  V30 46 H -0.284436 -2.884587 4.600076 0
M  V30 47 H -1.421156 -1.685403 5.447754 0
M  V30 END ATOM
M  V30 BEGIN BOND
M  V30 1 2 1 2
M  V30 2 1 2 3
M  V30 3 1 3 4
M  V30 4 2 4 5
M  V30 5 1 5 6
M  V30 6 2 6 7
M  V30 7 1 7 8
M  V30 8 2 8 9
M  V30 9 1 9 10
M  V30 10 2 10 11
M  V30 11 1 10 12
M  V30 12 1 12 13
M  V30 13 1 13 14
M  V30 14 1 5 15
M  V30 15 1 15 16
M  V30 16 1 2 17
M  V30 17 1 17 18
M  V30 18 1 18 19
M  V30 19 1 19 20
M  V30 20 1 20 21
M  V30 21 2 21 22
M  V30 22 1 22 23
M  V30 23 2 23 24
M  V30 24 1 24 25
M  V30 25 2 25 26
M  V30 26 1 20 27
M  V30 27 1 27 28
M  V30 28 2 16 3
M  V30 29 1 28 17
M  V30 30 1 11 6
M  V30 31 1 26 21
M  V30 32 1 14 9
M  V30 33 1 4 29
M  V30 34 1 7 30
M  V30 35 1 8 31
M  V30 36 1 11 32
M  V30 37 1 13 33
M  V30 38 1 13 34
M  V30 39 1 18 35
M  V30 40 1 18 36
M  V30 41 1 19 37
M  V30 42 1 19 38
M  V30 43 1 22 39
M  V30 44 1 23 40
M  V30 45 1 24 41
M  V30 46 1 25 42
M  V30 47 1 26 43
M  V30 48 1 27 44
M  V30 49 1 27 45
M  V30 50 1 28 46
M  V30 51 1 28 47
M  V30 END BOND
M  V30 END CTAB
M  END
>  <Dataset>  (93) 
ChEMBL_Kinases

>  <Ligand_Instance>  (93) 
nan

>  <PDB_ID>  (93) 
nan

>  <Standardized_SMILES>  (93) 
O=C(c1cc(-c2ccc3c(c2)OCO3)on1)N1CCN(c2ccccc2)CC1

>  <Name>  (93) 
nan

>  <Pocket>  (93) 
nan

>  <ATP_Site>  (93) 
nan

>  <Peripheral>  (93) 
nan

>  <Num_H_Atoms_ProtBoundConf>  (93) 
nan

>  <Num_Resolved_Atoms>  (93) 
nan

>  <Num_Not_Resolved_Atoms>  (93) 
nan

$$$$
CHEMBL1393342
     RDKit          3D

  0  0  0  0  0  0  0  0  0  0999 V3000
M  V30 BEGIN CTAB
M  V30 COUNTS 58 61 0 0 0
M  V30 BEGIN ATOM
M  V30 1 O 4.208481 2.299091 0.194244 0
M  V30 2 C 3.588540 1.220170 0.424905 0
M  V30 3 N 4.203768 -0.011305 0.060202 0
M  V30 4 C 5.489121 -0.010041 -0.549919 0
M  V30 5 C 5.430096 0.058797 -1.946669 0
M  V30 6 C 6.575190 0.071324 -2.725500 0
M  V30 7 C 7.823514 0.015197 -2.131463 0
M  V30 8 F 9.004096 0.022219 -2.812558 0
M  V30 9 C 7.866065 -0.052926 -0.742012 0
M  V30 10 C 6.728737 -0.065714 0.038721 0
M  V30 11 C 2.257488 1.140071 1.052068 0
M  V30 12 C 2.246976 0.351258 2.342443 0
M  V30 13 C 0.965690 0.661228 3.029308 0
M  V30 14 C -0.280724 0.464003 2.214093 0
M  V30 15 C -0.802735 -0.948345 2.396766 0
M  V30 16 N -2.011562 -1.186094 1.633116 0
M  V30 17 C -2.616599 -2.472539 1.685393 0
M  V30 18 C -3.711384 -3.150933 1.166212 0
M  V30 19 N -4.740808 -2.697326 0.272011 0
M  V30 20 C -6.015494 -2.079181 0.647228 0
M  V30 21 C -5.863884 -0.609151 0.263105 0
M  V30 22 C -5.173410 -0.467219 -1.058660 0
M  V30 23 C -5.234212 -1.728342 -1.903258 0
M  V30 24 C -4.519906 -2.856788 -1.168479 0
M  V30 25 C -3.398957 -4.322234 1.822125 0
M  V30 26 O -4.000639 -5.424192 1.808022 0
M  V30 27 C -2.321543 -3.673909 2.340255 0
M  V30 28 O -1.428315 -4.093478 3.125839 0
M  V30 29 C -0.122023 0.806901 0.767599 0
M  V30 30 C 1.227942 0.472564 0.179043 0
M  V30 31 H 3.762020 -0.965878 0.213613 0
M  V30 32 H 4.486609 0.106805 -2.511495 0
M  V30 33 H 6.529981 0.124528 -3.805396 0
M  V30 34 H 8.780049 -0.101039 -0.161845 0
M  V30 35 H 6.698601 -0.116605 1.105070 0
M  V30 36 H 1.878930 2.158962 1.285811 0
M  V30 37 H 3.069516 0.649487 3.000174 0
M  V30 38 H 2.359947 -0.717117 2.091520 0
M  V30 39 H 1.051718 1.698905 3.448722 0
M  V30 40 H 0.877064 0.011386 3.928155 0
M  V30 41 H -1.052823 1.142881 2.636917 0
M  V30 42 H 0.018981 -1.630377 2.096454 0
M  V30 43 H -1.012671 -1.163801 3.464432 0
M  V30 44 H -2.536027 -0.501022 1.011769 0
M  V30 45 H -6.834131 -2.486475 -0.001412 0
M  V30 46 H -6.180802 -2.233404 1.713200 0
M  V30 47 H -6.843545 -0.103369 0.185771 0
M  V30 48 H -5.291991 -0.071570 1.060173 0
M  V30 49 H -4.091124 -0.244146 -0.907209 0
M  V30 50 H -5.586733 0.359932 -1.676699 0
M  V30 51 H -6.250767 -1.996512 -2.218873 0
M  V30 52 H -4.669196 -1.503814 -2.834892 0
M  V30 53 H -4.820418 -3.849985 -1.526650 0
M  V30 54 H -3.439235 -2.737553 -1.340672 0
M  V30 55 H -0.880101 0.284758 0.166414 0
M  V30 56 H -0.258591 1.919030 0.640199 0
M  V30 57 H 1.225020 0.830044 -0.856030 0
M  V30 58 H 1.380815 -0.635006 0.255859 0
M  V30 END ATOM
M  V30 BEGIN BOND
M  V30 1 2 1 2
M  V30 2 1 2 3
M  V30 3 1 3 4
M  V30 4 2 4 5
M  V30 5 1 5 6
M  V30 6 2 6 7
M  V30 7 1 7 8
M  V30 8 1 7 9
M  V30 9 2 9 10
M  V30 10 1 2 11
M  V30 11 1 11 12
M  V30 12 1 12 13
M  V30 13 1 13 14
M  V30 14 1 14 15
M  V30 15 1 15 16
M  V30 16 1 16 17
M  V30 17 2 17 18
M  V30 18 1 18 19
M  V30 19 1 19 20
M  V30 20 1 20 21
M  V30 21 1 21 22
M  V30 22 1 22 23
M  V30 23 1 23 24
M  V30 24 1 18 25
M  V30 25 2 25 26
M  V30 26 1 25 27
M  V30 27 2 27 28
M  V30 28 1 14 29
M  V30 29 1 29 30
M  V30 30 1 10 4
M  V30 31 1 30 11
M  V30 32 1 27 17
M  V30 33 1 24 19
M  V30 34 1 3 31
M  V30 35 1 5 32
M  V30 36 1 6 33
M  V30 37 1 9 34
M  V30 38 1 10 35
M  V30 39 1 11 36
M  V30 40 1 12 37
M  V30 41 1 12 38
M  V30 42 1 13 39
M  V30 43 1 13 40
M  V30 44 1 14 41
M  V30 45 1 15 42
M  V30 46 1 15 43
M  V30 47 1 16 44
M  V30 48 1 20 45
M  V30 49 1 20 46
M  V30 50 1 21 47
M  V30 51 1 21 48
M  V30 52 1 22 49
M  V30 53 1 22 50
M  V30 54 1 23 51
M  V30 55 1 23 52
M  V30 56 1 24 53
M  V30 57 1 24 54
M  V30 58 1 29 55
M  V30 59 1 29 56
M  V30 60 1 30 57
M  V30 61 1 30 58
M  V30 END BOND
M  V30 END CTAB
M  END
>  <Dataset>  (94) 
ChEMBL_Kinases

>  <Ligand_Instance>  (94) 
nan

>  <PDB_ID>  (94) 
nan

>  <Standardized_SMILES>  (94) 
O=C(Nc1ccc(F)cc1)C1CCC(CNc2c(N3CCCCC3)c(=O)c2=O)CC1

>  <Name>  (94) 
nan

>  <Pocket>  (94) 
nan

>  <ATP_Site>  (94) 
nan

>  <Peripheral>  (94) 
nan

>  <Num_H_Atoms_ProtBoundConf>  (94) 
nan

>  <Num_Resolved_Atoms>  (94) 
nan

>  <Num_Not_Resolved_Atoms>  (94) 
nan

$$$$
CHEMBL1393452
     RDKit          3D

  0  0  0  0  0  0  0  0  0  0999 V3000
M  V30 BEGIN CTAB
M  V30 COUNTS 46 48 0 0 0
M  V30 BEGIN ATOM
M  V30 1 C 0.448031 -3.194824 0.658529 0
M  V30 2 C 1.602384 -2.472307 0.003042 0
M  V30 3 C 2.329079 -3.350697 -0.976704 0
M  V30 4 C 1.938921 -1.218105 0.263374 0
M  V30 5 N 2.944955 -0.334588 -0.200079 0
M  V30 6 C 4.018457 -0.296104 -1.085439 0
M  V30 7 O 4.124343 -1.397079 -1.649795 0
M  V30 8 C 4.930644 0.778070 -1.388044 0
M  V30 9 C 4.952180 2.062701 -0.851701 0
M  V30 10 C 6.006887 2.764289 -1.434813 0
M  V30 11 C 6.550108 1.829488 -2.294548 0
M  V30 12 O 5.909419 0.687077 -2.249449 0
M  V30 13 C 1.262502 -0.365103 1.234752 0
M  V30 14 O 1.558395 0.862962 1.513629 0
M  V30 15 N 0.214702 -0.400500 2.144571 0
M  V30 16 C -0.044971 0.809018 2.902368 0
M  V30 17 C -1.238566 0.431928 3.792344 0
M  V30 18 C -2.399883 0.043301 2.990287 0
M  V30 19 N -2.457182 0.007229 1.653161 0
M  V30 20 C -3.705440 -0.403844 1.303085 0
M  V30 21 C -4.242015 -0.594978 0.045286 0
M  V30 22 C -5.547495 -1.021501 -0.059262 0
M  V30 23 C -6.276881 -1.243826 1.108685 0
M  V30 24 C -5.679952 -1.033465 2.333608 0
M  V30 25 C -4.382275 -0.608820 2.489216 0
M  V30 26 N -3.563302 -0.328541 3.531172 0
M  V30 27 H 0.362572 -4.191742 0.101029 0
M  V30 28 H 0.609233 -3.396976 1.716805 0
M  V30 29 H -0.494322 -2.697606 0.365597 0
M  V30 30 H 2.196593 -3.060183 -2.017247 0
M  V30 31 H 3.334013 -3.626207 -0.634304 0
M  V30 32 H 1.784360 -4.365365 -0.941904 0
M  V30 33 H 3.015655 0.674499 0.174129 0
M  V30 34 H 4.265852 2.443387 -0.110910 0
M  V30 35 H 6.320982 3.783655 -1.258679 0
M  V30 36 H 7.394777 1.962515 -2.946621 0
M  V30 37 H -0.202695 -1.344339 2.105451 0
M  V30 38 H -0.381792 1.615646 2.230010 0
M  V30 39 H 0.794339 1.110367 3.561306 0
M  V30 40 H -0.969745 -0.457665 4.423785 0
M  V30 41 H -1.438680 1.251762 4.500481 0
M  V30 42 H -3.614802 -0.401979 -0.819513 0
M  V30 43 H -5.899256 -1.149272 -1.073682 0
M  V30 44 H -7.293182 -1.576455 0.982679 0
M  V30 45 H -6.282871 -1.218341 3.214738 0
M  V30 46 H -3.865780 -0.413951 4.537477 0
M  V30 END ATOM
M  V30 BEGIN BOND
M  V30 1 1 1 2
M  V30 2 1 2 3
M  V30 3 2 2 4 CFG=2
M  V30 4 1 4 5
M  V30 5 1 5 6
M  V30 6 2 6 7
M  V30 7 1 6 8
M  V30 8 2 8 9
M  V30 9 1 9 10
M  V30 10 2 10 11
M  V30 11 1 11 12
M  V30 12 1 4 13
M  V30 13 2 13 14
M  V30 14 1 13 15
M  V30 15 1 15 16
M  V30 16 1 16 17
M  V30 17 1 17 18
M  V30 18 2 18 19
M  V30 19 1 19 20
M  V30 20 2 20 21
M  V30 21 1 21 22
M  V30 22 2 22 23
M  V30 23 1 23 24
M  V30 24 2 24 25
M  V30 25 1 25 26
M  V30 26 1 12 8
M  V30 27 1 26 18
M  V30 28 1 25 20
M  V30 29 1 1 27
M  V30 30 1 1 28
M  V30 31 1 1 29
M  V30 32 1 3 30
M  V30 33 1 3 31
M  V30 34 1 3 32
M  V30 35 1 5 33
M  V30 36 1 9 34
M  V30 37 1 10 35
M  V30 38 1 11 36
M  V30 39 1 15 37
M  V30 40 1 16 38
M  V30 41 1 16 39
M  V30 42 1 17 40
M  V30 43 1 17 41
M  V30 44 1 21 42
M  V30 45 1 22 43
M  V30 46 1 23 44
M  V30 47 1 24 45
M  V30 48 1 26 46
M  V30 END BOND
M  V30 END CTAB
M  END
>  <Dataset>  (95) 
ChEMBL_Kinases

>  <Ligand_Instance>  (95) 
nan

>  <PDB_ID>  (95) 
nan

>  <Standardized_SMILES>  (95) 
CC(C)=C(NC(=O)c1ccco1)C(=O)NCCc1nc2ccccc2[nH]1

>  <Name>  (95) 
nan

>  <Pocket>  (95) 
nan

>  <ATP_Site>  (95) 
nan

>  <Peripheral>  (95) 
nan

>  <Num_H_Atoms_ProtBoundConf>  (95) 
nan

>  <Num_Resolved_Atoms>  (95) 
nan

>  <Num_Not_Resolved_Atoms>  (95) 
nan

$$$$
CHEMBL1393457
     RDKit          3D

  0  0  0  0  0  0  0  0  0  0999 V3000
M  V30 BEGIN CTAB
M  V30 COUNTS 61 62 0 0 0
M  V30 BEGIN ATOM
M  V30 1 C 4.137019 2.800319 -0.079775 0
M  V30 2 C 3.808003 1.380381 0.399827 0
M  V30 3 C 4.219892 0.442298 -0.683143 0
M  V30 4 C 2.392163 1.391572 0.784833 0 CFG=2
M  V30 5 N 1.908504 0.098547 1.275994 0
M  V30 6 C 1.104632 -0.471048 2.341230 0
M  V30 7 O 1.352990 0.748062 2.201054 0
M  V30 8 C 0.294466 -0.504666 3.523351 0
M  V30 9 C 0.010275 0.516672 4.398967 0
M  V30 10 C -0.823073 0.335536 5.467561 0
M  V30 11 N -1.130717 1.375456 6.377239 0 CHG=1 VAL=4
M  V30 12 O -0.600051 2.507767 6.171151 0
M  V30 13 O -1.977943 1.121412 7.427428 0 CHG=-1 VAL=1
M  V30 14 C -1.341044 -0.916348 5.594294 0
M  V30 15 C -1.084372 -1.960759 4.745938 0
M  V30 16 I -2.002643 -3.834982 5.134001 0
M  V30 17 C -0.244298 -1.769013 3.674439 0
M  V30 18 N -0.028691 -2.923818 2.881638 0
M  V30 19 C 0.134181 -3.246665 1.531176 0
M  V30 20 C -0.956547 -3.115278 0.547192 0
M  V30 21 C -1.528028 -1.738444 0.324634 0
M  V30 22 C -2.371877 -1.742296 -0.949610 0 CFG=1
M  V30 23 C -3.556039 -2.505447 -0.975318 0
M  V30 24 N -4.708182 -1.948176 -1.617196 0
M  V30 25 O -3.710487 -3.637886 -0.488154 0
M  V30 26 N -2.420370 -0.455378 -1.622890 0
M  V30 27 C -1.662225 0.628825 -2.139074 0
M  V30 28 O -0.674796 0.110870 -1.573302 0
M  V30 29 C -0.387926 1.321692 -2.291017 0 CFG=2
M  V30 30 C 0.223818 1.241056 -3.678566 0
M  V30 31 O 0.583922 -0.034964 -4.059202 0
M  V30 32 N 0.589247 0.821417 -1.297763 0
M  V30 33 C 1.451437 1.592942 -0.405640 0
M  V30 34 O 1.306239 2.754150 -0.852825 0
M  V30 35 H 3.731046 2.823998 -1.128532 0
M  V30 36 H 3.528611 3.560525 0.475741 0
M  V30 37 H 5.195899 3.045551 -0.005297 0
M  V30 38 H 4.406120 1.230080 1.310706 0
M  V30 39 H 4.746175 0.958445 -1.527733 0
M  V30 40 H 3.444612 -0.174229 -1.130910 0
M  V30 41 H 4.999414 -0.282248 -0.294840 0
M  V30 42 H 2.201424 2.270343 1.399293 0
M  V30 43 H 2.278367 -0.675402 0.620982 0
M  V30 44 H 0.461344 1.485288 4.229124 0
M  V30 45 H -2.000029 -1.075973 6.429621 0
M  V30 46 H 0.035282 -3.815559 3.484537 0
M  V30 47 H 0.604323 -4.279121 1.446999 0
M  V30 48 H 0.982413 -2.606239 1.117030 0
M  V30 49 H -1.791219 -3.843314 0.714620 0
M  V30 50 H -0.533047 -3.454240 -0.448164 0
M  V30 51 H -2.236789 -1.519440 1.180568 0
M  V30 52 H -0.783461 -0.956596 0.354457 0
M  V30 53 H -1.584481 -2.290792 -1.640456 0
M  V30 54 H -5.524131 -1.578357 -2.141496 0
M  V30 55 H -5.248077 -1.352875 -0.964726 0
M  V30 56 H -3.296712 0.028149 -1.931268 0
M  V30 57 H -0.491241 2.401186 -2.078594 0
M  V30 58 H 1.129614 1.886578 -3.750906 0
M  V30 59 H -0.474153 1.650930 -4.433877 0
M  V30 60 H -0.153028 -0.685843 -4.029378 0
M  V30 61 H 1.031431 -0.011484 -0.870217 0
M  V30 END ATOM
M  V30 BEGIN BOND
M  V30 1 1 1 2
M  V30 2 1 2 3
M  V30 3 1 2 4
M  V30 4 1 4 5
M  V30 5 1 5 6
M  V30 6 2 6 7
M  V30 7 1 6 8
M  V30 8 2 8 9
M  V30 9 1 9 10
M  V30 10 1 10 11
M  V30 11 2 11 12
M  V30 12 1 11 13
M  V30 13 2 10 14
M  V30 14 1 14 15
M  V30 15 1 15 16
M  V30 16 2 15 17
M  V30 17 1 17 18
M  V30 18 1 18 19
M  V30 19 1 19 20
M  V30 20 1 20 21
M  V30 21 1 21 22
M  V30 22 1 22 23
M  V30 23 1 23 24
M  V30 24 2 23 25
M  V30 25 1 22 26
M  V30 26 1 26 27
M  V30 27 2 27 28
M  V30 28 1 27 29
M  V30 29 1 29 30
M  V30 30 1 30 31
M  V30 31 1 29 32
M  V30 32 1 32 33
M  V30 33 2 33 34
M  V30 34 1 33 4
M  V30 35 1 17 8
M  V30 36 1 1 35
M  V30 37 1 1 36
M  V30 38 1 1 37
M  V30 39 1 2 38
M  V30 40 1 3 39
M  V30 41 1 3 40
M  V30 42 1 3 41
M  V30 43 1 4 42 CFG=1
M  V30 44 1 5 43
M  V30 45 1 9 44
M  V30 46 1 14 45
M  V30 47 1 18 46
M  V30 48 1 19 47
M  V30 49 1 19 48
M  V30 50 1 20 49
M  V30 51 1 20 50
M  V30 52 1 21 51
M  V30 53 1 21 52
M  V30 54 1 22 53 CFG=3
M  V30 55 1 24 54
M  V30 56 1 24 55
M  V30 57 1 26 56
M  V30 58 1 29 57 CFG=1
M  V30 59 1 30 58
M  V30 60 1 30 59
M  V30 61 1 31 60
M  V30 62 1 32 61
M  V30 END BOND
M  V30 END CTAB
M  END
>  <Dataset>  (96) 
ChEMBL_Kinases

>  <Ligand_Instance>  (96) 
nan

>  <PDB_ID>  (96) 
nan

>  <Standardized_SMILES>  (96) 
CC(C)[C@@H]1NC(=O)c2cc([N+](=O)[O-])cc(I)c2NCCC[C@@H](C(N)=O)NC(=O)[C@H](CO)NC1=O

>  <Name>  (96) 
nan

>  <Pocket>  (96) 
nan

>  <ATP_Site>  (96) 
nan

>  <Peripheral>  (96) 
nan

>  <Num_H_Atoms_ProtBoundConf>  (96) 
nan

>  <Num_Resolved_Atoms>  (96) 
nan

>  <Num_Not_Resolved_Atoms>  (96) 
nan

$$$$
CHEMBL1393607
     RDKit          3D

  0  0  0  0  0  0  0  0  0  0999 V3000
M  V30 BEGIN CTAB
M  V30 COUNTS 29 30 0 0 0
M  V30 BEGIN ATOM
M  V30 1 C -2.106066 -3.024392 3.733194 0
M  V30 2 C -1.016653 -2.029505 4.096039 0
M  V30 3 N -0.444476 -1.497967 2.869548 0
M  V30 4 C 0.619655 -2.088006 2.257096 0
M  V30 5 C 1.165354 -1.584359 1.090850 0
M  V30 6 C 0.627783 -0.445578 0.511619 0
M  V30 7 C 1.188311 0.104224 -0.720808 0
M  V30 8 C 0.408842 0.521659 -1.782409 0
M  V30 9 C 0.983681 1.042481 -2.945073 0
M  V30 10 C 2.359097 1.126768 -2.999092 0
M  V30 11 C 3.165484 0.710071 -1.936418 0
M  V30 12 C 2.582078 0.196408 -0.791449 0
M  V30 13 C -0.449503 0.127048 1.157766 0
M  V30 14 C -1.064176 1.310732 0.620889 0
M  V30 15 N -1.554486 2.287038 0.196386 0
M  V30 16 C -0.980514 -0.392084 2.323318 0
M  V30 17 O -1.975685 0.153760 2.902385 0
M  V30 18 H -1.705894 -3.671722 2.906077 0
M  V30 19 H -2.358909 -3.687384 4.575080 0
M  V30 20 H -3.008841 -2.489144 3.340382 0
M  V30 21 H -1.445412 -1.160610 4.652546 0
M  V30 22 H -0.255407 -2.558477 4.703779 0
M  V30 23 H 0.986178 -2.970057 2.763658 0
M  V30 24 H 2.024990 -2.105923 0.643599 0
M  V30 25 H -0.668873 0.446139 -1.718019 0
M  V30 26 H 0.374187 1.369530 -3.776693 0
M  V30 27 H 2.771868 1.539993 -3.926049 0
M  V30 28 H 4.240580 0.830020 -2.105541 0
M  V30 29 H 3.259707 -0.113062 0.006033 0
M  V30 END ATOM
M  V30 BEGIN BOND
M  V30 1 1 1 2
M  V30 2 1 2 3
M  V30 3 1 3 4
M  V30 4 2 4 5
M  V30 5 1 5 6
M  V30 6 1 6 7
M  V30 7 2 7 8
M  V30 8 1 8 9
M  V30 9 2 9 10
M  V30 10 1 10 11
M  V30 11 2 11 12
M  V30 12 2 6 13
M  V30 13 1 13 14
M  V30 14 3 14 15
M  V30 15 1 13 16
M  V30 16 2 16 17
M  V30 17 1 16 3
M  V30 18 1 12 7
M  V30 19 1 1 18
M  V30 20 1 1 19
M  V30 21 1 1 20
M  V30 22 1 2 21
M  V30 23 1 2 22
M  V30 24 1 4 23
M  V30 25 1 5 24
M  V30 26 1 8 25
M  V30 27 1 9 26
M  V30 28 1 10 27
M  V30 29 1 11 28
M  V30 30 1 12 29
M  V30 END BOND
M  V30 END CTAB
M  END
>  <Dataset>  (97) 
ChEMBL_Kinases

>  <Ligand_Instance>  (97) 
nan

>  <PDB_ID>  (97) 
nan

>  <Standardized_SMILES>  (97) 
CCn1ccc(-c2ccccc2)c(C#N)c1=O

>  <Name>  (97) 
nan

>  <Pocket>  (97) 
nan

>  <ATP_Site>  (97) 
nan

>  <Peripheral>  (97) 
nan

>  <Num_H_Atoms_ProtBoundConf>  (97) 
nan

>  <Num_Resolved_Atoms>  (97) 
nan

>  <Num_Not_Resolved_Atoms>  (97) 
nan

$$$$
CHEMBL1393737
     RDKit          3D

  0  0  0  0  0  0  0  0  0  0999 V3000
M  V30 BEGIN CTAB
M  V30 COUNTS 40 41 0 0 0
M  V30 BEGIN ATOM
M  V30 1 C 1.627907 -2.785209 5.575782 0
M  V30 2 C 1.355660 -1.621273 4.692150 0
M  V30 3 O 1.653951 -0.471821 5.156133 0
M  V30 4 O 0.812809 -1.885509 3.467731 0
M  V30 5 C 0.465896 -0.989435 2.463794 0
M  V30 6 C 1.291698 -1.119773 1.229615 0
M  V30 7 O 2.183786 -2.000915 1.236203 0
M  V30 8 N 1.030946 -0.264307 0.145617 0
M  V30 9 C 1.788613 -0.323843 -1.095404 0
M  V30 10 C 0.901470 -0.778439 -2.244610 0
M  V30 11 C -0.305213 0.102902 -2.260366 0
M  V30 12 C 0.031938 1.571176 -2.232443 0
M  V30 13 C 1.496781 1.867111 -2.289783 0
M  V30 14 C 2.346527 1.030647 -1.368698 0
M  V30 15 C -0.967299 -0.956941 2.112534 0
M  V30 16 C -1.641372 0.253333 1.940884 0
M  V30 17 C -2.981111 0.302379 1.612427 0
M  V30 18 N -3.701758 -0.799243 1.441833 0
M  V30 19 C -3.100919 -2.007819 1.595536 0
M  V30 20 C -1.751735 -2.078040 1.926418 0
M  V30 21 H 2.444572 -2.622280 6.293477 0
M  V30 22 H 1.896733 -3.701957 4.984881 0
M  V30 23 H 0.654791 -3.024465 6.074284 0
M  V30 24 H 0.726368 0.033711 2.864785 0
M  V30 25 H 0.258527 0.461032 0.207992 0
M  V30 26 H 2.549151 -1.131273 -0.988094 0
M  V30 27 H 0.586021 -1.812915 -2.032421 0
M  V30 28 H 1.501076 -0.661780 -3.170171 0
M  V30 29 H -0.896530 -0.133690 -1.364898 0
M  V30 30 H -0.917179 -0.193448 -3.153994 0
M  V30 31 H -0.501174 2.106498 -1.408043 0
M  V30 32 H -0.412370 2.018428 -3.165920 0
M  V30 33 H 1.826259 1.815779 -3.356673 0
M  V30 34 H 1.616116 2.932193 -1.970456 0
M  V30 35 H 2.552192 1.567435 -0.406834 0
M  V30 36 H 3.332861 0.913221 -1.863348 0
M  V30 37 H -1.114231 1.201755 2.064911 0
M  V30 38 H -3.448348 1.287788 1.492648 0
M  V30 39 H -3.694826 -2.900091 1.454851 0
M  V30 40 H -1.295106 -3.049367 2.043501 0
M  V30 END ATOM
M  V30 BEGIN BOND
M  V30 1 1 1 2
M  V30 2 2 2 3
M  V30 3 1 2 4
M  V30 4 1 4 5
M  V30 5 1 5 6
M  V30 6 2 6 7
M  V30 7 1 6 8
M  V30 8 1 8 9
M  V30 9 1 9 10
M  V30 10 1 10 11
M  V30 11 1 11 12
M  V30 12 1 12 13
M  V30 13 1 13 14
M  V30 14 1 5 15
M  V30 15 2 15 16
M  V30 16 1 16 17
M  V30 17 2 17 18
M  V30 18 1 18 19
M  V30 19 2 19 20
M  V30 20 1 14 9
M  V30 21 1 20 15
M  V30 22 1 1 21
M  V30 23 1 1 22
M  V30 24 1 1 23
M  V30 25 1 5 24
M  V30 26 1 8 25
M  V30 27 1 9 26
M  V30 28 1 10 27
M  V30 29 1 10 28
M  V30 30 1 11 29
M  V30 31 1 11 30
M  V30 32 1 12 31
M  V30 33 1 12 32
M  V30 34 1 13 33
M  V30 35 1 13 34
M  V30 36 1 14 35
M  V30 37 1 14 36
M  V30 38 1 16 37
M  V30 39 1 17 38
M  V30 40 1 19 39
M  V30 41 1 20 40
M  V30 END BOND
M  V30 END CTAB
M  END
>  <Dataset>  (98) 
ChEMBL_Kinases

>  <Ligand_Instance>  (98) 
nan

>  <PDB_ID>  (98) 
nan

>  <Standardized_SMILES>  (98) 
CC(=O)OC(C(=O)NC1CCCCC1)c1ccncc1

>  <Name>  (98) 
nan

>  <Pocket>  (98) 
nan

>  <ATP_Site>  (98) 
nan

>  <Peripheral>  (98) 
nan

>  <Num_H_Atoms_ProtBoundConf>  (98) 
nan

>  <Num_Resolved_Atoms>  (98) 
nan

>  <Num_Not_Resolved_Atoms>  (98) 
nan

$$$$
CHEMBL1393859
     RDKit          3D

  0  0  0  0  0  0  0  0  0  0999 V3000
M  V30 BEGIN CTAB
M  V30 COUNTS 52 55 0 0 0
M  V30 BEGIN ATOM
M  V30 1 C 1.545841 -4.265183 -1.366411 0
M  V30 2 O 1.988011 -2.990698 -0.978985 0
M  V30 3 C 2.688921 -2.734786 0.165126 0
M  V30 4 C 2.966536 -3.811991 0.974248 0
M  V30 5 C 3.673642 -3.627326 2.153893 0
M  V30 6 C 4.065247 -2.329747 2.446961 0
M  V30 7 C 3.767128 -1.277594 1.609136 0
M  V30 8 C 3.067555 -1.438465 0.435634 0
M  V30 9 N 2.827661 -0.293906 -0.370422 0
M  V30 10 C 3.066712 1.071670 0.061798 0
M  V30 11 C 1.812463 1.943617 -0.091667 0
M  V30 12 N 0.692903 1.150157 -0.559683 0
M  V30 13 C -0.598698 0.821877 -0.078134 0
M  V30 14 O -1.459995 0.081395 -0.665951 0
M  V30 15 C -1.269449 1.225060 1.172222 0
M  V30 16 C -2.633624 0.648032 1.277370 0
M  V30 17 C -3.714992 1.133006 0.565131 0
M  V30 18 C -3.717453 2.250316 -0.379308 0
M  V30 19 O -4.831996 2.533522 -0.931334 0
M  V30 20 O -2.574060 2.978661 -0.673877 0
M  V30 21 N -4.799543 0.406728 0.874227 0
M  V30 22 C -4.441461 -0.547926 1.780184 0
M  V30 23 C -5.147932 -1.556629 2.433279 0
M  V30 24 C -4.452494 -2.370606 3.314948 0
M  V30 25 C -3.103029 -2.242369 3.584859 0
M  V30 26 Cl -2.302942 -3.315217 4.713652 0
M  V30 27 C -2.402537 -1.245591 2.940113 0
M  V30 28 C -3.090219 -0.415446 2.047005 0
M  V30 29 C 1.036753 0.569990 -1.843305 0
M  V30 30 C 2.347931 -0.189071 -1.708292 0
M  V30 31 H 0.923733 -4.752793 -0.565575 0
M  V30 32 H 2.396361 -4.941509 -1.578923 0
M  V30 33 H 0.896946 -4.229466 -2.260418 0
M  V30 34 H 2.640892 -4.807464 0.705163 0
M  V30 35 H 3.875340 -4.482061 2.763990 0
M  V30 36 H 4.611578 -2.280448 3.385807 0
M  V30 37 H 4.171152 -0.376180 2.035604 0
M  V30 38 H 3.404876 1.166407 1.106054 0
M  V30 39 H 3.902463 1.468296 -0.585943 0
M  V30 40 H 1.572162 2.444172 0.877599 0
M  V30 41 H 2.036755 2.683345 -0.885942 0
M  V30 42 H -1.314556 2.341651 1.184310 0
M  V30 43 H -0.649096 0.962937 2.076197 0
M  V30 44 H -2.523391 3.571663 -1.497315 0
M  V30 45 H -5.807122 0.468033 0.540276 0
M  V30 46 H -6.207480 -1.681376 2.241257 0
M  V30 47 H -5.054093 -3.119226 3.778216 0
M  V30 48 H -1.356784 -1.114524 3.123138 0
M  V30 49 H 0.262389 -0.055108 -2.282739 0
M  V30 50 H 1.171767 1.456875 -2.530602 0
M  V30 51 H 2.274017 -1.155269 -2.238913 0
M  V30 52 H 3.129552 0.374020 -2.309968 0
M  V30 END ATOM
M  V30 BEGIN BOND
M  V30 1 1 1 2
M  V30 2 1 2 3
M  V30 3 2 3 4
M  V30 4 1 4 5
M  V30 5 2 5 6
M  V30 6 1 6 7
M  V30 7 2 7 8
M  V30 8 1 8 9
M  V30 9 1 9 10
M  V30 10 1 10 11
M  V30 11 1 11 12
M  V30 12 1 12 13
M  V30 13 2 13 14
M  V30 14 1 13 15
M  V30 15 1 15 16
M  V30 16 2 16 17
M  V30 17 1 17 18
M  V30 18 2 18 19
M  V30 19 1 18 20
M  V30 20 1 17 21
M  V30 21 1 21 22
M  V30 22 2 22 23
M  V30 23 1 23 24
M  V30 24 2 24 25
M  V30 25 1 25 26
M  V30 26 1 25 27
M  V30 27 2 27 28
M  V30 28 1 12 29
M  V30 29 1 29 30
M  V30 30 1 8 3
M  V30 31 1 30 9
M  V30 32 1 28 16
M  V30 33 1 28 22
M  V30 34 1 1 31
M  V30 35 1 1 32
M  V30 36 1 1 33
M  V30 37 1 4 34
M  V30 38 1 5 35
M  V30 39 1 6 36
M  V30 40 1 7 37
M  V30 41 1 10 38
M  V30 42 1 10 39
M  V30 43 1 11 40
M  V30 44 1 11 41
M  V30 45 1 15 42
M  V30 46 1 15 43
M  V30 47 1 20 44
M  V30 48 1 21 45
M  V30 49 1 23 46
M  V30 50 1 24 47
M  V30 51 1 27 48
M  V30 52 1 29 49
M  V30 53 1 29 50
M  V30 54 1 30 51
M  V30 55 1 30 52
M  V30 END BOND
M  V30 END CTAB
M  END
>  <Dataset>  (99) 
ChEMBL_Kinases

>  <Ligand_Instance>  (99) 
nan

>  <PDB_ID>  (99) 
nan

>  <Standardized_SMILES>  (99) 
COc1ccccc1N1CCN(C(=O)Cc2c(C(=O)O)[nH]c3ccc(Cl)cc23)CC1

>  <Name>  (99) 
nan

>  <Pocket>  (99) 
nan

>  <ATP_Site>  (99) 
nan

>  <Peripheral>  (99) 
nan

>  <Num_H_Atoms_ProtBoundConf>  (99) 
nan

>  <Num_Resolved_Atoms>  (99) 
nan

>  <Num_Not_Resolved_Atoms>  (99) 
nan

$$$$
CHEMBL1395128
     RDKit          3D

  0  0  0  0  0  0  0  0  0  0999 V3000
M  V30 BEGIN CTAB
M  V30 COUNTS 148 156 0 0 0
M  V30 BEGIN ATOM
M  V30 1 C 6.013170 5.182384 -4.554205 0
M  V30 2 C 4.567863 5.274690 -4.174538 0
M  V30 3 C 4.071068 4.035300 -3.482846 0
M  V30 4 C 2.953817 4.470693 -2.532552 0
M  V30 5 C 3.650983 5.190825 -1.372587 0 CFG=2
M  V30 6 N 4.468019 6.234296 -1.905897 0
M  V30 7 C 4.253888 6.479409 -3.314775 0
M  V30 8 O 4.420209 4.184819 -0.749099 0
M  V30 9 C 3.611082 3.707347 0.248951 0
M  V30 10 C 4.314980 2.823749 1.234037 0
M  V30 11 C 4.721350 1.595286 0.484093 0
M  V30 12 C 3.478668 0.788952 0.267872 0
M  V30 13 C 2.753703 0.436433 1.518846 0
M  V30 14 C 3.192178 -1.026100 1.791656 0
M  V30 15 C 2.506009 -1.592556 2.992946 0
M  V30 16 O 2.898665 -2.878430 3.343504 0
M  V30 17 C 1.900502 -3.808320 3.246567 0 CFG=1
M  V30 18 O 2.318377 -4.890191 2.529303 0
M  V30 19 C 1.395447 -5.878727 2.344784 0 CFG=1
M  V30 20 C 1.817209 -7.234144 2.847364 0
M  V30 21 O 0.730606 -8.094033 2.561034 0
M  V30 22 C -0.003917 -5.499559 2.794754 0 CFG=2
M  V30 23 O -0.562453 -4.627671 1.921405 0
M  V30 24 C -1.728521 -5.032947 1.259754 0 CFG=2
M  V30 25 O -1.531053 -5.206818 -0.068348 0
M  V30 26 C -2.643549 -5.581103 -0.770189 0
M  V30 27 C -3.133544 -6.925167 -0.315183 0
M  V30 28 O -2.133186 -7.883448 -0.525641 0
M  V30 29 C -3.784284 -4.578304 -0.619029 0 CFG=2
M  V30 30 O -4.060994 -4.062921 -1.871838 0
M  V30 31 C -3.329782 -3.449472 0.275016 0 CFG=1
M  V30 32 O -4.315515 -2.563377 0.509057 0
M  V30 33 C -4.005887 -1.242305 0.304327 0
M  V30 34 O -3.997083 -0.494612 1.474281 0
M  V30 35 C -5.166820 0.225663 1.564954 0
M  V30 36 C -6.376257 -0.455564 0.968960 0
M  V30 37 O -6.532654 -1.663936 1.614985 0
M  V30 38 C -6.196186 -0.617461 -0.548987 0 CFG=1
M  V30 39 O -6.883954 0.440100 -1.143284 0
M  V30 40 C -4.702536 -0.492741 -0.763291 0 CFG=2
M  V30 41 O -4.449686 -1.049134 -2.031873 0
M  V30 42 C -3.833156 -0.091670 -2.869232 0 CFG=1
M  V30 43 O -2.592055 -0.568591 -3.173920 0
M  V30 44 C -2.407806 -0.943570 -4.478435 0
M  V30 45 C -1.109443 -1.726332 -4.624316 0
M  V30 46 O -0.972128 -2.078134 -5.961815 0
M  V30 47 C -3.555010 -1.851347 -4.885971 0
M  V30 48 O -3.319368 -2.391752 -6.161780 0
M  V30 49 C -4.789236 -0.976501 -5.002641 0
M  V30 50 O -4.966211 -0.542950 -6.292746 0
M  V30 51 C -4.747566 0.165212 -4.017703 0
M  V30 52 O -4.222011 1.278913 -4.703647 0
M  V30 53 C -2.870280 -4.110426 1.592561 0
M  V30 54 O -3.888228 -4.792113 2.221725 0
M  V30 55 C 0.062964 -5.018277 4.236926 0
M  V30 56 O -0.925183 -4.064741 4.473309 0
M  V30 57 C 1.417560 -4.381405 4.574363 0
M  V30 58 O 1.331393 -3.422083 5.551844 0
M  V30 59 C 2.671280 -0.721015 4.210508 0
M  V30 60 C 3.431105 0.536853 3.920408 0
M  V30 61 C 2.873253 1.285527 2.700430 0 CFG=2
M  V30 62 C 1.421949 1.574134 3.195996 0
M  V30 63 C 3.587951 2.592635 2.494745 0
M  V30 64 C 2.807947 3.798085 2.965705 0
M  V30 65 C 2.200367 4.658982 1.921472 0
M  V30 66 C 3.213209 5.041765 0.903703 0 CFG=1
M  V30 67 C 4.430149 5.732334 1.406882 0
M  V30 68 C 2.643672 5.651472 -0.347654 0
M  V30 69 C 2.404492 7.112948 -0.300718 0
M  V30 70 H 6.663776 5.919219 -4.035593 0
M  V30 71 H 6.144025 5.332727 -5.663849 0
M  V30 72 H 6.416985 4.174596 -4.337431 0
M  V30 73 H 3.960748 5.401753 -5.103041 0
M  V30 74 H 4.863905 3.614267 -2.838775 0
M  V30 75 H 3.700073 3.302304 -4.242498 0
M  V30 76 H 2.265525 5.155287 -3.030323 0
M  V30 77 H 2.398850 3.586622 -2.179319 0
M  V30 78 H 4.385145 7.161083 -1.434631 0
M  V30 79 H 3.227247 6.887990 -3.506761 0
M  V30 80 H 4.951490 7.286275 -3.618980 0
M  V30 81 H 2.690194 3.325515 -0.179006 0
M  V30 82 H 5.294995 3.366991 1.426799 0
M  V30 83 H 5.051179 1.931172 -0.522177 0
M  V30 84 H 5.555504 1.045503 0.906914 0
M  V30 85 H 3.776657 -0.111105 -0.346294 0
M  V30 86 H 2.756857 1.305427 -0.397339 0
M  V30 87 H 1.641461 0.264872 1.302849 0
M  V30 88 H 4.290230 -0.928913 1.860572 0
M  V30 89 H 2.986388 -1.605786 0.871568 0
M  V30 90 H 1.435051 -1.664180 2.734171 0
M  V30 91 H 1.016332 -3.257828 2.876642 0
M  V30 92 H 1.313046 -6.007228 1.221694 0
M  V30 93 H 2.069060 -7.290153 3.902747 0
M  V30 94 H 2.646675 -7.573303 2.174283 0
M  V30 95 H 0.388960 -7.901969 1.646819 0
M  V30 96 H -0.594952 -6.442775 2.822878 0
M  V30 97 H -1.944501 -6.025875 1.700769 0
M  V30 98 H -2.372462 -5.621423 -1.863421 0
M  V30 99 H -3.406440 -6.999282 0.744276 0
M  V30 100 H -4.052765 -7.220755 -0.885040 0
M  V30 101 H -1.574161 -7.909150 0.276698 0
M  V30 102 H -4.706114 -5.066763 -0.248023 0
M  V30 103 H -5.014428 -3.763436 -1.889899 0
M  V30 104 H -2.394162 -3.032870 -0.143473 0
M  V30 105 H -2.909073 -1.260975 -0.009703 0
M  V30 106 H -4.981145 1.234710 1.137052 0
M  V30 107 H -5.397163 0.351523 2.646360 0
M  V30 108 H -7.250866 0.164660 1.161084 0
M  V30 109 H -7.305551 -1.673945 2.255810 0
M  V30 110 H -6.576915 -1.612446 -0.802009 0
M  V30 111 H -6.255104 1.137441 -1.483685 0
M  V30 112 H -4.389475 0.578332 -0.742045 0
M  V30 113 H -3.695533 0.870433 -2.324956 0
M  V30 114 H -2.411941 -0.083528 -5.165633 0
M  V30 115 H -1.152515 -2.651536 -3.992336 0
M  V30 116 H -0.291719 -1.105382 -4.261423 0
M  V30 117 H -0.046151 -2.373567 -6.182980 0
M  V30 118 H -3.695006 -2.706123 -4.219055 0
M  V30 119 H -3.359313 -3.377696 -6.169745 0
M  V30 120 H -5.654845 -1.616702 -4.737349 0
M  V30 121 H -4.736010 -1.288613 -6.920201 0
M  V30 122 H -5.763524 0.442303 -3.732711 0
M  V30 123 H -4.462768 1.194118 -5.647549 0
M  V30 124 H -2.575187 -3.283259 2.269796 0
M  V30 125 H -4.556759 -4.194958 2.642194 0
M  V30 126 H -0.058708 -5.872207 4.930176 0
M  V30 127 H -1.312407 -4.240107 5.347807 0
M  V30 128 H 2.168534 -5.130543 4.891532 0
M  V30 129 H 0.422036 -3.312535 5.884513 0
M  V30 130 H 3.124557 -1.245000 5.071054 0
M  V30 131 H 1.663464 -0.440208 4.567833 0
M  V30 132 H 4.471583 0.269073 3.658738 0
M  V30 133 H 3.480815 1.173064 4.820586 0
M  V30 134 H 0.886725 0.608958 3.031088 0
M  V30 135 H 0.915629 2.304761 2.575448 0
M  V30 136 H 1.389127 1.726448 4.276556 0
M  V30 137 H 4.421699 2.530006 3.287739 0
M  V30 138 H 2.046979 3.553945 3.703385 0
M  V30 139 H 3.518004 4.484406 3.527086 0
M  V30 140 H 1.899389 5.609633 2.442244 0
M  V30 141 H 1.304887 4.307481 1.422364 0
M  V30 142 H 5.184012 5.697157 0.565764 0
M  V30 143 H 4.908223 5.204402 2.229642 0
M  V30 144 H 4.255185 6.791052 1.625509 0
M  V30 145 H 1.692785 5.129239 -0.579108 0
M  V30 146 H 1.449591 7.264199 0.269918 0
M  V30 147 H 2.145088 7.443761 -1.335496 0
M  V30 148 H 3.165039 7.732150 0.171522 0
M  V30 END ATOM
M  V30 BEGIN BOND
M  V30 1 1 1 2
M  V30 2 1 2 3
M  V30 3 1 3 4
M  V30 4 1 4 5
M  V30 5 1 5 6
M  V30 6 1 6 7
M  V30 7 1 5 8 CFG=1
M  V30 8 1 8 9
M  V30 9 1 9 10
M  V30 10 1 10 11
M  V30 11 1 11 12
M  V30 12 1 12 13
M  V30 13 1 13 14
M  V30 14 1 14 15
M  V30 15 1 15 16
M  V30 16 1 16 17
M  V30 17 1 17 18
M  V30 18 1 18 19
M  V30 19 1 19 20
M  V30 20 1 20 21
M  V30 21 1 19 22
M  V30 22 1 22 23
M  V30 23 1 23 24
M  V30 24 1 24 25
M  V30 25 1 25 26
M  V30 26 1 26 27
M  V30 27 1 27 28
M  V30 28 1 26 29
M  V30 29 1 29 30
M  V30 30 1 29 31
M  V30 31 1 31 32
M  V30 32 1 32 33
M  V30 33 1 33 34
M  V30 34 1 34 35
M  V30 35 1 35 36
M  V30 36 1 36 37
M  V30 37 1 36 38
M  V30 38 1 38 39
M  V30 39 1 38 40
M  V30 40 1 40 41
M  V30 41 1 41 42
M  V30 42 1 42 43
M  V30 43 1 43 44
M  V30 44 1 44 45
M  V30 45 1 45 46
M  V30 46 1 44 47
M  V30 47 1 47 48
M  V30 48 1 47 49
M  V30 49 1 49 50
M  V30 50 1 49 51
M  V30 51 1 51 52
M  V30 52 1 31 53
M  V30 53 1 53 54
M  V30 54 1 22 55
M  V30 55 1 55 56
M  V30 56 1 55 57
M  V30 57 1 57 58
M  V30 58 1 15 59
M  V30 59 1 59 60
M  V30 60 1 60 61
M  V30 61 1 61 62 CFG=1
M  V30 62 1 61 63
M  V30 63 1 63 64
M  V30 64 1 64 65
M  V30 65 1 65 66
M  V30 66 1 66 67 CFG=1
M  V30 67 1 66 68
M  V30 68 1 68 69
M  V30 69 1 7 2
M  V30 70 1 66 9
M  V30 71 1 68 5
M  V30 72 1 63 10
M  V30 73 1 61 13
M  V30 74 1 57 17
M  V30 75 1 53 24
M  V30 76 1 40 33
M  V30 77 1 51 42
M  V30 78 1 1 70
M  V30 79 1 1 71
M  V30 80 1 1 72
M  V30 81 1 2 73
M  V30 82 1 3 74
M  V30 83 1 3 75
M  V30 84 1 4 76
M  V30 85 1 4 77
M  V30 86 1 6 78
M  V30 87 1 7 79
M  V30 88 1 7 80
M  V30 89 1 9 81
M  V30 90 1 10 82
M  V30 91 1 11 83
M  V30 92 1 11 84
M  V30 93 1 12 85
M  V30 94 1 12 86
M  V30 95 1 13 87
M  V30 96 1 14 88
M  V30 97 1 14 89
M  V30 98 1 15 90
M  V30 99 1 17 91 CFG=3
M  V30 100 1 19 92 CFG=3
M  V30 101 1 20 93
M  V30 102 1 20 94
M  V30 103 1 21 95
M  V30 104 1 22 96 CFG=1
M  V30 105 1 24 97 CFG=1
M  V30 106 1 26 98
M  V30 107 1 27 99
M  V30 108 1 27 100
M  V30 109 1 28 101
M  V30 110 1 29 102 CFG=1
M  V30 111 1 30 103
M  V30 112 1 31 104 CFG=3
M  V30 113 1 33 105
M  V30 114 1 35 106
M  V30 115 1 35 107
M  V30 116 1 36 108
M  V30 117 1 37 109
M  V30 118 1 38 110 CFG=3
M  V30 119 1 39 111
M  V30 120 1 40 112 CFG=3
M  V30 121 1 42 113 CFG=1
M  V30 122 1 44 114
M  V30 123 1 45 115
M  V30 124 1 45 116
M  V30 125 1 46 117
M  V30 126 1 47 118
M  V30 127 1 48 119
M  V30 128 1 49 120
M  V30 129 1 50 121
M  V30 130 1 51 122
M  V30 131 1 52 123
M  V30 132 1 53 124
M  V30 133 1 54 125
M  V30 134 1 55 126
M  V30 135 1 56 127
M  V30 136 1 57 128
M  V30 137 1 58 129
M  V30 138 1 59 130
M  V30 139 1 59 131
M  V30 140 1 60 132
M  V30 141 1 60 133
M  V30 142 1 62 134
M  V30 143 1 62 135
M  V30 144 1 62 136
M  V30 145 1 63 137
M  V30 146 1 64 138
M  V30 147 1 64 139
M  V30 148 1 65 140
M  V30 149 1 65 141
M  V30 150 1 67 142
M  V30 151 1 67 143
M  V30 152 1 67 144
M  V30 153 1 68 145
M  V30 154 1 69 146
M  V30 155 1 69 147
M  V30 156 1 69 148
M  V30 END BOND
M  V30 END CTAB
M  END
>  <Dataset>  (100) 
ChEMBL_Kinases

>  <Ligand_Instance>  (100) 
nan

>  <PDB_ID>  (100) 
nan

>  <Standardized_SMILES>  (100) 
CC1CC[C@]2(NC1)OC1C3CCC4CC(O[C@H]5O[C@@H](CO)[C@H](O[C@@H]6OC(CO)[C@H](O)[C@@H](OC7OCC(O)[C@@H](O)[C@@H]7O[C@H]7OC(CO)C(O)C(O)C7O)C6O)C(O)C5O)CC[C@@]4(C)C3CC[C@]1(C)C2C

>  <Name>  (100) 
nan

>  <Pocket>  (100) 
nan

>  <ATP_Site>  (100) 
nan

>  <Peripheral>  (100) 
nan

>  <Num_H_Atoms_ProtBoundConf>  (100) 
nan

>  <Num_Resolved_Atoms>  (100) 
nan

>  <Num_Not_Resolved_Atoms>  (100) 
nan

$$$$
CHEMBL1394044
     RDKit          3D

  0  0  0  0  0  0  0  0  0  0999 V3000
M  V30 BEGIN CTAB
M  V30 COUNTS 44 46 0 0 0
M  V30 BEGIN ATOM
M  V30 1 O -2.695456 -1.113840 1.641030 0
M  V30 2 C -1.677039 -1.282284 0.926530 0
M  V30 3 N -1.496139 -2.624332 0.476957 0
M  V30 4 C -2.403145 -3.676322 0.817691 0
M  V30 5 C -1.833859 -4.947903 1.300087 0
M  V30 6 C -1.612894 -5.843582 0.091758 0
M  V30 7 C -1.986958 -4.971682 -1.085872 0
M  V30 8 C -3.069537 -4.100467 -0.480185 0
M  V30 9 C -0.740098 -0.201876 0.572933 0
M  V30 10 C 0.386778 -0.318219 -0.199731 0
M  V30 11 C 1.176644 0.786116 -0.450659 0
M  V30 12 C 0.869086 2.049431 0.062074 0
M  V30 13 S 1.945893 3.333176 -0.334675 0
M  V30 14 O 2.467035 3.122159 -1.727081 0
M  V30 15 O 1.153266 4.613267 -0.384066 0
M  V30 16 N 3.232335 3.573256 0.750812 0
M  V30 17 C 2.795207 3.911713 2.068961 0
M  V30 18 C 3.532131 2.972946 3.022139 0
M  V30 19 C 3.940598 1.802144 2.121273 0
M  V30 20 C 4.194674 2.523742 0.828593 0
M  V30 21 C -0.268357 2.170383 0.842852 0
M  V30 22 C -1.043717 1.048726 1.079959 0
M  V30 23 H -0.665852 -2.836464 -0.123981 0
M  V30 24 H -3.209184 -3.255552 1.454734 0
M  V30 25 H -2.637278 -5.464220 1.901835 0
M  V30 26 H -0.962287 -4.893952 1.958989 0
M  V30 27 H -2.265580 -6.723484 0.065045 0
M  V30 28 H -0.564407 -6.197043 0.041205 0
M  V30 29 H -2.384516 -5.563345 -1.934473 0
M  V30 30 H -1.092262 -4.383790 -1.384049 0
M  V30 31 H -3.956191 -4.730685 -0.320327 0
M  V30 32 H -3.259597 -3.225547 -1.123404 0
M  V30 33 H 0.597396 -1.300294 -0.579524 0
M  V30 34 H 2.039953 0.574023 -1.072762 0
M  V30 35 H 1.684076 3.753709 2.162364 0
M  V30 36 H 2.980981 4.967784 2.332794 0
M  V30 37 H 4.459534 3.446017 3.408705 0
M  V30 38 H 2.858779 2.631657 3.831955 0
M  V30 39 H 3.099128 1.102335 1.968137 0
M  V30 40 H 4.846973 1.310438 2.531298 0
M  V30 41 H 4.169810 1.853735 -0.049581 0
M  V30 42 H 5.194368 3.031317 0.933412 0
M  V30 43 H -0.497006 3.152458 1.234579 0
M  V30 44 H -1.905403 1.253531 1.699257 0
M  V30 END ATOM
M  V30 BEGIN BOND
M  V30 1 2 1 2
M  V30 2 1 2 3
M  V30 3 1 3 4
M  V30 4 1 4 5
M  V30 5 1 5 6
M  V30 6 1 6 7
M  V30 7 1 7 8
M  V30 8 1 2 9
M  V30 9 2 9 10
M  V30 10 1 10 11
M  V30 11 2 11 12
M  V30 12 1 12 13
M  V30 13 2 13 14
M  V30 14 2 13 15
M  V30 15 1 13 16
M  V30 16 1 16 17
M  V30 17 1 17 18
M  V30 18 1 18 19
M  V30 19 1 19 20
M  V30 20 1 12 21
M  V30 21 2 21 22
M  V30 22 1 8 4
M  V30 23 1 22 9
M  V30 24 1 20 16
M  V30 25 1 3 23
M  V30 26 1 4 24
M  V30 27 1 5 25
M  V30 28 1 5 26
M  V30 29 1 6 27
M  V30 30 1 6 28
M  V30 31 1 7 29
M  V30 32 1 7 30
M  V30 33 1 8 31
M  V30 34 1 8 32
M  V30 35 1 10 33
M  V30 36 1 11 34
M  V30 37 1 17 35
M  V30 38 1 17 36
M  V30 39 1 18 37
M  V30 40 1 18 38
M  V30 41 1 19 39
M  V30 42 1 19 40
M  V30 43 1 20 41
M  V30 44 1 20 42
M  V30 45 1 21 43
M  V30 46 1 22 44
M  V30 END BOND
M  V30 END CTAB
M  END
>  <Dataset>  (101) 
ChEMBL_Kinases

>  <Ligand_Instance>  (101) 
nan

>  <PDB_ID>  (101) 
nan

>  <Standardized_SMILES>  (101) 
O=C(NC1CCCC1)c1ccc(S(=O)(=O)N2CCCC2)cc1

>  <Name>  (101) 
nan

>  <Pocket>  (101) 
nan

>  <ATP_Site>  (101) 
nan

>  <Peripheral>  (101) 
nan

>  <Num_H_Atoms_ProtBoundConf>  (101) 
nan

>  <Num_Resolved_Atoms>  (101) 
nan

>  <Num_Not_Resolved_Atoms>  (101) 
nan

$$$$
CHEMBL139409
     RDKit          3D

  0  0  0  0  0  0  0  0  0  0999 V3000
M  V30 BEGIN CTAB
M  V30 COUNTS 79 79 0 0 0
M  V30 BEGIN ATOM
M  V30 1 C 5.237471 2.633977 6.231775 0
M  V30 2 C 3.845578 3.130769 6.363670 0
M  V30 3 C 2.913147 2.938768 5.240761 0
M  V30 4 C 2.562796 1.542393 4.835892 0
M  V30 5 C 3.687527 0.664283 4.390137 0
M  V30 6 C 3.201715 -0.716565 3.968517 0
M  V30 7 C 2.232734 -0.697256 2.830502 0
M  V30 8 C 2.856939 -0.053086 1.587506 0
M  V30 9 C 1.909358 -0.034063 0.458947 0
M  V30 10 C 1.413544 0.961053 -0.224976 0
M  V30 11 C 1.710741 2.338698 -0.002110 0
M  V30 12 C 0.543553 3.188533 0.343862 0
M  V30 13 C -0.250108 2.943302 1.523551 0
M  V30 14 C -1.135137 1.827443 1.840229 0
M  V30 15 C -2.374954 1.627874 1.034353 0
M  V30 16 C -2.286708 1.178048 -0.375944 0
M  V30 17 C -1.807834 -0.254793 -0.506885 0
M  V30 18 C -1.658689 -0.716025 -1.921022 0
M  V30 19 C -2.940922 -0.653931 -2.676521 0
M  V30 20 C -3.500341 -1.722246 -3.222600 0
M  V30 21 C -3.059052 -3.148849 -3.240290 0
M  V30 22 C -3.586488 -3.584795 -4.600677 0 CFG=2
M  V30 23 C -3.615086 -5.063755 -4.650838 0
M  V30 24 C -2.433086 -5.541296 -4.335744 0
M  V30 25 C -2.298165 -6.992965 -4.339631 0
M  V30 26 O -3.162018 -7.866882 -4.605027 0
M  V30 27 O -1.152235 -7.717923 -4.041252 0
M  V30 28 C -1.112269 -9.113066 -4.069703 0
M  V30 29 C -2.830751 -2.965292 -5.728774 0
M  V30 30 O -3.539694 -3.268941 -6.908505 0
M  V30 31 O -4.886403 -3.023068 -4.582993 0
M  V30 32 C -4.750140 -1.778027 -3.982584 0
M  V30 33 O -5.600119 -0.835044 -4.089617 0
M  V30 34 H 5.976261 3.420688 6.607394 0
M  V30 35 H 5.585200 2.377824 5.232234 0
M  V30 36 H 5.374349 1.737578 6.891990 0
M  V30 37 H 3.911224 4.226845 6.595175 0
M  V30 38 H 3.376294 2.694466 7.285055 0
M  V30 39 H 1.954907 3.499813 5.504539 0
M  V30 40 H 3.288429 3.532321 4.348798 0
M  V30 41 H 1.829638 1.604066 3.968997 0
M  V30 42 H 2.025515 1.050440 5.697846 0
M  V30 43 H 4.275994 1.179886 3.636458 0
M  V30 44 H 4.322163 0.435688 5.297804 0
M  V30 45 H 2.670072 -1.129771 4.856647 0
M  V30 46 H 4.060267 -1.386044 3.763949 0
M  V30 47 H 1.945617 -1.749838 2.618666 0
M  V30 48 H 1.322908 -0.141522 3.125336 0
M  V30 49 H 3.721079 -0.696329 1.321770 0
M  V30 50 H 3.142199 0.967145 1.913370 0
M  V30 51 H 1.594163 -1.033740 0.178535 0
M  V30 52 H 0.725155 0.930808 -1.053848 0
M  V30 53 H 2.240289 2.754951 -0.926644 0
M  V30 54 H 2.481400 2.534818 0.793206 0
M  V30 55 H 1.009446 4.242369 0.502645 0
M  V30 56 H -0.092036 3.357643 -0.574111 0
M  V30 57 H -0.917734 3.891548 1.638096 0
M  V30 58 H 0.439360 3.149107 2.455961 0
M  V30 59 H -0.618671 0.824847 1.837570 0
M  V30 60 H -1.406848 1.933006 2.945945 0
M  V30 61 H -3.016809 0.877532 1.595809 0
M  V30 62 H -3.013076 2.576208 1.112361 0
M  V30 63 H -3.358681 1.146875 -0.752812 0
M  V30 64 H -1.774593 1.834718 -1.074550 0
M  V30 65 H -2.586675 -0.926975 -0.017355 0
M  V30 66 H -0.907249 -0.403355 0.060369 0
M  V30 67 H -1.376775 -1.795167 -1.877187 0
M  V30 68 H -0.845316 -0.201390 -2.452437 0
M  V30 69 H -3.483477 0.277873 -2.817255 0
M  V30 70 H -1.971445 -3.267641 -3.156074 0
M  V30 71 H -3.649460 -3.678126 -2.472325 0
M  V30 72 H -4.437230 -5.719642 -4.898271 0
M  V30 73 H -1.516961 -5.034047 -4.066829 0
M  V30 74 H -1.948092 -9.615965 -3.536375 0
M  V30 75 H -1.014447 -9.522472 -5.097296 0
M  V30 76 H -0.153527 -9.407618 -3.550332 0
M  V30 77 H -1.807172 -3.377702 -5.813107 0
M  V30 78 H -2.838969 -1.879177 -5.603401 0
M  V30 79 H -2.951140 -3.296094 -7.686523 0
M  V30 END ATOM
M  V30 BEGIN BOND
M  V30 1 1 1 2
M  V30 2 1 2 3
M  V30 3 1 3 4
M  V30 4 1 4 5
M  V30 5 1 5 6
M  V30 6 1 6 7
M  V30 7 1 7 8
M  V30 8 1 8 9
M  V30 9 2 9 10
M  V30 10 1 10 11
M  V30 11 1 11 12
M  V30 12 1 12 13
M  V30 13 1 13 14
M  V30 14 1 14 15
M  V30 15 1 15 16
M  V30 16 1 16 17
M  V30 17 1 17 18
M  V30 18 1 18 19
M  V30 19 2 19 20
M  V30 20 1 20 21
M  V30 21 1 21 22
M  V30 22 1 22 23
M  V30 23 2 23 24
M  V30 24 1 24 25
M  V30 25 2 25 26
M  V30 26 1 25 27
M  V30 27 1 27 28
M  V30 28 1 22 29 CFG=3
M  V30 29 1 29 30
M  V30 30 1 22 31
M  V30 31 1 31 32
M  V30 32 2 32 33
M  V30 33 1 32 20
M  V30 34 1 1 34
M  V30 35 1 1 35
M  V30 36 1 1 36
M  V30 37 1 2 37
M  V30 38 1 2 38
M  V30 39 1 3 39
M  V30 40 1 3 40
M  V30 41 1 4 41
M  V30 42 1 4 42
M  V30 43 1 5 43
M  V30 44 1 5 44
M  V30 45 1 6 45
M  V30 46 1 6 46
M  V30 47 1 7 47
M  V30 48 1 7 48
M  V30 49 1 8 49
M  V30 50 1 8 50
M  V30 51 1 9 51
M  V30 52 1 10 52
M  V30 53 1 11 53
M  V30 54 1 11 54
M  V30 55 1 12 55
M  V30 56 1 12 56
M  V30 57 1 13 57
M  V30 58 1 13 58
M  V30 59 1 14 59
M  V30 60 1 14 60
M  V30 61 1 15 61
M  V30 62 1 15 62
M  V30 63 1 16 63
M  V30 64 1 16 64
M  V30 65 1 17 65
M  V30 66 1 17 66
M  V30 67 1 18 67
M  V30 68 1 18 68
M  V30 69 1 19 69
M  V30 70 1 21 70
M  V30 71 1 21 71
M  V30 72 1 23 72
M  V30 73 1 24 73
M  V30 74 1 28 74
M  V30 75 1 28 75
M  V30 76 1 28 76
M  V30 77 1 29 77
M  V30 78 1 29 78
M  V30 79 1 30 79
M  V30 END BOND
M  V30 END CTAB
M  END
>  <Dataset>  (102) 
ChEMBL_Kinases

>  <Ligand_Instance>  (102) 
nan

>  <PDB_ID>  (102) 
nan

>  <Standardized_SMILES>  (102) 
CCCCCCCC/C=C\CCCCCCCC/C=C1\C[C@](/C=C/C(=O)OC)(CO)OC1=O

>  <Name>  (102) 
nan

>  <Pocket>  (102) 
nan

>  <ATP_Site>  (102) 
nan

>  <Peripheral>  (102) 
nan

>  <Num_H_Atoms_ProtBoundConf>  (102) 
nan

>  <Num_Resolved_Atoms>  (102) 
nan

>  <Num_Not_Resolved_Atoms>  (102) 
nan

$$$$
CHEMBL1394638
     RDKit          3D

  0  0  0  0  0  0  0  0  0  0999 V3000
M  V30 BEGIN CTAB
M  V30 COUNTS 39 42 0 0 0
M  V30 BEGIN ATOM
M  V30 1 C 0.927770 -5.372999 3.011694 0
M  V30 2 C 1.087197 -3.982986 2.474797 0
M  V30 3 N 2.321280 -3.415266 2.577452 0
M  V30 4 C 2.485499 -2.162373 2.099147 0
M  V30 5 C 3.660666 -1.440622 2.121218 0
M  V30 6 N 3.756222 -0.202921 1.630360 0
M  V30 7 C 2.691212 0.408488 1.081562 0
M  V30 8 O 2.671284 1.694571 0.538680 0
M  V30 9 C 1.513516 2.244596 -0.010044 0
M  V30 10 C 1.430486 1.949120 -1.368855 0
M  V30 11 C 0.373313 2.382153 -2.142523 0
M  V30 12 C -0.617019 3.124607 -1.540419 0
M  V30 13 C -0.529430 3.409301 -0.213389 0
M  V30 14 C 0.507970 2.987735 0.559083 0
M  V30 15 N 1.555017 -0.296011 1.063012 0
M  V30 16 C 1.393544 -1.535705 1.536550 0
M  V30 17 N 0.157764 -2.103226 1.433348 0
M  V30 18 C -0.897574 -1.339190 0.823451 0
M  V30 19 C -1.352371 -1.340069 -0.479202 0
M  V30 20 C -2.389356 -0.502577 -0.805247 0
M  V30 21 C -2.980726 0.323240 0.105579 0
M  V30 22 C -2.532099 0.333903 1.421421 0
M  V30 23 C -1.476799 -0.514709 1.764787 0
M  V30 24 C 0.012297 -3.359192 1.918101 0
M  V30 25 O -1.117843 -3.881196 1.824976 0
M  V30 26 H 0.751205 -5.404246 4.089516 0
M  V30 27 H 1.795262 -6.017738 2.694826 0
M  V30 28 H 0.042957 -5.848013 2.515765 0
M  V30 29 H 4.521357 -1.920125 2.558638 0
M  V30 30 H 2.156461 1.367861 -1.955970 0
M  V30 31 H 0.263512 2.180254 -3.195521 0
M  V30 32 H -1.452782 3.475571 -2.118091 0
M  V30 33 H -1.281368 3.993205 0.323275 0
M  V30 34 H 0.693822 3.148310 1.627607 0
M  V30 35 H -0.801997 -2.035816 -1.097519 0
M  V30 36 H -2.698516 -0.550055 -1.838410 0
M  V30 37 H -3.794690 0.966698 -0.194191 0
M  V30 38 H -3.033727 1.003236 2.095874 0
M  V30 39 H -1.226350 -0.408621 2.814773 0
M  V30 END ATOM
M  V30 BEGIN BOND
M  V30 1 1 1 2
M  V30 2 2 2 3
M  V30 3 1 3 4
M  V30 4 2 4 5
M  V30 5 1 5 6
M  V30 6 2 6 7
M  V30 7 1 7 8
M  V30 8 1 8 9
M  V30 9 2 9 10
M  V30 10 1 10 11
M  V30 11 2 11 12
M  V30 12 1 12 13
M  V30 13 2 13 14
M  V30 14 1 7 15
M  V30 15 2 15 16
M  V30 16 1 16 17
M  V30 17 1 17 18
M  V30 18 2 18 19
M  V30 19 1 19 20
M  V30 20 2 20 21
M  V30 21 1 21 22
M  V30 22 2 22 23
M  V30 23 1 17 24
M  V30 24 2 24 25
M  V30 25 1 24 2
M  V30 26 1 16 4
M  V30 27 1 23 18
M  V30 28 1 14 9
M  V30 29 1 1 26
M  V30 30 1 1 27
M  V30 31 1 1 28
M  V30 32 1 5 29
M  V30 33 1 10 30
M  V30 34 1 11 31
M  V30 35 1 12 32
M  V30 36 1 13 33
M  V30 37 1 14 34
M  V30 38 1 19 35
M  V30 39 1 20 36
M  V30 40 1 21 37
M  V30 41 1 22 38
M  V30 42 1 23 39
M  V30 END BOND
M  V30 END CTAB
M  END
>  <Dataset>  (103) 
ChEMBL_Kinases

>  <Ligand_Instance>  (103) 
nan

>  <PDB_ID>  (103) 
nan

>  <Standardized_SMILES>  (103) 
Cc1nc2cnc(Oc3ccccc3)nc2n(-c2ccccc2)c1=O

>  <Name>  (103) 
nan

>  <Pocket>  (103) 
nan

>  <ATP_Site>  (103) 
nan

>  <Peripheral>  (103) 
nan

>  <Num_H_Atoms_ProtBoundConf>  (103) 
nan

>  <Num_Resolved_Atoms>  (103) 
nan

>  <Num_Not_Resolved_Atoms>  (103) 
nan

$$$$
CHEMBL1394714
     RDKit          3D

  0  0  0  0  0  0  0  0  0  0999 V3000
M  V30 BEGIN CTAB
M  V30 COUNTS 41 44 0 0 0
M  V30 BEGIN ATOM
M  V30 1 C -0.036584 -3.961247 -1.433706 0
M  V30 2 C 0.821326 -4.048861 -0.239480 0
M  V30 3 N 1.121721 -5.068183 0.557251 0
M  V30 4 O 1.938786 -4.664183 1.507941 0
M  V30 5 C 2.190911 -3.391799 1.361801 0
M  V30 6 C 3.088071 -2.628173 2.283132 0
M  V30 7 C 1.496061 -2.950780 0.252869 0
M  V30 8 C 1.583930 -1.566967 -0.158106 0
M  V30 9 C 2.568951 -1.158949 -1.055228 0
M  V30 10 C 2.671077 0.169489 -1.464042 0
M  V30 11 C 1.801216 1.137116 -0.997935 0
M  V30 12 N 1.836108 2.430830 -1.341608 0
M  V30 13 C 0.940890 3.316799 -0.832759 0
M  V30 14 N 0.006622 2.872689 0.031836 0
M  V30 15 C -0.062435 1.561754 0.407222 0
M  V30 16 N -1.141919 1.313033 1.331666 0
M  V30 17 C -2.323680 0.454097 1.160138 0
M  V30 18 C -2.556528 -0.232667 2.466402 0
M  V30 19 O -2.864749 0.769179 3.385967 0
M  V30 20 C -1.807886 1.582288 3.679098 0
M  V30 21 C -0.963584 2.032962 2.546989 0
M  V30 22 C 0.854898 0.676161 -0.119275 0
M  V30 23 C 0.702563 -0.608206 0.319508 0
M  V30 24 H -0.336678 -4.942288 -1.851990 0
M  V30 25 H -0.970338 -3.390697 -1.161497 0
M  V30 26 H 0.555228 -3.425996 -2.208936 0
M  V30 27 H 3.530667 -1.770216 1.728602 0
M  V30 28 H 3.856665 -3.309430 2.716671 0
M  V30 29 H 2.427450 -2.250936 3.094242 0
M  V30 30 H 3.275970 -1.891407 -1.447390 0
M  V30 31 H 3.450591 0.484071 -2.171883 0
M  V30 32 H 0.963825 4.363678 -1.106437 0
M  V30 33 H -3.191866 1.127451 0.947604 0
M  V30 34 H -2.201509 -0.181330 0.287173 0
M  V30 35 H -3.466093 -0.878953 2.409729 0
M  V30 36 H -1.696895 -0.833069 2.758928 0
M  V30 37 H -1.226147 1.111190 4.510950 0
M  V30 38 H -2.243780 2.505761 4.162124 0
M  V30 39 H 0.105340 1.946450 2.894540 0
M  V30 40 H -1.087176 3.128350 2.327235 0
M  V30 41 H -0.058185 -0.925062 1.015736 0
M  V30 END ATOM
M  V30 BEGIN BOND
M  V30 1 1 1 2
M  V30 2 2 2 3
M  V30 3 1 3 4
M  V30 4 1 4 5
M  V30 5 1 5 6
M  V30 6 2 5 7
M  V30 7 1 7 8
M  V30 8 2 8 9
M  V30 9 1 9 10
M  V30 10 2 10 11
M  V30 11 1 11 12
M  V30 12 2 12 13
M  V30 13 1 13 14
M  V30 14 2 14 15
M  V30 15 1 15 16
M  V30 16 1 16 17
M  V30 17 1 17 18
M  V30 18 1 18 19
M  V30 19 1 19 20
M  V30 20 1 20 21
M  V30 21 1 15 22
M  V30 22 2 22 23
M  V30 23 1 7 2
M  V30 24 1 23 8
M  V30 25 1 22 11
M  V30 26 1 21 16
M  V30 27 1 1 24
M  V30 28 1 1 25
M  V30 29 1 1 26
M  V30 30 1 6 27
M  V30 31 1 6 28
M  V30 32 1 6 29
M  V30 33 1 9 30
M  V30 34 1 10 31
M  V30 35 1 13 32
M  V30 36 1 17 33
M  V30 37 1 17 34
M  V30 38 1 18 35
M  V30 39 1 18 36
M  V30 40 1 20 37
M  V30 41 1 20 38
M  V30 42 1 21 39
M  V30 43 1 21 40
M  V30 44 1 23 41
M  V30 END BOND
M  V30 END CTAB
M  END
>  <Dataset>  (104) 
ChEMBL_Kinases

>  <Ligand_Instance>  (104) 
nan

>  <PDB_ID>  (104) 
nan

>  <Standardized_SMILES>  (104) 
Cc1noc(C)c1-c1ccc2ncnc(N3CCOCC3)c2c1

>  <Name>  (104) 
nan

>  <Pocket>  (104) 
nan

>  <ATP_Site>  (104) 
nan

>  <Peripheral>  (104) 
nan

>  <Num_H_Atoms_ProtBoundConf>  (104) 
nan

>  <Num_Resolved_Atoms>  (104) 
nan

>  <Num_Not_Resolved_Atoms>  (104) 
nan

$$$$
CHEMBL1394840
     RDKit          3D

  0  0  0  0  0  0  0  0  0  0999 V3000
M  V30 BEGIN CTAB
M  V30 COUNTS 49 52 0 0 0
M  V30 BEGIN ATOM
M  V30 1 O 3.161200 -0.884263 1.289522 0
M  V30 2 C 2.320997 -0.522031 0.439846 0
M  V30 3 N 2.532561 -0.298092 -0.948836 0
M  V30 4 C 3.661374 -0.389019 -1.820243 0
M  V30 5 C 4.028802 -1.537087 -2.517407 0
M  V30 6 C 5.148832 -1.518834 -3.341718 0
M  V30 7 C 5.868938 -0.325499 -3.434757 0
M  V30 8 C 5.526699 0.828155 -2.754204 0
M  V30 9 C 4.406708 0.766664 -1.945925 0
M  V30 10 N 1.003523 -0.309738 0.916516 0
M  V30 11 C 0.431217 -0.436408 2.237848 0
M  V30 12 C -0.882631 -0.743128 1.589344 0
M  V30 13 C -1.110800 -2.171574 1.202242 0
M  V30 14 C -2.607343 -2.329620 0.958035 0
M  V30 15 N -3.033442 -1.164855 0.245169 0
M  V30 16 C -3.346602 -1.316720 -1.129914 0
M  V30 17 O -3.135758 -2.559142 -1.340166 0
M  V30 18 C -3.797219 -0.284780 -2.052164 0
M  V30 19 C -4.921330 0.501901 -1.990430 0
M  V30 20 C -5.167939 1.434567 -2.981816 0
M  V30 21 C -4.304687 1.602914 -4.050503 0
M  V30 22 C -3.155889 0.813766 -4.133137 0
M  V30 23 F -2.316080 0.982801 -5.179909 0
M  V30 24 C -2.929314 -0.122167 -3.117810 0
M  V30 25 C -3.105447 0.084124 1.013080 0
M  V30 26 C -2.103641 -0.063546 2.156607 0
M  V30 27 C -0.310252 0.087546 0.446380 0
M  V30 28 H 1.750857 0.006738 -1.575480 0
M  V30 29 H 3.414379 -2.401403 -2.381070 0
M  V30 30 H 5.436712 -2.407814 -3.884117 0
M  V30 31 H 6.740144 -0.356339 -4.092528 0
M  V30 32 H 6.149690 1.713105 -2.889142 0
M  V30 33 H 4.143343 1.686822 -1.410320 0
M  V30 34 H 0.852973 -1.223828 2.879275 0
M  V30 35 H 0.367201 0.580448 2.711980 0
M  V30 36 H -0.556908 -2.438606 0.276946 0
M  V30 37 H -0.786825 -2.882862 2.005668 0
M  V30 38 H -2.866015 -3.250100 0.436779 0
M  V30 39 H -3.066161 -2.277663 1.987082 0
M  V30 40 H -5.539535 0.306342 -1.125992 0
M  V30 41 H -6.068606 2.029465 -2.885483 0
M  V30 42 H -4.545868 2.357865 -4.812203 0
M  V30 43 H -2.001186 -0.687545 -3.279843 0
M  V30 44 H -4.119461 0.257840 1.389093 0
M  V30 45 H -2.705152 0.868643 0.346969 0
M  V30 46 H -1.794015 0.952817 2.463423 0
M  V30 47 H -2.507841 -0.606641 3.020109 0
M  V30 48 H -0.428263 1.194335 0.610838 0
M  V30 49 H -0.584436 -0.263823 -0.567602 0
M  V30 END ATOM
M  V30 BEGIN BOND
M  V30 1 2 1 2
M  V30 2 1 2 3
M  V30 3 1 3 4
M  V30 4 2 4 5
M  V30 5 1 5 6
M  V30 6 2 6 7
M  V30 7 1 7 8
M  V30 8 2 8 9
M  V30 9 1 2 10
M  V30 10 1 10 11
M  V30 11 1 11 12
M  V30 12 1 12 13
M  V30 13 1 13 14
M  V30 14 1 14 15
M  V30 15 1 15 16
M  V30 16 2 16 17
M  V30 17 1 16 18
M  V30 18 2 18 19
M  V30 19 1 19 20
M  V30 20 2 20 21
M  V30 21 1 21 22
M  V30 22 1 22 23
M  V30 23 2 22 24
M  V30 24 1 15 25
M  V30 25 1 25 26
M  V30 26 1 12 27
M  V30 27 1 9 4
M  V30 28 1 27 10
M  V30 29 1 26 12
M  V30 30 1 24 18
M  V30 31 1 3 28
M  V30 32 1 5 29
M  V30 33 1 6 30
M  V30 34 1 7 31
M  V30 35 1 8 32
M  V30 36 1 9 33
M  V30 37 1 11 34
M  V30 38 1 11 35
M  V30 39 1 13 36
M  V30 40 1 13 37
M  V30 41 1 14 38
M  V30 42 1 14 39
M  V30 43 1 19 40
M  V30 44 1 20 41
M  V30 45 1 21 42
M  V30 46 1 24 43
M  V30 47 1 25 44
M  V30 48 1 25 45
M  V30 49 1 26 46
M  V30 50 1 26 47
M  V30 51 1 27 48
M  V30 52 1 27 49
M  V30 END BOND
M  V30 END CTAB
M  END
>  <Dataset>  (105) 
ChEMBL_Kinases

>  <Ligand_Instance>  (105) 
nan

>  <PDB_ID>  (105) 
nan

>  <Standardized_SMILES>  (105) 
O=C(Nc1ccccc1)N1CC2(CCN(C(=O)c3cccc(F)c3)CC2)C1

>  <Name>  (105) 
nan

>  <Pocket>  (105) 
nan

>  <ATP_Site>  (105) 
nan

>  <Peripheral>  (105) 
nan

>  <Num_H_Atoms_ProtBoundConf>  (105) 
nan

>  <Num_Resolved_Atoms>  (105) 
nan

>  <Num_Not_Resolved_Atoms>  (105) 
nan

$$$$
CHEMBL1394956
     RDKit          3D

  0  0  0  0  0  0  0  0  0  0999 V3000
M  V30 BEGIN CTAB
M  V30 COUNTS 44 46 0 0 0
M  V30 BEGIN ATOM
M  V30 1 C 0.580072 -3.473937 4.693172 0
M  V30 2 O -0.102217 -3.059583 3.525363 0
M  V30 3 C 0.253746 -3.509126 2.264357 0
M  V30 4 O 1.182477 -4.305331 1.996425 0
M  V30 5 N -0.428500 -3.091436 1.120028 0
M  V30 6 C -0.055627 -3.561883 -0.200452 0
M  V30 7 C 0.659721 -2.396155 -0.827915 0
M  V30 8 C -0.018590 -1.093748 -0.720712 0
M  V30 9 C -0.318211 -0.580273 -2.108266 0
M  V30 10 C -0.008633 0.864725 -2.336560 0
M  V30 11 C -0.252792 1.742840 -1.162636 0
M  V30 12 N 0.574563 1.213073 -0.066502 0
M  V30 13 C 1.060943 2.155625 0.887638 0
M  V30 14 C 1.859486 1.805670 1.963817 0
M  V30 15 C 2.341194 2.688614 2.896377 0
M  V30 16 C 2.007061 4.031593 2.756007 0
M  V30 17 C 1.209419 4.397157 1.685226 0
M  V30 18 N 0.776785 3.468989 0.812677 0
M  V30 19 C 0.886081 -0.166645 0.056497 0
M  V30 20 C -1.330581 -1.066890 0.016792 0
M  V30 21 C -1.548341 -2.188479 0.982688 0
M  V30 22 H 0.526183 -2.752218 5.510619 0
M  V30 23 H 0.271410 -4.496389 4.956067 0
M  V30 24 H 1.667039 -3.494113 4.390659 0
M  V30 25 H -0.921905 -3.903120 -0.802212 0
M  V30 26 H 0.654407 -4.397080 -0.076035 0
M  V30 27 H 0.820831 -2.703476 -1.892096 0
M  V30 28 H 1.690042 -2.406555 -0.401466 0
M  V30 29 H -1.394517 -0.764646 -2.382348 0
M  V30 30 H 0.278827 -1.157987 -2.843245 0
M  V30 31 H -0.657459 1.210602 -3.168438 0
M  V30 32 H 1.038010 1.048628 -2.691723 0
M  V30 33 H -1.282411 1.791768 -0.813656 0
M  V30 34 H 0.116591 2.760758 -1.417236 0
M  V30 35 H 2.139298 0.788388 2.108029 0
M  V30 36 H 2.952581 2.391496 3.712812 0
M  V30 37 H 2.350202 4.789057 3.453900 0
M  V30 38 H 0.906005 5.422118 1.507518 0
M  V30 39 H 1.924242 -0.335850 -0.295148 0
M  V30 40 H 0.860943 -0.456474 1.128972 0
M  V30 41 H -1.465824 -0.132110 0.605669 0
M  V30 42 H -2.211250 -1.052028 -0.664404 0
M  V30 43 H -2.404832 -2.837414 0.698016 0
M  V30 44 H -1.788585 -1.858973 2.019312 0
M  V30 END ATOM
M  V30 BEGIN BOND
M  V30 1 1 1 2
M  V30 2 1 2 3
M  V30 3 2 3 4
M  V30 4 1 3 5
M  V30 5 1 5 6
M  V30 6 1 6 7
M  V30 7 1 7 8
M  V30 8 1 8 9
M  V30 9 1 9 10
M  V30 10 1 10 11
M  V30 11 1 11 12
M  V30 12 1 12 13
M  V30 13 2 13 14
M  V30 14 1 14 15
M  V30 15 2 15 16
M  V30 16 1 16 17
M  V30 17 2 17 18
M  V30 18 1 12 19
M  V30 19 1 8 20
M  V30 20 1 20 21
M  V30 21 1 21 5
M  V30 22 1 19 8
M  V30 23 1 18 13
M  V30 24 1 1 22
M  V30 25 1 1 23
M  V30 26 1 1 24
M  V30 27 1 6 25
M  V30 28 1 6 26
M  V30 29 1 7 27
M  V30 30 1 7 28
M  V30 31 1 9 29
M  V30 32 1 9 30
M  V30 33 1 10 31
M  V30 34 1 10 32
M  V30 35 1 11 33
M  V30 36 1 11 34
M  V30 37 1 14 35
M  V30 38 1 15 36
M  V30 39 1 16 37
M  V30 40 1 17 38
M  V30 41 1 19 39
M  V30 42 1 19 40
M  V30 43 1 20 41
M  V30 44 1 20 42
M  V30 45 1 21 43
M  V30 46 1 21 44
M  V30 END BOND
M  V30 END CTAB
M  END
>  <Dataset>  (106) 
ChEMBL_Kinases

>  <Ligand_Instance>  (106) 
nan

>  <PDB_ID>  (106) 
nan

>  <Standardized_SMILES>  (106) 
COC(=O)N1CCC2(CCCN(c3ccccn3)C2)CC1

>  <Name>  (106) 
nan

>  <Pocket>  (106) 
nan

>  <ATP_Site>  (106) 
nan

>  <Peripheral>  (106) 
nan

>  <Num_H_Atoms_ProtBoundConf>  (106) 
nan

>  <Num_Resolved_Atoms>  (106) 
nan

>  <Num_Not_Resolved_Atoms>  (106) 
nan

$$$$
CHEMBL1394964
     RDKit          3D

  0  0  0  0  0  0  0  0  0  0999 V3000
M  V30 BEGIN CTAB
M  V30 COUNTS 40 42 0 0 0
M  V30 BEGIN ATOM
M  V30 1 C -0.400655 -3.544787 1.419544 0
M  V30 2 O 0.492310 -2.593755 0.961507 0
M  V30 3 C 1.521766 -3.142802 0.213412 0
M  V30 4 C 2.440547 -2.033457 -0.244318 0
M  V30 5 N 1.770248 -1.048993 -1.057926 0
M  V30 6 C 1.724245 -1.233693 -2.400468 0
M  V30 7 O 2.281915 -2.273431 -2.884954 0
M  V30 8 C 1.102278 -0.355630 -3.292697 0
M  V30 9 C 1.130923 -0.686623 -4.759916 0
M  V30 10 N 0.513744 0.735721 -2.809651 0
M  V30 11 C 0.556193 0.924011 -1.482817 0
M  V30 12 C -0.042110 2.051345 -0.908376 0
M  V30 13 N -0.003218 2.249594 0.417051 0
M  V30 14 C 0.611020 1.379288 1.268726 0
M  V30 15 N 0.494132 1.844073 2.601333 0
M  V30 16 C -0.501551 1.377561 3.498723 0
M  V30 17 C -1.347904 0.338790 3.104521 0
M  V30 18 C -2.311039 -0.098807 3.987468 0
M  V30 19 C -2.408424 0.497741 5.220778 0
M  V30 20 C -1.600670 1.538523 5.684315 0
M  V30 21 C -0.644151 1.945404 4.758962 0
M  V30 22 N 1.197211 0.279228 0.739927 0
M  V30 23 C 1.164958 0.064638 -0.608388 0
M  V30 24 H -1.182728 -2.994921 2.004642 0
M  V30 25 H 0.042196 -4.321225 2.066701 0
M  V30 26 H -0.827939 -4.072636 0.531500 0
M  V30 27 H 1.186683 -3.806790 -0.603309 0
M  V30 28 H 2.124463 -3.787664 0.907566 0
M  V30 29 H 2.765688 -1.519687 0.704020 0
M  V30 30 H 3.350555 -2.455572 -0.699832 0
M  V30 31 H 1.542354 -1.711198 -4.890565 0
M  V30 32 H 1.735703 0.071118 -5.314145 0
M  V30 33 H 0.070908 -0.645825 -5.099474 0
M  V30 34 H -0.518378 2.725772 -1.611385 0
M  V30 35 H 1.177016 2.563027 2.920013 0
M  V30 36 H -1.195985 -0.062535 2.123818 0
M  V30 37 H -2.973731 -0.914724 3.676949 0
M  V30 38 H -3.177296 0.134711 5.905487 0
M  V30 39 H -1.697780 1.985013 6.648856 0
M  V30 40 H 0.039983 2.750750 5.008229 0
M  V30 END ATOM
M  V30 BEGIN BOND
M  V30 1 1 1 2
M  V30 2 1 2 3
M  V30 3 1 3 4
M  V30 4 1 4 5
M  V30 5 1 5 6
M  V30 6 2 6 7
M  V30 7 1 6 8
M  V30 8 1 8 9
M  V30 9 2 8 10
M  V30 10 1 10 11
M  V30 11 2 11 12
M  V30 12 1 12 13
M  V30 13 2 13 14
M  V30 14 1 14 15
M  V30 15 1 15 16
M  V30 16 2 16 17
M  V30 17 1 17 18
M  V30 18 2 18 19
M  V30 19 1 19 20
M  V30 20 2 20 21
M  V30 21 1 14 22
M  V30 22 2 22 23
M  V30 23 1 23 5
M  V30 24 1 23 11
M  V30 25 1 21 16
M  V30 26 1 1 24
M  V30 27 1 1 25
M  V30 28 1 1 26
M  V30 29 1 3 27
M  V30 30 1 3 28
M  V30 31 1 4 29
M  V30 32 1 4 30
M  V30 33 1 9 31
M  V30 34 1 9 32
M  V30 35 1 9 33
M  V30 36 1 12 34
M  V30 37 1 15 35
M  V30 38 1 17 36
M  V30 39 1 18 37
M  V30 40 1 19 38
M  V30 41 1 20 39
M  V30 42 1 21 40
M  V30 END BOND
M  V30 END CTAB
M  END
>  <Dataset>  (107) 
ChEMBL_Kinases

>  <Ligand_Instance>  (107) 
nan

>  <PDB_ID>  (107) 
nan

>  <Standardized_SMILES>  (107) 
COCCn1c(=O)c(C)nc2cnc(Nc3ccccc3)nc21

>  <Name>  (107) 
nan

>  <Pocket>  (107) 
nan

>  <ATP_Site>  (107) 
nan

>  <Peripheral>  (107) 
nan

>  <Num_H_Atoms_ProtBoundConf>  (107) 
nan

>  <Num_Resolved_Atoms>  (107) 
nan

>  <Num_Not_Resolved_Atoms>  (107) 
nan

$$$$
CHEMBL1394992
     RDKit          3D

  0  0  0  0  0  0  0  0  0  0999 V3000
M  V30 BEGIN CTAB
M  V30 COUNTS 75 79 0 0 0
M  V30 BEGIN ATOM
M  V30 1 C 3.622622 -0.615734 6.690883 0
M  V30 2 N 3.480248 0.362605 5.687887 0
M  V30 3 C 3.339068 1.334373 4.691845 0
M  V30 4 C 3.982364 2.454868 4.278459 0
M  V30 5 C 3.534724 3.185989 3.212264 0
M  V30 6 C 2.404086 2.738493 2.574513 0
M  V30 7 O 1.823964 3.297935 1.539823 0
M  V30 8 C 0.763017 2.604342 1.185830 0
M  V30 9 C -0.208433 2.853521 0.068959 0
M  V30 10 C 0.349735 2.111785 -1.164358 0 CFG=1
M  V30 11 O 0.412246 0.830179 -0.804846 0
M  V30 12 C 0.151287 -0.193260 -1.675699 0 CFG=2
M  V30 13 C -0.477536 0.241063 -2.988521 0
M  V30 14 C -1.396335 1.442163 -2.728954 0
M  V30 15 C -0.439351 2.535029 -2.336407 0 CFG=1
M  V30 16 C -1.134370 3.865559 -2.162374 0
M  V30 17 O -0.919624 -0.841708 -1.014718 0
M  V30 18 C -1.033495 -2.177032 -1.301858 0 CFG=2
M  V30 19 C -2.407193 -2.644031 -0.907696 0 CFG=2
M  V30 20 C -2.688070 -2.458601 0.554614 0
M  V30 21 C -2.698662 -3.996946 -1.421839 0
M  V30 22 O -1.651794 -4.350087 -2.023258 0
M  V30 23 C -3.862282 -4.851497 -1.339420 0
M  V30 24 C -5.081324 -4.692047 -0.771424 0
M  V30 25 C -5.848271 -5.823546 -0.983034 0
M  V30 26 C -4.996964 -6.652449 -1.710811 0
M  V30 27 N -3.815922 -6.058268 -1.915481 0
M  V30 28 C 0.103100 -2.835209 -0.595555 0 CFG=2
M  V30 29 C 0.426289 -2.251748 0.762266 0
M  V30 30 C 1.296529 -2.467558 -1.472877 0
M  V30 31 C 1.357062 -1.047298 -1.877409 0 CFG=1
M  V30 32 C 1.838070 -1.049820 -3.328583 0
M  V30 33 N 0.651473 1.560025 2.019279 0
M  V30 34 C 1.665070 1.618575 2.898558 0
M  V30 35 C 2.179462 0.913389 4.003502 0
M  V30 36 C 1.303616 -0.259929 4.255382 0
M  V30 37 O 0.326661 -0.115997 5.034376 0
M  V30 38 O 1.327784 -1.547780 3.796614 0
M  V30 39 H 2.772305 -1.387597 6.615954 0
M  V30 40 H 4.586099 -1.205513 6.685379 0
M  V30 41 H 3.508410 -0.213858 7.723333 0
M  V30 42 H 4.368343 0.819990 6.086257 0
M  V30 43 H 4.845568 2.662836 4.886262 0
M  V30 44 H 4.145144 4.036787 3.010695 0
M  V30 45 H -1.200633 2.443562 0.314193 0
M  V30 46 H -0.212736 3.949482 -0.086541 0
M  V30 47 H 1.385676 2.558837 -1.264503 0
M  V30 48 H 0.234158 0.564447 -3.748104 0
M  V30 49 H -1.103610 -0.558597 -3.427728 0
M  V30 50 H -1.889135 1.651276 -3.701985 0
M  V30 51 H -2.093751 1.273620 -1.908318 0
M  V30 52 H 0.251144 2.680187 -3.208258 0
M  V30 53 H -1.633957 4.103211 -3.127182 0
M  V30 54 H -1.842319 3.862712 -1.330167 0
M  V30 55 H -0.309065 4.613694 -2.067163 0
M  V30 56 H -0.934910 -2.308029 -2.397887 0
M  V30 57 H -3.122345 -1.958414 -1.434601 0
M  V30 58 H -3.777953 -2.454811 0.734051 0
M  V30 59 H -2.338917 -1.428066 0.836152 0
M  V30 60 H -2.236659 -3.206072 1.220379 0
M  V30 61 H -5.427081 -3.840552 -0.240104 0
M  V30 62 H -6.866974 -5.962093 -0.633778 0
M  V30 63 H -5.308690 -7.635243 -2.038207 0
M  V30 64 H -3.056519 -6.562927 -2.456068 0
M  V30 65 H 0.071834 -3.928990 -0.533873 0
M  V30 66 H 0.131608 -2.996606 1.551912 0
M  V30 67 H 0.043595 -1.249634 0.939300 0
M  V30 68 H 1.542493 -2.171716 0.911140 0
M  V30 69 H 1.227663 -3.188773 -2.337426 0
M  V30 70 H 2.184446 -2.809433 -0.898994 0
M  V30 71 H 2.226745 -0.594691 -1.315297 0
M  V30 72 H 1.053136 -1.343947 -4.026883 0
M  V30 73 H 2.608112 -1.850902 -3.391006 0
M  V30 74 H 2.374176 -0.121250 -3.588453 0
M  V30 75 H 1.271867 -2.343394 4.418435 0
M  V30 END ATOM
M  V30 BEGIN BOND
M  V30 1 1 1 2
M  V30 2 1 2 3
M  V30 3 2 3 4
M  V30 4 1 4 5
M  V30 5 2 5 6
M  V30 6 1 6 7
M  V30 7 1 7 8
M  V30 8 1 8 9
M  V30 9 1 9 10
M  V30 10 1 10 11
M  V30 11 1 12 11 CFG=1
M  V30 12 1 12 13
M  V30 13 1 13 14
M  V30 14 1 14 15
M  V30 15 1 15 16
M  V30 16 1 12 17
M  V30 17 1 17 18
M  V30 18 1 18 19
M  V30 19 1 19 20
M  V30 20 1 19 21
M  V30 21 2 21 22
M  V30 22 1 21 23
M  V30 23 2 23 24
M  V30 24 1 24 25
M  V30 25 2 25 26
M  V30 26 1 26 27
M  V30 27 1 18 28
M  V30 28 1 28 29
M  V30 29 1 28 30
M  V30 30 1 30 31
M  V30 31 1 31 32
M  V30 32 2 8 33
M  V30 33 1 33 34
M  V30 34 2 34 35
M  V30 35 1 35 36
M  V30 36 2 36 37
M  V30 37 1 36 38
M  V30 38 1 35 3
M  V30 39 1 34 6
M  V30 40 1 15 10
M  V30 41 1 27 23
M  V30 42 1 31 12
M  V30 43 1 1 39
M  V30 44 1 1 40
M  V30 45 1 1 41
M  V30 46 1 2 42
M  V30 47 1 4 43
M  V30 48 1 5 44
M  V30 49 1 9 45
M  V30 50 1 9 46
M  V30 51 1 10 47 CFG=3
M  V30 52 1 13 48
M  V30 53 1 13 49
M  V30 54 1 14 50
M  V30 55 1 14 51
M  V30 56 1 15 52 CFG=3
M  V30 57 1 16 53
M  V30 58 1 16 54
M  V30 59 1 16 55
M  V30 60 1 18 56 CFG=3
M  V30 61 1 19 57 CFG=3
M  V30 62 1 20 58
M  V30 63 1 20 59
M  V30 64 1 20 60
M  V30 65 1 24 61
M  V30 66 1 25 62
M  V30 67 1 26 63
M  V30 68 1 27 64
M  V30 69 1 28 65 CFG=1
M  V30 70 1 29 66
M  V30 71 1 29 67
M  V30 72 1 29 68
M  V30 73 1 30 69
M  V30 74 1 30 70
M  V30 75 1 31 71 CFG=1
M  V30 76 1 32 72
M  V30 77 1 32 73
M  V30 78 1 32 74
M  V30 79 1 38 75
M  V30 END BOND
M  V30 END CTAB
M  END
>  <Dataset>  (108) 
ChEMBL_Kinases

>  <Ligand_Instance>  (108) 
nan

>  <PDB_ID>  (108) 
nan

>  <Standardized_SMILES>  (108) 
CNc1ccc2oc(C[C@H]3O[C@]4(CC[C@H]3C)O[C@H]([C@H](C)C(=O)c3ccc[nH]3)[C@H](C)C[C@H]4C)nc2c1C(=O)O

>  <Name>  (108) 
nan

>  <Pocket>  (108) 
nan

>  <ATP_Site>  (108) 
nan

>  <Peripheral>  (108) 
nan

>  <Num_H_Atoms_ProtBoundConf>  (108) 
nan

>  <Num_Resolved_Atoms>  (108) 
nan

>  <Num_Not_Resolved_Atoms>  (108) 
nan

$$$$
CHEMBL1393926
     RDKit          3D

  0  0  0  0  0  0  0  0  0  0999 V3000
M  V30 BEGIN CTAB
M  V30 COUNTS 50 52 0 0 0
M  V30 BEGIN ATOM
M  V30 1 C 0.687932 -1.210591 4.100599 0
M  V30 2 C 0.457633 -1.110383 2.658789 0
M  V30 3 O 0.349770 -2.292471 2.212022 0
M  V30 4 N 0.379484 0.130856 1.945029 0
M  V30 5 C 0.524631 1.422315 2.601699 0 CFG=2
M  V30 6 C -0.693542 1.768753 3.408803 0
M  V30 7 C 0.544623 2.321557 1.412004 0
M  V30 8 C 0.339773 1.671120 0.248745 0
M  V30 9 C 0.150432 0.209350 0.515435 0 CFG=1
M  V30 10 C 1.243865 -0.494456 -0.251673 0
M  V30 11 C 2.572139 0.071598 -0.006453 0
M  V30 12 C 2.969077 1.104217 -0.861940 0
M  V30 13 C 4.210217 1.722064 -0.728619 0
M  V30 14 C 5.077945 1.331014 0.249793 0
M  V30 15 C 4.711411 0.320322 1.101238 0
M  V30 16 C 3.482920 -0.287557 0.965329 0
M  V30 17 C -1.172220 -0.266423 0.098579 0
M  V30 18 O -1.405102 -0.211537 -1.149340 0
M  V30 19 N -2.161557 -0.764605 0.992283 0
M  V30 20 C -3.435349 -1.202030 0.414859 0
M  V30 21 C -3.121994 -2.301648 -0.540971 0
M  V30 22 C -3.100900 -3.625035 -0.098274 0
M  V30 23 C -2.785214 -4.448222 -1.176735 0
M  V30 24 C -2.632506 -3.552922 -2.223378 0
M  V30 25 C -2.283895 -3.909118 -3.638667 0
M  V30 26 O -2.833377 -2.322507 -1.823930 0
M  V30 27 H 1.546379 -1.868778 4.389905 0
M  V30 28 H -0.219143 -1.702999 4.558712 0
M  V30 29 H 0.887651 -0.247221 4.615458 0
M  V30 30 H 1.464718 1.483850 3.182645 0
M  V30 31 H -0.457267 2.600804 4.093108 0
M  V30 32 H -1.477166 2.121786 2.707033 0
M  V30 33 H -1.132329 0.893942 3.927731 0
M  V30 34 H 0.717900 3.373537 1.613462 0
M  V30 35 H 0.339208 2.253745 -0.665551 0
M  V30 36 H 0.987714 -0.479927 -1.323957 0
M  V30 37 H 1.251284 -1.555546 0.064817 0
M  V30 38 H 2.387453 1.506413 -1.668453 0
M  V30 39 H 4.543415 2.521147 -1.373902 0
M  V30 40 H 6.058279 1.800777 0.374730 0
M  V30 41 H 5.396262 0.012197 1.872892 0
M  V30 42 H 3.164576 -1.086325 1.619734 0
M  V30 43 H -1.952994 -0.802497 2.014697 0
M  V30 44 H -3.887296 -0.341880 -0.123314 0
M  V30 45 H -4.147941 -1.526255 1.172908 0
M  V30 46 H -3.277737 -4.091525 0.882313 0
M  V30 47 H -2.672291 -5.524990 -1.245024 0
M  V30 48 H -1.263276 -3.591953 -3.883273 0
M  V30 49 H -2.380552 -5.002233 -3.758334 0
M  V30 50 H -3.051523 -3.461165 -4.304300 0
M  V30 END ATOM
M  V30 BEGIN BOND
M  V30 1 1 1 2
M  V30 2 2 2 3
M  V30 3 1 2 4
M  V30 4 1 4 5
M  V30 5 1 5 6
M  V30 6 1 5 7
M  V30 7 2 7 8
M  V30 8 1 8 9
M  V30 9 1 9 10 CFG=3
M  V30 10 1 10 11
M  V30 11 2 11 12
M  V30 12 1 12 13
M  V30 13 2 13 14
M  V30 14 1 14 15
M  V30 15 2 15 16
M  V30 16 1 9 17
M  V30 17 2 17 18
M  V30 18 1 17 19
M  V30 19 1 19 20
M  V30 20 1 20 21
M  V30 21 2 21 22
M  V30 22 1 22 23
M  V30 23 2 23 24
M  V30 24 1 24 25
M  V30 25 1 24 26
M  V30 26 1 9 4
M  V30 27 1 16 11
M  V30 28 1 26 21
M  V30 29 1 1 27
M  V30 30 1 1 28
M  V30 31 1 1 29
M  V30 32 1 5 30 CFG=1
M  V30 33 1 6 31
M  V30 34 1 6 32
M  V30 35 1 6 33
M  V30 36 1 7 34
M  V30 37 1 8 35
M  V30 38 1 10 36
M  V30 39 1 10 37
M  V30 40 1 12 38
M  V30 41 1 13 39
M  V30 42 1 14 40
M  V30 43 1 15 41
M  V30 44 1 16 42
M  V30 45 1 19 43
M  V30 46 1 20 44
M  V30 47 1 20 45
M  V30 48 1 22 46
M  V30 49 1 23 47
M  V30 50 1 25 48
M  V30 51 1 25 49
M  V30 52 1 25 50
M  V30 END BOND
M  V30 END CTAB
M  END
>  <Dataset>  (109) 
ChEMBL_Kinases

>  <Ligand_Instance>  (109) 
nan

>  <PDB_ID>  (109) 
nan

>  <Standardized_SMILES>  (109) 
CC(=O)N1[C@H](C)C=C[C@]1(Cc1ccccc1)C(=O)NCc1ccc(C)o1

>  <Name>  (109) 
nan

>  <Pocket>  (109) 
nan

>  <ATP_Site>  (109) 
nan

>  <Peripheral>  (109) 
nan

>  <Num_H_Atoms_ProtBoundConf>  (109) 
nan

>  <Num_Resolved_Atoms>  (109) 
nan

>  <Num_Not_Resolved_Atoms>  (109) 
nan

$$$$
CHEMBL1387217
     RDKit          3D

  0  0  0  0  0  0  0  0  0  0999 V3000
M  V30 BEGIN CTAB
M  V30 COUNTS 63 67 0 0 0
M  V30 BEGIN ATOM
M  V30 1 C 4.389937 -0.703044 5.188160 0
M  V30 2 O 4.866989 -1.014081 3.894399 0
M  V30 3 C 4.239359 -0.583761 2.734881 0
M  V30 4 C 4.816010 -0.962445 1.521503 0
M  V30 5 C 4.294812 -0.603158 0.293126 0
M  V30 6 C 3.133463 0.177516 0.270882 0
M  V30 7 C 2.520873 0.606525 -0.999726 0
M  V30 8 C 1.508596 -0.366819 -1.555026 0
M  V30 9 N 0.452688 -0.526600 -0.582224 0
M  V30 10 C -0.643659 0.286719 -0.558121 0
M  V30 11 N -0.735952 1.237555 -1.432679 0
M  V30 12 C -1.664625 0.143086 0.359270 0
M  V30 13 C -2.811905 1.042961 0.336042 0
M  V30 14 O -2.435538 1.963626 1.097363 0
M  V30 15 N -3.950403 0.703772 -0.450795 0
M  V30 16 C -4.179776 -0.472250 -1.295985 0
M  V30 17 C -4.516805 -0.071100 -2.709909 0
M  V30 18 N -4.580135 1.365043 -2.855194 0
M  V30 19 C -4.952770 1.699238 -4.197987 0
M  V30 20 C -5.482663 1.974537 -1.907608 0
M  V30 21 C -5.104313 1.558960 -0.504871 0
M  V30 22 C -1.603528 -0.858280 1.307373 0
M  V30 23 C -0.502271 -1.690211 1.297665 0
M  V30 24 C -0.456341 -2.689031 2.248439 0
M  V30 25 O -1.351997 -2.864841 3.103069 0
M  V30 26 N 0.601913 -3.536476 2.279970 0
M  V30 27 C 0.657070 -4.514673 3.203262 0
M  V30 28 C 1.737924 -5.379545 3.234669 0
M  V30 29 C 2.769095 -5.236338 2.309104 0
M  V30 30 C 2.656469 -4.210851 1.382846 0
M  V30 31 C 1.561664 -3.338870 1.355071 0
M  V30 32 N 1.513919 -2.363777 0.429302 0
M  V30 33 C 0.489048 -1.495278 0.351845 0
M  V30 34 C 2.551750 0.559617 1.485818 0
M  V30 35 C 3.090848 0.188421 2.699363 0
M  V30 36 H 4.778205 -1.439509 5.925962 0
M  V30 37 H 4.747637 0.296418 5.461606 0
M  V30 38 H 3.265793 -0.680085 5.200295 0
M  V30 39 H 5.716576 -1.567218 1.457077 0
M  V30 40 H 4.749307 -0.901759 -0.641468 0
M  V30 41 H 3.307674 0.851885 -1.750961 0
M  V30 42 H 2.005832 1.576760 -0.786666 0
M  V30 43 H 1.967682 -1.364202 -1.755133 0
M  V30 44 H 1.128172 -0.009084 -2.531718 0
M  V30 45 H -1.518053 1.901204 -1.498358 0
M  V30 46 H -5.001754 -1.062009 -0.827667 0
M  V30 47 H -3.290482 -1.122055 -1.298738 0
M  V30 48 H -3.734020 -0.419824 -3.421873 0
M  V30 49 H -5.459674 -0.567335 -3.016188 0
M  V30 50 H -4.346780 2.557683 -4.570707 0
M  V30 51 H -4.751775 0.829210 -4.856423 0
M  V30 52 H -6.016267 2.008066 -4.274479 0
M  V30 53 H -6.545706 1.713548 -2.078673 0
M  V30 54 H -5.402212 3.055093 -2.017013 0
M  V30 55 H -5.959297 1.016170 -0.013340 0
M  V30 56 H -4.908944 2.455192 0.107212 0
M  V30 57 H -2.394345 -0.984876 2.033412 0
M  V30 58 H -0.121486 -4.657102 3.935945 0
M  V30 59 H 1.854079 -6.192619 3.948647 0
M  V30 60 H 3.660614 -5.853134 2.239693 0
M  V30 61 H 3.437028 -4.044918 0.625491 0
M  V30 62 H 1.650051 1.165881 1.450070 0
M  V30 63 H 2.646935 0.479906 3.640993 0
M  V30 END ATOM
M  V30 BEGIN BOND
M  V30 1 1 1 2
M  V30 2 1 2 3
M  V30 3 2 3 4
M  V30 4 1 4 5
M  V30 5 2 5 6
M  V30 6 1 6 7
M  V30 7 1 7 8
M  V30 8 1 8 9
M  V30 9 1 9 10
M  V30 10 2 10 11 CFG=2
M  V30 11 1 10 12
M  V30 12 1 12 13
M  V30 13 2 13 14
M  V30 14 1 13 15
M  V30 15 1 15 16
M  V30 16 1 16 17
M  V30 17 1 17 18
M  V30 18 1 18 19
M  V30 19 1 18 20
M  V30 20 1 20 21
M  V30 21 2 12 22
M  V30 22 1 22 23
M  V30 23 1 23 24
M  V30 24 2 24 25
M  V30 25 1 24 26
M  V30 26 1 26 27
M  V30 27 2 27 28
M  V30 28 1 28 29
M  V30 29 2 29 30
M  V30 30 1 30 31
M  V30 31 2 31 32
M  V30 32 1 32 33
M  V30 33 1 6 34
M  V30 34 2 34 35
M  V30 35 1 35 3
M  V30 36 1 33 9
M  V30 37 1 21 15
M  V30 38 2 33 23
M  V30 39 1 31 26
M  V30 40 1 1 36
M  V30 41 1 1 37
M  V30 42 1 1 38
M  V30 43 1 4 39
M  V30 44 1 5 40
M  V30 45 1 7 41
M  V30 46 1 7 42
M  V30 47 1 8 43
M  V30 48 1 8 44
M  V30 49 1 11 45
M  V30 50 1 16 46
M  V30 51 1 16 47
M  V30 52 1 17 48
M  V30 53 1 17 49
M  V30 54 1 19 50
M  V30 55 1 19 51
M  V30 56 1 19 52
M  V30 57 1 20 53
M  V30 58 1 20 54
M  V30 59 1 21 55
M  V30 60 1 21 56
M  V30 61 1 22 57
M  V30 62 1 27 58
M  V30 63 1 28 59
M  V30 64 1 29 60
M  V30 65 1 30 61
M  V30 66 1 34 62
M  V30 67 1 35 63
M  V30 END BOND
M  V30 END CTAB
M  END
>  <Dataset>  (110) 
ChEMBL_Kinases

>  <Ligand_Instance>  (110) 
nan

>  <PDB_ID>  (110) 
nan

>  <Standardized_SMILES>  (110) 
COc1ccc(CCn2c(=N)c(C(=O)N3CCN(C)CC3)cc3c(=O)n4ccccc4nc32)cc1

>  <Name>  (110) 
nan

>  <Pocket>  (110) 
nan

>  <ATP_Site>  (110) 
nan

>  <Peripheral>  (110) 
nan

>  <Num_H_Atoms_ProtBoundConf>  (110) 
nan

>  <Num_Resolved_Atoms>  (110) 
nan

>  <Num_Not_Resolved_Atoms>  (110) 
nan

$$$$
CHEMBL1387038
     RDKit          3D

  0  0  0  0  0  0  0  0  0  0999 V3000
M  V30 BEGIN CTAB
M  V30 COUNTS 42 44 0 0 0
M  V30 BEGIN ATOM
M  V30 1 C -1.280700 -3.670125 2.107242 0
M  V30 2 S -1.102718 -3.835943 0.315545 0
M  V30 3 C 0.588617 -3.989069 -0.183357 0
M  V30 4 C 1.168678 -5.251563 -0.274900 0
M  V30 5 C 2.484520 -5.358307 -0.664623 0
M  V30 6 C 3.274428 -4.266220 -0.974956 0
M  V30 7 C 2.668619 -3.012224 -0.875020 0
M  V30 8 C 1.349202 -2.860713 -0.487219 0
M  V30 9 N 0.731653 -1.604610 -0.381717 0
M  V30 10 C 0.011798 -0.802429 -1.302217 0
M  V30 11 O -0.210413 -1.134481 -2.510556 0
M  V30 12 C -0.577111 0.518169 -0.999248 0
M  V30 13 N -0.392475 0.972088 0.351350 0
M  V30 14 C 0.445496 2.074093 0.757461 0
M  V30 15 C 0.934195 3.142315 0.037028 0
M  V30 16 C 1.735205 4.072347 0.692890 0
M  V30 17 C 2.024065 3.912781 2.037601 0
M  V30 18 C 1.507122 2.820841 2.715206 0
M  V30 19 C 0.707957 1.876793 2.096756 0
M  V30 20 C 0.049800 0.652500 2.590979 0
M  V30 21 C -1.009678 0.407832 1.538773 0
M  V30 22 C -2.212459 1.214927 1.978930 0
M  V30 23 H -1.989668 -2.821352 2.321482 0
M  V30 24 H -0.305487 -3.435282 2.593021 0
M  V30 25 H -1.718783 -4.599931 2.552085 0
M  V30 26 H 0.631716 -6.177913 -0.052026 0
M  V30 27 H 2.939371 -6.356433 -0.735680 0
M  V30 28 H 4.311546 -4.344870 -1.282679 0
M  V30 29 H 3.266611 -2.122410 -1.114282 0
M  V30 30 H 0.881423 -1.263456 0.589757 0
M  V30 31 H -1.664009 0.445567 -1.257596 0
M  V30 32 H -0.096983 1.246323 -1.693645 0
M  V30 33 H 0.682587 3.223088 -1.004356 0
M  V30 34 H 2.105827 4.900733 0.105246 0
M  V30 35 H 2.654257 4.663021 2.513596 0
M  V30 36 H 1.771938 2.751123 3.775875 0
M  V30 37 H 0.739291 -0.194046 2.726663 0
M  V30 38 H -0.402167 0.832434 3.590978 0
M  V30 39 H -1.253700 -0.661124 1.432897 0
M  V30 40 H -2.841578 0.575873 2.642925 0
M  V30 41 H -2.834928 1.576046 1.154476 0
M  V30 42 H -1.908177 2.091061 2.607026 0
M  V30 END ATOM
M  V30 BEGIN BOND
M  V30 1 1 1 2
M  V30 2 1 2 3
M  V30 3 2 3 4
M  V30 4 1 4 5
M  V30 5 2 5 6
M  V30 6 1 6 7
M  V30 7 2 7 8
M  V30 8 1 8 9
M  V30 9 1 9 10
M  V30 10 2 10 11
M  V30 11 1 10 12
M  V30 12 1 12 13
M  V30 13 1 13 14
M  V30 14 2 14 15
M  V30 15 1 15 16
M  V30 16 2 16 17
M  V30 17 1 17 18
M  V30 18 2 18 19
M  V30 19 1 19 20
M  V30 20 1 20 21
M  V30 21 1 21 22
M  V30 22 1 8 3
M  V30 23 1 21 13
M  V30 24 1 19 14
M  V30 25 1 1 23
M  V30 26 1 1 24
M  V30 27 1 1 25
M  V30 28 1 4 26
M  V30 29 1 5 27
M  V30 30 1 6 28
M  V30 31 1 7 29
M  V30 32 1 9 30
M  V30 33 1 12 31
M  V30 34 1 12 32
M  V30 35 1 15 33
M  V30 36 1 16 34
M  V30 37 1 17 35
M  V30 38 1 18 36
M  V30 39 1 20 37
M  V30 40 1 20 38
M  V30 41 1 21 39
M  V30 42 1 22 40
M  V30 43 1 22 41
M  V30 44 1 22 42
M  V30 END BOND
M  V30 END CTAB
M  END
>  <Dataset>  (111) 
ChEMBL_Kinases

>  <Ligand_Instance>  (111) 
nan

>  <PDB_ID>  (111) 
nan

>  <Standardized_SMILES>  (111) 
CSc1ccccc1NC(=O)CN1c2ccccc2CC1C

>  <Name>  (111) 
nan

>  <Pocket>  (111) 
nan

>  <ATP_Site>  (111) 
nan

>  <Peripheral>  (111) 
nan

>  <Num_H_Atoms_ProtBoundConf>  (111) 
nan

>  <Num_Resolved_Atoms>  (111) 
nan

>  <Num_Not_Resolved_Atoms>  (111) 
nan

$$$$
CHEMBL1386871
     RDKit          3D

  0  0  0  0  0  0  0  0  0  0999 V3000
M  V30 BEGIN CTAB
M  V30 COUNTS 33 35 0 0 0
M  V30 BEGIN ATOM
M  V30 1 C -1.766362 -3.008303 4.322649 0
M  V30 2 C -1.107899 -3.711141 3.148240 0
M  V30 3 O -0.719481 -2.703146 2.235542 0
M  V30 4 C -0.080659 -2.966046 1.031632 0
M  V30 5 O 0.114988 -4.171104 0.836903 0
M  V30 6 C 0.307647 -1.903146 0.110688 0
M  V30 7 C 0.940981 -2.121277 -1.089410 0
M  V30 8 C 1.359725 -3.401064 -1.707219 0
M  V30 9 N 1.117008 -0.879521 -1.624455 0
M  V30 10 C 0.597444 0.026373 -0.752401 0
M  V30 11 C 0.527868 1.408411 -0.830632 0
M  V30 12 C 1.051668 2.026599 -1.946677 0
M  V30 13 C 0.992735 3.416897 -2.046892 0
M  V30 14 C 0.423254 4.186594 -1.056515 0
M  V30 15 C -0.089037 3.528053 0.043350 0
M  V30 16 C -0.048136 2.150372 0.176752 0
M  V30 17 C -0.566060 1.494106 1.287272 0
M  V30 18 C -0.476935 0.126796 1.325153 0
M  V30 19 N 0.085423 -0.596786 0.341512 0
M  V30 20 H -1.174371 -3.063631 5.248474 0
M  V30 21 H -1.949846 -1.924582 4.117973 0
M  V30 22 H -2.789251 -3.447584 4.460391 0
M  V30 23 H -1.825405 -4.426745 2.650214 0
M  V30 24 H -0.270695 -4.356967 3.486958 0
M  V30 25 H 2.254316 -3.157723 -2.347875 0
M  V30 26 H 1.653647 -4.172143 -0.971699 0
M  V30 27 H 0.576432 -3.771331 -2.403788 0
M  V30 28 H 1.508677 1.446172 -2.747265 0
M  V30 29 H 1.393185 3.946639 -2.908959 0
M  V30 30 H 0.349290 5.264368 -1.079137 0
M  V30 31 H -0.556197 4.045723 0.873372 0
M  V30 32 H -1.012669 2.100210 2.063546 0
M  V30 33 H -0.880307 -0.367142 2.187412 0
M  V30 END ATOM
M  V30 BEGIN BOND
M  V30 1 1 1 2
M  V30 2 1 2 3
M  V30 3 1 3 4
M  V30 4 2 4 5
M  V30 5 1 4 6
M  V30 6 2 6 7
M  V30 7 1 7 8
M  V30 8 1 7 9
M  V30 9 2 9 10
M  V30 10 1 10 11
M  V30 11 2 11 12
M  V30 12 1 12 13
M  V30 13 2 13 14
M  V30 14 1 14 15
M  V30 15 2 15 16
M  V30 16 1 16 17
M  V30 17 2 17 18
M  V30 18 1 18 19
M  V30 19 1 19 6
M  V30 20 1 19 10
M  V30 21 1 16 11
M  V30 22 1 1 20
M  V30 23 1 1 21
M  V30 24 1 1 22
M  V30 25 1 2 23
M  V30 26 1 2 24
M  V30 27 1 8 25
M  V30 28 1 8 26
M  V30 29 1 8 27
M  V30 30 1 12 28
M  V30 31 1 13 29
M  V30 32 1 14 30
M  V30 33 1 15 31
M  V30 34 1 17 32
M  V30 35 1 18 33
M  V30 END BOND
M  V30 END CTAB
M  END
>  <Dataset>  (112) 
ChEMBL_Kinases

>  <Ligand_Instance>  (112) 
nan

>  <PDB_ID>  (112) 
nan

>  <Standardized_SMILES>  (112) 
CCOC(=O)c1c(C)nc2c3ccccc3ccn12

>  <Name>  (112) 
nan

>  <Pocket>  (112) 
nan

>  <ATP_Site>  (112) 
nan

>  <Peripheral>  (112) 
nan

>  <Num_H_Atoms_ProtBoundConf>  (112) 
nan

>  <Num_Resolved_Atoms>  (112) 
nan

>  <Num_Not_Resolved_Atoms>  (112) 
nan

$$$$
CHEMBL1386729
     RDKit          3D

  0  0  0  0  0  0  0  0  0  0999 V3000
M  V30 BEGIN CTAB
M  V30 COUNTS 39 41 0 0 0
M  V30 BEGIN ATOM
M  V30 1 C -0.712505 -3.759395 0.979377 0
M  V30 2 S 0.203857 -2.748030 2.174464 0
M  V30 3 C 1.696553 -2.165157 1.445671 0
M  V30 4 N 2.848890 -2.865032 1.514084 0
M  V30 5 C 3.796518 -2.143319 0.858308 0
M  V30 6 C 5.121703 -2.481357 0.680723 0
M  V30 7 C 5.885659 -1.577281 -0.024876 0
M  V30 8 C 5.352232 -0.405971 -0.521633 0
M  V30 9 C 4.014259 -0.167640 -0.285801 0
M  V30 10 C 3.165606 -1.003747 0.405698 0
M  V30 11 N 1.873982 -1.027339 0.772553 0
M  V30 12 C 0.975208 0.018947 0.444656 0
M  V30 13 O 1.394122 0.999828 -0.208479 0
M  V30 14 N -0.377266 0.119579 0.760116 0
M  V30 15 C -1.261600 1.165623 0.428455 0
M  V30 16 C -2.448541 0.878489 -0.407072 0
M  V30 17 C -3.638678 0.320109 0.328877 0
M  V30 18 C -3.492884 0.183419 1.794466 0
M  V30 19 C -2.715809 1.269900 2.480988 0
M  V30 20 C -1.657662 1.913010 1.664115 0
M  V30 21 H -1.815104 -3.606123 1.074443 0
M  V30 22 H -0.424666 -4.822037 1.027922 0
M  V30 23 H -0.411973 -3.390477 -0.043710 0
M  V30 24 H 5.520942 -3.403129 1.077325 0
M  V30 25 H 6.928473 -1.807813 -0.184110 0
M  V30 26 H 5.976230 0.287181 -1.073123 0
M  V30 27 H 3.642636 0.761280 -0.693835 0
M  V30 28 H -0.825694 -0.648798 1.304701 0
M  V30 29 H -0.622504 1.901640 -0.150937 0
M  V30 30 H -2.231066 0.282973 -1.318530 0
M  V30 31 H -2.801309 1.852624 -0.820574 0
M  V30 32 H -3.822368 -0.720163 -0.073068 0
M  V30 33 H -4.591932 0.848447 0.109742 0
M  V30 34 H -3.093428 -0.834953 2.073786 0
M  V30 35 H -4.502553 0.177120 2.258728 0
M  V30 36 H -3.415266 2.087958 2.822993 0
M  V30 37 H -2.284011 0.890912 3.440231 0
M  V30 38 H -1.941401 2.953020 1.352773 0
M  V30 39 H -0.721685 2.024898 2.276664 0
M  V30 END ATOM
M  V30 BEGIN BOND
M  V30 1 1 1 2
M  V30 2 1 2 3
M  V30 3 2 3 4
M  V30 4 1 4 5
M  V30 5 2 5 6
M  V30 6 1 6 7
M  V30 7 2 7 8
M  V30 8 1 8 9
M  V30 9 2 9 10
M  V30 10 1 10 11
M  V30 11 1 11 12
M  V30 12 2 12 13
M  V30 13 1 12 14
M  V30 14 1 14 15
M  V30 15 1 15 16
M  V30 16 1 16 17
M  V30 17 1 17 18
M  V30 18 1 18 19
M  V30 19 1 19 20
M  V30 20 1 11 3
M  V30 21 1 20 15
M  V30 22 1 10 5
M  V30 23 1 1 21
M  V30 24 1 1 22
M  V30 25 1 1 23
M  V30 26 1 6 24
M  V30 27 1 7 25
M  V30 28 1 8 26
M  V30 29 1 9 27
M  V30 30 1 14 28
M  V30 31 1 15 29
M  V30 32 1 16 30
M  V30 33 1 16 31
M  V30 34 1 17 32
M  V30 35 1 17 33
M  V30 36 1 18 34
M  V30 37 1 18 35
M  V30 38 1 19 36
M  V30 39 1 19 37
M  V30 40 1 20 38
M  V30 41 1 20 39
M  V30 END BOND
M  V30 END CTAB
M  END
>  <Dataset>  (113) 
ChEMBL_Kinases

>  <Ligand_Instance>  (113) 
nan

>  <PDB_ID>  (113) 
nan

>  <Standardized_SMILES>  (113) 
CSc1nc2ccccc2n1C(=O)NC1CCCCC1

>  <Name>  (113) 
nan

>  <Pocket>  (113) 
nan

>  <ATP_Site>  (113) 
nan

>  <Peripheral>  (113) 
nan

>  <Num_H_Atoms_ProtBoundConf>  (113) 
nan

>  <Num_Resolved_Atoms>  (113) 
nan

>  <Num_Not_Resolved_Atoms>  (113) 
nan

$$$$
CHEMBL1386433
     RDKit          3D

  0  0  0  0  0  0  0  0  0  0999 V3000
M  V30 BEGIN CTAB
M  V30 COUNTS 51 53 0 0 0
M  V30 BEGIN ATOM
M  V30 1 C 5.876626 -2.236796 -3.284742 0
M  V30 2 C 6.034966 -1.075354 -2.367580 0
M  V30 3 C 7.268241 -0.518786 -2.135541 0
M  V30 4 C 7.487550 0.550162 -1.304770 0
M  V30 5 C 6.359486 1.066294 -0.682530 0
M  V30 6 C 5.118700 0.535020 -0.892636 0
M  V30 7 C 4.911844 -0.537915 -1.728885 0
M  V30 8 O 3.701058 -1.137016 -1.999436 0
M  V30 9 C 2.516359 -0.680326 -1.415896 0
M  V30 10 C 2.208697 0.744495 -1.754170 0
M  V30 11 O 2.467225 1.844360 -2.332426 0
M  V30 12 O 1.027980 1.136054 -1.146504 0
M  V30 13 C 0.457760 2.427439 -1.266782 0
M  V30 14 C -0.792377 2.443260 -0.476142 0
M  V30 15 O -1.229184 3.635050 -0.658806 0
M  V30 16 C -1.517268 1.497713 0.351565 0
M  V30 17 C -1.168035 0.204142 0.629695 0
M  V30 18 C -1.889673 -0.658730 1.423625 0
M  V30 19 C -3.056049 -0.140953 1.966564 0
M  V30 20 O -3.833123 -0.937305 2.770113 0
M  V30 21 C -3.557799 -2.261080 3.106883 0
M  V30 22 C -4.651536 -2.749008 3.992017 0
M  V30 23 C -5.720938 -3.324145 3.345954 0
M  V30 24 C -6.825878 -3.833438 4.001001 0
M  V30 25 C -6.854140 -3.758490 5.387530 0
M  V30 26 C -5.791248 -3.185506 6.050385 0
M  V30 27 C -4.697146 -2.683105 5.371819 0
M  V30 28 C -3.439821 1.157811 1.708436 0
M  V30 29 C -2.680607 1.969033 0.910551 0
M  V30 30 H 5.089208 -2.913867 -2.891112 0
M  V30 31 H 5.573425 -1.946287 -4.297990 0
M  V30 32 H 6.815150 -2.804518 -3.330461 0
M  V30 33 H 8.104550 -0.980445 -2.661232 0
M  V30 34 H 8.468740 0.957546 -1.148814 0
M  V30 35 H 6.511679 1.910406 -0.022781 0
M  V30 36 H 4.256296 0.951044 -0.399338 0
M  V30 37 H 1.649259 -1.259842 -1.815941 0
M  V30 38 H 2.577804 -0.734418 -0.316647 0
M  V30 39 H 0.319744 2.708877 -2.334364 0
M  V30 40 H 1.162280 3.207452 -0.859900 0
M  V30 41 H -0.272507 -0.172961 0.204777 0
M  V30 42 H -1.538715 -1.671242 1.592031 0
M  V30 43 H -2.581794 -2.269294 3.637700 0
M  V30 44 H -3.438378 -2.929381 2.232889 0
M  V30 45 H -5.773956 -3.419296 2.274175 0
M  V30 46 H -7.674265 -4.289210 3.495792 0
M  V30 47 H -7.716128 -4.153954 5.930740 0
M  V30 48 H -5.760648 -3.101283 7.121276 0
M  V30 49 H -3.839760 -2.225205 5.837787 0
M  V30 50 H -4.369605 1.538489 2.153765 0
M  V30 51 H -3.046348 2.977801 0.753018 0
M  V30 END ATOM
M  V30 BEGIN BOND
M  V30 1 1 1 2
M  V30 2 2 2 3
M  V30 3 1 3 4
M  V30 4 2 4 5
M  V30 5 1 5 6
M  V30 6 2 6 7
M  V30 7 1 7 8
M  V30 8 1 8 9
M  V30 9 1 9 10
M  V30 10 2 10 11
M  V30 11 1 10 12
M  V30 12 1 12 13
M  V30 13 1 13 14
M  V30 14 2 14 15
M  V30 15 1 14 16
M  V30 16 2 16 17
M  V30 17 1 17 18
M  V30 18 2 18 19
M  V30 19 1 19 20
M  V30 20 1 20 21
M  V30 21 1 21 22
M  V30 22 2 22 23
M  V30 23 1 23 24
M  V30 24 2 24 25
M  V30 25 1 25 26
M  V30 26 2 26 27
M  V30 27 1 19 28
M  V30 28 2 28 29
M  V30 29 1 7 2
M  V30 30 1 29 16
M  V30 31 1 27 22
M  V30 32 1 1 30
M  V30 33 1 1 31
M  V30 34 1 1 32
M  V30 35 1 3 33
M  V30 36 1 4 34
M  V30 37 1 5 35
M  V30 38 1 6 36
M  V30 39 1 9 37
M  V30 40 1 9 38
M  V30 41 1 13 39
M  V30 42 1 13 40
M  V30 43 1 17 41
M  V30 44 1 18 42
M  V30 45 1 21 43
M  V30 46 1 21 44
M  V30 47 1 23 45
M  V30 48 1 24 46
M  V30 49 1 25 47
M  V30 50 1 26 48
M  V30 51 1 27 49
M  V30 52 1 28 50
M  V30 53 1 29 51
M  V30 END BOND
M  V30 END CTAB
M  END
>  <Dataset>  (114) 
ChEMBL_Kinases

>  <Ligand_Instance>  (114) 
nan

>  <PDB_ID>  (114) 
nan

>  <Standardized_SMILES>  (114) 
Cc1ccccc1OCC(=O)OCC(=O)c1ccc(OCc2ccccc2)cc1

>  <Name>  (114) 
nan

>  <Pocket>  (114) 
nan

>  <ATP_Site>  (114) 
nan

>  <Peripheral>  (114) 
nan

>  <Num_H_Atoms_ProtBoundConf>  (114) 
nan

>  <Num_Resolved_Atoms>  (114) 
nan

>  <Num_Not_Resolved_Atoms>  (114) 
nan

$$$$
CHEMBL1386431
     RDKit          3D

  0  0  0  0  0  0  0  0  0  0999 V3000
M  V30 BEGIN CTAB
M  V30 COUNTS 44 48 0 0 0
M  V30 BEGIN ATOM
M  V30 1 O -2.241374 -3.655283 -0.535758 0
M  V30 2 C -1.339168 -4.505498 -0.298008 0
M  V30 3 N -0.126753 -3.920243 0.126773 0
M  V30 4 C 0.139558 -2.530291 0.296939 0
M  V30 5 N 0.626889 -1.785164 -0.734358 0
M  V30 6 C 0.792123 -0.509464 -0.320213 0
M  V30 7 N 1.235603 0.630768 -0.913690 0
M  V30 8 C 1.307080 1.807768 -0.267817 0
M  V30 9 C 1.797719 2.969199 -0.999144 0
M  V30 10 C 2.160754 2.788156 -2.316989 0
M  V30 11 C 2.631381 3.858651 -3.051152 0
M  V30 12 C 2.747479 5.108331 -2.496564 0
M  V30 13 C 2.389361 5.307518 -1.181189 0
M  V30 14 C 1.917054 4.224058 -0.451230 0
M  V30 15 C 0.907891 1.833133 1.051597 0
M  V30 16 C 0.446483 0.684707 1.697366 0
M  V30 17 C 0.030302 0.747561 3.100160 0
M  V30 18 C -1.089509 0.206981 3.698873 0
M  V30 19 C -1.274307 0.398354 5.053268 0
M  V30 20 C -0.375385 1.111070 5.820143 0
M  V30 21 C 0.757665 1.661810 5.231224 0
M  V30 22 C 0.947919 1.471546 3.867066 0
M  V30 23 N 0.400314 -0.468117 0.987087 0
M  V30 24 N 0.004674 -1.688937 1.364521 0
M  V30 25 C -1.454957 -5.966333 -0.424188 0
M  V30 26 C -0.588045 -7.030886 -0.210814 0
M  V30 27 C -1.284797 -8.186285 -0.504837 0
M  V30 28 C -2.546797 -7.773120 -0.884712 0
M  V30 29 O -2.612493 -6.474488 -0.826670 0
M  V30 30 H 0.693036 -4.560122 0.350895 0
M  V30 31 H 2.111051 1.845111 -2.859004 0
M  V30 32 H 2.939855 3.793685 -4.104555 0
M  V30 33 H 3.121949 5.960562 -3.080390 0
M  V30 34 H 2.473594 6.275266 -0.733253 0
M  V30 35 H 1.641989 4.387988 0.567228 0
M  V30 36 H 0.956033 2.768073 1.592798 0
M  V30 37 H -1.719781 -0.325683 3.013700 0
M  V30 38 H -2.174753 -0.049813 5.474379 0
M  V30 39 H -0.534669 1.250834 6.874817 0
M  V30 40 H 1.442517 2.214619 5.859367 0
M  V30 41 H 1.855503 1.938135 3.509232 0
M  V30 42 H 0.416175 -6.816634 0.124545 0
M  V30 43 H -0.825470 -9.164333 -0.416996 0
M  V30 44 H -3.305812 -8.504009 -1.172860 0
M  V30 END ATOM
M  V30 BEGIN BOND
M  V30 1 2 1 2
M  V30 2 1 2 3
M  V30 3 1 3 4
M  V30 4 1 4 5
M  V30 5 2 5 6
M  V30 6 1 6 7
M  V30 7 2 7 8
M  V30 8 1 8 9
M  V30 9 2 9 10
M  V30 10 1 10 11
M  V30 11 2 11 12
M  V30 12 1 12 13
M  V30 13 2 13 14
M  V30 14 1 8 15
M  V30 15 2 15 16
M  V30 16 1 16 17
M  V30 17 2 17 18
M  V30 18 1 18 19
M  V30 19 2 19 20
M  V30 20 1 20 21
M  V30 21 2 21 22
M  V30 22 1 16 23
M  V30 23 1 23 24
M  V30 24 1 2 25
M  V30 25 2 25 26
M  V30 26 1 26 27
M  V30 27 2 27 28
M  V30 28 1 28 29
M  V30 29 2 24 4
M  V30 30 1 29 25
M  V30 31 1 23 6
M  V30 32 1 14 9
M  V30 33 1 22 17
M  V30 34 1 3 30
M  V30 35 1 10 31
M  V30 36 1 11 32
M  V30 37 1 12 33
M  V30 38 1 13 34
M  V30 39 1 14 35
M  V30 40 1 15 36
M  V30 41 1 18 37
M  V30 42 1 19 38
M  V30 43 1 20 39
M  V30 44 1 21 40
M  V30 45 1 22 41
M  V30 46 1 26 42
M  V30 47 1 27 43
M  V30 48 1 28 44
M  V30 END BOND
M  V30 END CTAB
M  END
>  <Dataset>  (115) 
ChEMBL_Kinases

>  <Ligand_Instance>  (115) 
nan

>  <PDB_ID>  (115) 
nan

>  <Standardized_SMILES>  (115) 
O=C(Nc1nc2nc(-c3ccccc3)cc(-c3ccccc3)n2n1)c1ccco1

>  <Name>  (115) 
nan

>  <Pocket>  (115) 
nan

>  <ATP_Site>  (115) 
nan

>  <Peripheral>  (115) 
nan

>  <Num_H_Atoms_ProtBoundConf>  (115) 
nan

>  <Num_Resolved_Atoms>  (115) 
nan

>  <Num_Not_Resolved_Atoms>  (115) 
nan

$$$$
CHEMBL1386396
     RDKit          3D

  0  0  0  0  0  0  0  0  0  0999 V3000
M  V30 BEGIN CTAB
M  V30 COUNTS 32 35 0 0 0
M  V30 BEGIN ATOM
M  V30 1 C -0.676654 -3.903612 4.602235 0
M  V30 2 C 0.136783 -2.790246 4.480327 0
M  V30 3 C 0.148889 -2.090191 3.300643 0
M  V30 4 C -0.600692 -2.406316 2.189688 0
M  V30 5 C -0.533004 -1.655800 1.045839 0
M  V30 6 C 0.322685 -0.484608 0.917642 0
M  V30 7 N 0.339838 0.207955 -0.237878 0
M  V30 8 C 1.166371 1.251360 -0.210285 0
M  V30 9 C 1.444747 2.220186 -1.264906 0
M  V30 10 C 0.841768 2.076485 -2.497621 0
M  V30 11 C 1.169047 3.035257 -3.413285 0
M  V30 12 N 2.015371 4.057313 -3.159122 0
M  V30 13 C 2.609872 4.200277 -1.946045 0
M  V30 14 C 2.310175 3.254077 -0.984788 0
M  V30 15 N 1.671898 1.186208 1.018548 0
M  V30 16 O 1.165760 0.186141 1.623927 0
M  V30 17 C -1.337718 -2.101812 0.036963 0
M  V30 18 C -2.153086 -3.203521 0.134507 0
M  V30 19 C -2.193574 -3.933080 1.302322 0
M  V30 20 C -1.397646 -3.518835 2.346542 0
M  V30 21 C -1.443795 -4.253335 3.510391 0
M  V30 22 H -0.776689 -4.536821 5.472500 0
M  V30 23 H 0.717912 -2.547270 5.345245 0
M  V30 24 H 0.806345 -1.252922 3.309987 0
M  V30 25 H 0.165057 1.257576 -2.697801 0
M  V30 26 H 0.725688 2.981180 -4.412485 0
M  V30 27 H 3.295808 5.020928 -1.726155 0
M  V30 28 H 2.805781 3.397585 -0.017300 0
M  V30 29 H -1.354171 -1.565897 -0.922944 0
M  V30 30 H -2.761201 -3.498353 -0.700662 0
M  V30 31 H -2.828516 -4.801829 1.396928 0
M  V30 32 H -2.105162 -5.132380 3.564418 0
M  V30 END ATOM
M  V30 BEGIN BOND
M  V30 1 2 1 2
M  V30 2 1 2 3
M  V30 3 2 3 4
M  V30 4 1 4 5
M  V30 5 1 5 6
M  V30 6 2 6 7
M  V30 7 1 7 8
M  V30 8 1 8 9
M  V30 9 2 9 10
M  V30 10 1 10 11
M  V30 11 2 11 12
M  V30 12 1 12 13
M  V30 13 2 13 14
M  V30 14 2 8 15
M  V30 15 1 15 16
M  V30 16 2 5 17
M  V30 17 1 17 18
M  V30 18 2 18 19
M  V30 19 1 19 20
M  V30 20 2 20 21
M  V30 21 1 21 1
M  V30 22 1 20 4
M  V30 23 1 16 6
M  V30 24 1 14 9
M  V30 25 1 1 22
M  V30 26 1 2 23
M  V30 27 1 3 24
M  V30 28 1 10 25
M  V30 29 1 11 26
M  V30 30 1 13 27
M  V30 31 1 14 28
M  V30 32 1 17 29
M  V30 33 1 18 30
M  V30 34 1 19 31
M  V30 35 1 21 32
M  V30 END BOND
M  V30 END CTAB
M  END
>  <Dataset>  (116) 
ChEMBL_Kinases

>  <Ligand_Instance>  (116) 
nan

>  <PDB_ID>  (116) 
nan

>  <Standardized_SMILES>  (116) 
c1ccc2c(-c3nc(-c4ccncc4)no3)cccc2c1

>  <Name>  (116) 
nan

>  <Pocket>  (116) 
nan

>  <ATP_Site>  (116) 
nan

>  <Peripheral>  (116) 
nan

>  <Num_H_Atoms_ProtBoundConf>  (116) 
nan

>  <Num_Resolved_Atoms>  (116) 
nan

>  <Num_Not_Resolved_Atoms>  (116) 
nan

$$$$
CHEMBL1386337
     RDKit          3D

  0  0  0  0  0  0  0  0  0  0999 V3000
M  V30 BEGIN CTAB
M  V30 COUNTS 46 50 0 0 0
M  V30 BEGIN ATOM
M  V30 1 C 4.644086 -1.557782 -2.836905 0
M  V30 2 C 4.618237 -1.209989 -1.382487 0
M  V30 3 N 5.723935 -1.252890 -0.617538 0
M  V30 4 C 5.710533 -0.941931 0.691177 0
M  V30 5 C 6.848081 -0.987229 1.473187 0
M  V30 6 C 6.779086 -0.654726 2.825722 0
M  V30 7 C 5.584182 -0.270457 3.433677 0
M  V30 8 C 4.478081 -0.241346 2.609875 0
M  V30 9 C 4.494539 -0.560797 1.267750 0
M  V30 10 C 3.357100 -0.515822 0.484420 0
M  V30 11 O 2.120625 -0.189136 0.812302 0
M  V30 12 C 1.341218 -0.280616 -0.243676 0
M  V30 13 C -0.091034 -0.008383 -0.314634 0
M  V30 14 O -0.760155 -0.126556 -1.389698 0
M  V30 15 N -0.847540 0.409465 0.811693 0
M  V30 16 C -2.255536 0.642416 0.594798 0
M  V30 17 C -2.902108 1.082843 1.911217 0
M  V30 18 C -2.881529 -0.074738 2.896137 0
M  V30 19 O -3.336256 -1.220674 2.191446 0
M  V30 20 C -4.581981 -1.128891 1.579419 0
M  V30 21 C -5.396145 -2.179644 1.228122 0
M  V30 22 C -6.620368 -1.974521 0.621617 0
M  V30 23 C -7.057907 -0.674394 0.351059 0
M  V30 24 C -6.252538 0.390892 0.697427 0
M  V30 25 C -5.023632 0.157268 1.307468 0
M  V30 26 O -4.282732 1.292563 1.619304 0
M  V30 27 C 2.082685 -0.686871 -1.333374 0
M  V30 28 C 3.377767 -0.835676 -0.855847 0
M  V30 29 H 4.394332 -2.648226 -2.948580 0
M  V30 30 H 5.636080 -1.415732 -3.278334 0
M  V30 31 H 3.842857 -1.025595 -3.371281 0
M  V30 32 H 7.799402 -1.278841 1.050012 0
M  V30 33 H 7.671379 -0.690445 3.438355 0
M  V30 34 H 5.550302 -0.016109 4.484516 0
M  V30 35 H 3.534246 0.052406 3.048597 0
M  V30 36 H -0.378128 0.535771 1.750164 0
M  V30 37 H -2.738448 -0.256818 0.194539 0
M  V30 38 H -2.353054 1.525782 -0.085842 0
M  V30 39 H -2.422339 1.984392 2.298929 0
M  V30 40 H -1.883700 -0.225053 3.341607 0
M  V30 41 H -3.634046 0.087335 3.696143 0
M  V30 42 H -5.009764 -3.167547 1.460023 0
M  V30 43 H -7.212807 -2.852306 0.370956 0
M  V30 44 H -8.019194 -0.564850 -0.122921 0
M  V30 45 H -6.597341 1.385825 0.485518 0
M  V30 46 H 1.837826 -0.878838 -2.358156 0
M  V30 END ATOM
M  V30 BEGIN BOND
M  V30 1 1 1 2
M  V30 2 2 2 3
M  V30 3 1 3 4
M  V30 4 2 4 5
M  V30 5 1 5 6
M  V30 6 2 6 7
M  V30 7 1 7 8
M  V30 8 2 8 9
M  V30 9 1 9 10
M  V30 10 1 10 11
M  V30 11 1 11 12
M  V30 12 1 12 13
M  V30 13 2 13 14
M  V30 14 1 13 15
M  V30 15 1 15 16
M  V30 16 1 16 17
M  V30 17 1 17 18
M  V30 18 1 18 19
M  V30 19 1 19 20
M  V30 20 2 20 21
M  V30 21 1 21 22
M  V30 22 2 22 23
M  V30 23 1 23 24
M  V30 24 2 24 25
M  V30 25 1 25 26
M  V30 26 2 12 27
M  V30 27 1 27 28
M  V30 28 1 28 2
M  V30 29 1 9 4
M  V30 30 2 28 10
M  V30 31 1 26 17
M  V30 32 1 25 20
M  V30 33 1 1 29
M  V30 34 1 1 30
M  V30 35 1 1 31
M  V30 36 1 5 32
M  V30 37 1 6 33
M  V30 38 1 7 34
M  V30 39 1 8 35
M  V30 40 1 15 36
M  V30 41 1 16 37
M  V30 42 1 16 38
M  V30 43 1 17 39
M  V30 44 1 18 40
M  V30 45 1 18 41
M  V30 46 1 21 42
M  V30 47 1 22 43
M  V30 48 1 23 44
M  V30 49 1 24 45
M  V30 50 1 27 46
M  V30 END BOND
M  V30 END CTAB
M  END
>  <Dataset>  (117) 
ChEMBL_Kinases

>  <Ligand_Instance>  (117) 
nan

>  <PDB_ID>  (117) 
nan

>  <Standardized_SMILES>  (117) 
Cc1nc2ccccc2c2oc(C(=O)NCC3COc4ccccc4O3)cc12

>  <Name>  (117) 
nan

>  <Pocket>  (117) 
nan

>  <ATP_Site>  (117) 
nan

>  <Peripheral>  (117) 
nan

>  <Num_H_Atoms_ProtBoundConf>  (117) 
nan

>  <Num_Resolved_Atoms>  (117) 
nan

>  <Num_Not_Resolved_Atoms>  (117) 
nan

$$$$
CHEMBL1386335
     RDKit          3D

  0  0  0  0  0  0  0  0  0  0999 V3000
M  V30 BEGIN CTAB
M  V30 COUNTS 74 75 0 0 0
M  V30 BEGIN ATOM
M  V30 1 C 4.629962 -1.227699 3.698601 0
M  V30 2 C 4.802720 0.202048 3.272977 0
M  V30 3 C 6.210495 0.364916 2.739575 0
M  V30 4 C 3.745620 0.776828 2.461653 0
M  V30 5 C 3.319238 0.343660 1.146126 0 CFG=2
M  V30 6 N 2.197577 1.265911 0.774973 0
M  V30 7 C 2.289282 2.147307 -0.332586 0
M  V30 8 O 3.332405 2.189888 -1.056333 0
M  V30 9 O 1.230193 2.995525 -0.658251 0
M  V30 10 C 1.308250 3.880943 -1.761192 0
M  V30 11 C 0.067034 4.695482 -1.932167 0
M  V30 12 C 2.491257 4.817547 -1.638779 0
M  V30 13 C 1.527166 3.038920 -2.999500 0
M  V30 14 C 2.834561 -0.980459 0.848731 0
M  V30 15 O 3.878732 -1.667095 1.033334 0
M  V30 16 N 1.596590 -1.610491 0.443031 0
M  V30 17 C 0.225818 -1.280971 0.126227 0
M  V30 18 C -0.627974 -2.290456 0.864880 0
M  V30 19 C -0.733052 -3.477578 -0.069580 0
M  V30 20 C -1.660742 -3.160238 -1.187103 0
M  V30 21 O -1.318105 -3.163387 -2.418595 0
M  V30 22 N -2.993259 -2.842734 -0.799391 0
M  V30 23 C -4.043609 -2.506234 -1.737114 0 CFG=1
M  V30 24 C -5.124246 -3.555694 -1.575075 0
M  V30 25 C -5.663878 -3.569052 -0.196462 0
M  V30 26 C -6.740232 -2.779831 0.152057 0
M  V30 27 C -7.266042 -2.768530 1.422967 0
M  V30 28 C -6.721396 -3.561082 2.402559 0
M  V30 29 C -5.639199 -4.373393 2.107545 0
M  V30 30 C -5.121971 -4.368604 0.811011 0
M  V30 31 C -4.623003 -1.166459 -1.463935 0
M  V30 32 O -4.377351 -0.278013 -0.583369 0
M  V30 33 O -5.643137 -0.742455 -2.306535 0
M  V30 34 C 0.673277 -3.637458 -0.637113 0
M  V30 35 C 1.713093 -3.070753 0.280231 0
M  V30 36 H 3.578789 -1.507531 3.669241 0
M  V30 37 H 4.888590 -1.349478 4.810841 0
M  V30 38 H 5.348754 -1.918612 3.223158 0
M  V30 39 H 4.832528 0.792954 4.247408 0
M  V30 40 H 6.446118 1.397024 2.484407 0
M  V30 41 H 6.894820 0.069927 3.570419 0
M  V30 42 H 6.456607 -0.385965 1.940183 0
M  V30 43 H 3.899345 1.914857 2.397264 0
M  V30 44 H 2.815736 0.786813 3.141607 0
M  V30 45 H 4.099334 0.694845 0.392885 0
M  V30 46 H 1.313825 1.306765 1.315578 0
M  V30 47 H -0.776326 4.370477 -1.272010 0
M  V30 48 H -0.322841 4.592894 -2.961316 0
M  V30 49 H 0.241480 5.788753 -1.787735 0
M  V30 50 H 2.694149 5.136205 -0.597151 0
M  V30 51 H 2.231046 5.743887 -2.191943 0
M  V30 52 H 3.395872 4.411110 -2.147846 0
M  V30 53 H 2.341216 3.457582 -3.634457 0
M  V30 54 H 0.603291 3.062943 -3.631671 0
M  V30 55 H 1.728270 1.979283 -2.752943 0
M  V30 56 H 0.146097 -1.459002 -0.988731 0
M  V30 57 H -0.084367 -0.260386 0.273533 0
M  V30 58 H -0.073990 -2.684237 1.765358 0
M  V30 59 H -1.568417 -1.911490 1.246562 0
M  V30 60 H -1.071823 -4.348126 0.508980 0
M  V30 61 H -3.295160 -2.832432 0.183468 0
M  V30 62 H -3.649696 -2.528140 -2.774258 0
M  V30 63 H -5.931454 -3.362256 -2.323948 0
M  V30 64 H -4.649282 -4.538253 -1.770327 0
M  V30 65 H -7.230043 -2.130850 -0.543563 0
M  V30 66 H -8.095027 -2.162150 1.695306 0
M  V30 67 H -7.046859 -3.636538 3.433501 0
M  V30 68 H -5.137136 -5.033156 2.804569 0
M  V30 69 H -4.264698 -4.999509 0.541856 0
M  V30 70 H -6.394493 -0.112780 -2.003676 0
M  V30 71 H 0.862198 -4.731130 -0.667054 0
M  V30 72 H 0.772498 -3.270011 -1.657820 0
M  V30 73 H 1.772824 -3.567896 1.249534 0
M  V30 74 H 2.688364 -3.231914 -0.231142 0
M  V30 END ATOM
M  V30 BEGIN BOND
M  V30 1 1 1 2
M  V30 2 1 2 3
M  V30 3 1 2 4
M  V30 4 1 4 5
M  V30 5 1 5 6
M  V30 6 1 6 7
M  V30 7 2 7 8
M  V30 8 1 7 9
M  V30 9 1 9 10
M  V30 10 1 10 11
M  V30 11 1 10 12
M  V30 12 1 10 13
M  V30 13 1 5 14
M  V30 14 2 14 15
M  V30 15 1 14 16
M  V30 16 1 16 17
M  V30 17 1 17 18
M  V30 18 1 18 19
M  V30 19 1 19 20
M  V30 20 2 20 21
M  V30 21 1 20 22
M  V30 22 1 22 23
M  V30 23 1 23 24
M  V30 24 1 24 25
M  V30 25 2 25 26
M  V30 26 1 26 27
M  V30 27 2 27 28
M  V30 28 1 28 29
M  V30 29 2 29 30
M  V30 30 1 23 31
M  V30 31 2 31 32
M  V30 32 1 31 33
M  V30 33 1 19 34
M  V30 34 1 34 35
M  V30 35 1 35 16
M  V30 36 1 30 25
M  V30 37 1 1 36
M  V30 38 1 1 37
M  V30 39 1 1 38
M  V30 40 1 2 39
M  V30 41 1 3 40
M  V30 42 1 3 41
M  V30 43 1 3 42
M  V30 44 1 4 43
M  V30 45 1 4 44
M  V30 46 1 5 45 CFG=3
M  V30 47 1 6 46
M  V30 48 1 11 47
M  V30 49 1 11 48
M  V30 50 1 11 49
M  V30 51 1 12 50
M  V30 52 1 12 51
M  V30 53 1 12 52
M  V30 54 1 13 53
M  V30 55 1 13 54
M  V30 56 1 13 55
M  V30 57 1 17 56
M  V30 58 1 17 57
M  V30 59 1 18 58
M  V30 60 1 18 59
M  V30 61 1 19 60
M  V30 62 1 22 61
M  V30 63 1 23 62 CFG=3
M  V30 64 1 24 63
M  V30 65 1 24 64
M  V30 66 1 26 65
M  V30 67 1 27 66
M  V30 68 1 28 67
M  V30 69 1 29 68
M  V30 70 1 30 69
M  V30 71 1 33 70
M  V30 72 1 34 71
M  V30 73 1 34 72
M  V30 74 1 35 73
M  V30 75 1 35 74
M  V30 END BOND
M  V30 END CTAB
M  END
>  <Dataset>  (118) 
ChEMBL_Kinases

>  <Ligand_Instance>  (118) 
nan

>  <PDB_ID>  (118) 
nan

>  <Standardized_SMILES>  (118) 
CC(C)C[C@H](NC(=O)OC(C)(C)C)C(=O)N1CCC(C(=O)N[C@@H](Cc2ccccc2)C(=O)O)CC1

>  <Name>  (118) 
nan

>  <Pocket>  (118) 
nan

>  <ATP_Site>  (118) 
nan

>  <Peripheral>  (118) 
nan

>  <Num_H_Atoms_ProtBoundConf>  (118) 
nan

>  <Num_Resolved_Atoms>  (118) 
nan

>  <Num_Not_Resolved_Atoms>  (118) 
nan

$$$$
CHEMBL1386323
     RDKit          3D

  0  0  0  0  0  0  0  0  0  0999 V3000
M  V30 BEGIN CTAB
M  V30 COUNTS 50 54 0 0 0
M  V30 BEGIN ATOM
M  V30 1 O 1.072686 0.055238 0.226685 0
M  V30 2 C 1.245009 -0.980365 0.918558 0
M  V30 3 N 2.105989 -1.086776 2.029506 0
M  V30 4 C 2.775064 0.195722 2.260835 0
M  V30 5 N 2.832737 1.279818 1.829870 0
M  V30 6 C 3.589204 2.249493 2.313985 0
M  V30 7 C 3.424613 3.556576 1.505608 0
M  V30 8 N 2.918597 4.073868 0.641612 0
M  V30 9 C 3.034468 5.310739 0.211820 0
M  V30 10 C 2.356438 5.864730 -0.881453 0
M  V30 11 C 2.609899 7.184981 -1.180057 0
M  V30 12 C 3.482355 8.031685 -0.495509 0
M  V30 13 C 4.137341 7.463266 0.576011 0
M  V30 14 C 3.874067 6.121001 0.872704 0
M  V30 15 S 4.481756 4.997032 2.143101 0
M  V30 16 C 4.369452 2.073484 3.358071 0
M  V30 17 S 3.981321 0.264060 3.717284 0
M  V30 18 C 0.477728 -2.154706 0.516025 0
M  V30 19 C -0.372928 -2.062181 -0.575252 0
M  V30 20 C -1.144768 -3.123227 -1.035910 0
M  V30 21 C -1.076258 -4.336362 -0.390459 0
M  V30 22 S -2.052891 -5.664473 -0.979984 0
M  V30 23 O -2.255343 -5.453031 -2.461089 0
M  V30 24 O -1.343540 -6.973944 -0.829487 0
M  V30 25 N -3.594420 -5.700055 -0.228926 0
M  V30 26 C -3.560378 -5.882622 1.174169 0
M  V30 27 C -3.863077 -4.655410 1.982200 0
M  V30 28 O -5.053894 -4.080178 1.497703 0
M  V30 29 C -4.698129 -3.535754 0.247074 0
M  V30 30 C -4.482059 -4.683258 -0.703030 0
M  V30 31 C -0.238793 -4.455426 0.696826 0
M  V30 32 C 0.516878 -3.387169 1.134225 0
M  V30 33 H 2.273006 -1.904569 2.614025 0
M  V30 34 H 1.642187 5.391034 -1.543525 0
M  V30 35 H 2.112360 7.679033 -2.022817 0
M  V30 36 H 3.676625 9.062373 -0.733070 0
M  V30 37 H 4.846022 7.970813 1.215560 0
M  V30 38 H 5.028343 2.711114 3.875594 0
M  V30 39 H -0.489809 -1.143680 -1.144054 0
M  V30 40 H -1.801940 -3.006805 -1.899776 0
M  V30 41 H -2.550633 -6.235763 1.462400 0
M  V30 42 H -4.274457 -6.678134 1.501598 0
M  V30 43 H -3.995208 -4.976402 3.037948 0
M  V30 44 H -3.087250 -3.870623 1.879812 0
M  V30 45 H -5.598989 -2.998601 -0.106369 0
M  V30 46 H -3.845076 -2.854897 0.338354 0
M  V30 47 H -4.093592 -4.254262 -1.648536 0
M  V30 48 H -5.468592 -5.129651 -0.939298 0
M  V30 49 H -0.188779 -5.414260 1.201866 0
M  V30 50 H 1.168178 -3.494910 1.986837 0
M  V30 END ATOM
M  V30 BEGIN BOND
M  V30 1 2 1 2
M  V30 2 1 2 3
M  V30 3 1 3 4
M  V30 4 2 4 5
M  V30 5 1 5 6
M  V30 6 1 6 7
M  V30 7 2 7 8
M  V30 8 1 8 9
M  V30 9 2 9 10
M  V30 10 1 10 11
M  V30 11 2 11 12
M  V30 12 1 12 13
M  V30 13 2 13 14
M  V30 14 1 14 15
M  V30 15 2 6 16
M  V30 16 1 16 17
M  V30 17 1 2 18
M  V30 18 2 18 19
M  V30 19 1 19 20
M  V30 20 2 20 21
M  V30 21 1 21 22
M  V30 22 2 22 23
M  V30 23 2 22 24
M  V30 24 1 22 25
M  V30 25 1 25 26
M  V30 26 1 26 27
M  V30 27 1 27 28
M  V30 28 1 28 29
M  V30 29 1 29 30
M  V30 30 1 21 31
M  V30 31 2 31 32
M  V30 32 1 17 4
M  V30 33 1 32 18
M  V30 34 1 15 7
M  V30 35 1 30 25
M  V30 36 1 14 9
M  V30 37 1 3 33
M  V30 38 1 10 34
M  V30 39 1 11 35
M  V30 40 1 12 36
M  V30 41 1 13 37
M  V30 42 1 16 38
M  V30 43 1 19 39
M  V30 44 1 20 40
M  V30 45 1 26 41
M  V30 46 1 26 42
M  V30 47 1 27 43
M  V30 48 1 27 44
M  V30 49 1 29 45
M  V30 50 1 29 46
M  V30 51 1 30 47
M  V30 52 1 30 48
M  V30 53 1 31 49
M  V30 54 1 32 50
M  V30 END BOND
M  V30 END CTAB
M  END
>  <Dataset>  (119) 
ChEMBL_Kinases

>  <Ligand_Instance>  (119) 
nan

>  <PDB_ID>  (119) 
nan

>  <Standardized_SMILES>  (119) 
O=C(Nc1nc(-c2nc3ccccc3s2)cs1)c1ccc(S(=O)(=O)N2CCOCC2)cc1

>  <Name>  (119) 
nan

>  <Pocket>  (119) 
nan

>  <ATP_Site>  (119) 
nan

>  <Peripheral>  (119) 
nan

>  <Num_H_Atoms_ProtBoundConf>  (119) 
nan

>  <Num_Resolved_Atoms>  (119) 
nan

>  <Num_Not_Resolved_Atoms>  (119) 
nan

$$$$
CHEMBL1386265
     RDKit          3D

  0  0  0  0  0  0  0  0  0  0999 V3000
M  V30 BEGIN CTAB
M  V30 COUNTS 36 38 0 0 0
M  V30 BEGIN ATOM
M  V30 1 O 1.509840 -2.265781 -0.789908 0
M  V30 2 C 1.851632 -1.626080 0.262446 0
M  V30 3 N 0.850706 -1.520725 1.252716 0
M  V30 4 C -0.441426 -2.091901 1.075648 0
M  V30 5 C -0.719958 -3.365039 1.465066 0
M  V30 6 C -1.993903 -3.855630 1.263502 0
M  V30 7 C -3.008734 -3.121578 0.684699 0
M  V30 8 C -2.680357 -1.828512 0.302899 0
M  V30 9 C -1.400804 -1.291988 0.489079 0
M  V30 10 N -1.207881 0.058671 0.045193 0
M  V30 11 C -0.357412 0.746928 -0.909249 0
M  V30 12 C 0.404249 1.802374 -0.128970 0
M  V30 13 O -0.461440 2.597211 0.581100 0
M  V30 14 C -1.798179 2.346276 0.391514 0
M  V30 15 C -2.126520 0.918681 0.770825 0
M  V30 16 C 3.183812 -1.052415 0.413607 0
M  V30 17 C 3.686330 -0.333703 1.503827 0
M  V30 18 C 5.000099 -0.016409 1.141875 0
M  V30 19 C 5.210158 -0.553757 -0.125603 0
M  V30 20 Br 6.876096 -0.378260 -1.051166 0
M  V30 21 O 4.121757 -1.142910 -0.496880 0
M  V30 22 H 1.054835 -1.007934 2.150387 0
M  V30 23 H 0.029062 -3.990284 1.923278 0
M  V30 24 H -2.291196 -4.873702 1.552437 0
M  V30 25 H -4.013566 -3.488436 0.518244 0
M  V30 26 H -3.477248 -1.244815 -0.154302 0
M  V30 27 H -1.058495 1.217722 -1.641991 0
M  V30 28 H 0.297807 0.101097 -1.489670 0
M  V30 29 H 1.027531 1.247461 0.614499 0
M  V30 30 H 1.098542 2.383841 -0.767505 0
M  V30 31 H -2.177732 2.580008 -0.616500 0
M  V30 32 H -2.348331 2.998175 1.111021 0
M  V30 33 H -2.056415 0.765636 1.863759 0
M  V30 34 H -3.168383 0.719963 0.407442 0
M  V30 35 H 3.123353 -0.102588 2.414019 0
M  V30 36 H 5.675838 0.541534 1.767646 0
M  V30 END ATOM
M  V30 BEGIN BOND
M  V30 1 2 1 2
M  V30 2 1 2 3
M  V30 3 1 3 4
M  V30 4 2 4 5
M  V30 5 1 5 6
M  V30 6 2 6 7
M  V30 7 1 7 8
M  V30 8 2 8 9
M  V30 9 1 9 10
M  V30 10 1 10 11
M  V30 11 1 11 12
M  V30 12 1 12 13
M  V30 13 1 13 14
M  V30 14 1 14 15
M  V30 15 1 2 16
M  V30 16 2 16 17
M  V30 17 1 17 18
M  V30 18 2 18 19
M  V30 19 1 19 20
M  V30 20 1 19 21
M  V30 21 1 9 4
M  V30 22 1 15 10
M  V30 23 1 21 16
M  V30 24 1 3 22
M  V30 25 1 5 23
M  V30 26 1 6 24
M  V30 27 1 7 25
M  V30 28 1 8 26
M  V30 29 1 11 27
M  V30 30 1 11 28
M  V30 31 1 12 29
M  V30 32 1 12 30
M  V30 33 1 14 31
M  V30 34 1 14 32
M  V30 35 1 15 33
M  V30 36 1 15 34
M  V30 37 1 17 35
M  V30 38 1 18 36
M  V30 END BOND
M  V30 END CTAB
M  END
>  <Dataset>  (120) 
ChEMBL_Kinases

>  <Ligand_Instance>  (120) 
nan

>  <PDB_ID>  (120) 
nan

>  <Standardized_SMILES>  (120) 
O=C(Nc1ccccc1N1CCOCC1)c1ccc(Br)o1

>  <Name>  (120) 
nan

>  <Pocket>  (120) 
nan

>  <ATP_Site>  (120) 
nan

>  <Peripheral>  (120) 
nan

>  <Num_H_Atoms_ProtBoundConf>  (120) 
nan

>  <Num_Resolved_Atoms>  (120) 
nan

>  <Num_Not_Resolved_Atoms>  (120) 
nan

$$$$
CHEMBL1386232
     RDKit          3D

  0  0  0  0  0  0  0  0  0  0999 V3000
M  V30 BEGIN CTAB
M  V30 COUNTS 32 35 0 0 0
M  V30 BEGIN ATOM
M  V30 1 N -1.924971 -3.935372 2.709220 0
M  V30 2 C -1.028832 -3.449783 2.106546 0
M  V30 3 C 0.093768 -2.870306 1.363799 0
M  V30 4 C 1.201894 -3.591104 1.378916 0
M  V30 5 N 1.270666 -4.824527 2.071316 0
M  V30 6 O 2.211295 -2.979887 0.651828 0
M  V30 7 C 1.971237 -1.764866 0.027121 0
M  V30 8 N 2.970799 -1.190809 -0.685057 0
M  V30 9 N 2.449894 -0.070896 -1.159027 0
M  V30 10 C 1.174975 0.052721 -0.760169 0
M  V30 11 C 0.165626 1.089421 -1.051497 0
M  V30 12 C 0.649063 2.202992 -1.817292 0
M  V30 13 C -0.144735 3.230753 -2.162492 0
M  V30 14 C -1.541008 3.051411 -1.654776 0
M  V30 15 S -1.386216 1.382121 -0.763307 0
M  V30 16 C 0.784943 -1.011629 0.021282 0
M  V30 17 C -0.325192 -1.544310 0.781941 0
M  V30 18 C -0.880924 -0.669306 1.845755 0
M  V30 19 C -1.934938 0.120961 2.340062 0
M  V30 20 C -1.576948 0.659416 3.559581 0
M  V30 21 O -0.362797 0.240858 3.835860 0
M  V30 22 C 0.080123 -0.532477 2.869516 0
M  V30 23 H 0.560605 -5.450530 1.609415 0
M  V30 24 H 1.966837 -4.893149 2.865708 0
M  V30 25 H 3.955814 -1.408433 -0.920361 0
M  V30 26 H 1.563056 2.550312 -2.278696 0
M  V30 27 H -0.429990 4.157462 -2.599219 0
M  V30 28 H -2.679095 3.440725 -1.541388 0
M  V30 29 H -1.157284 -1.797768 0.091589 0
M  V30 30 H -2.723406 0.046943 1.566225 0
M  V30 31 H -2.373966 1.271987 3.959080 0
M  V30 32 H 1.097594 -0.857226 3.145894 0
M  V30 END ATOM
M  V30 BEGIN BOND
M  V30 1 3 1 2
M  V30 2 1 2 3
M  V30 3 2 3 4
M  V30 4 1 4 5
M  V30 5 1 4 6
M  V30 6 1 6 7
M  V30 7 1 7 8
M  V30 8 1 8 9
M  V30 9 2 9 10
M  V30 10 1 10 11
M  V30 11 2 11 12
M  V30 12 1 12 13
M  V30 13 2 13 14
M  V30 14 1 14 15
M  V30 15 1 10 16
M  V30 16 1 16 17
M  V30 17 1 17 18
M  V30 18 1 18 19
M  V30 19 2 19 20
M  V30 20 1 20 21
M  V30 21 1 21 22
M  V30 22 1 17 3
M  V30 23 2 22 18
M  V30 24 2 16 7
M  V30 25 1 15 11
M  V30 26 1 5 23
M  V30 27 1 5 24
M  V30 28 1 8 25
M  V30 29 1 12 26
M  V30 30 1 13 27
M  V30 31 1 14 28
M  V30 32 1 17 29
M  V30 33 1 19 30
M  V30 34 1 20 31
M  V30 35 1 22 32
M  V30 END BOND
M  V30 END CTAB
M  END
>  <Dataset>  (121) 
ChEMBL_Kinases

>  <Ligand_Instance>  (121) 
nan

>  <PDB_ID>  (121) 
nan

>  <Standardized_SMILES>  (121) 
N#CC1=C(N)Oc2[nH]nc(-c3cccs3)c2C1c1ccoc1

>  <Name>  (121) 
nan

>  <Pocket>  (121) 
nan

>  <ATP_Site>  (121) 
nan

>  <Peripheral>  (121) 
nan

>  <Num_H_Atoms_ProtBoundConf>  (121) 
nan

>  <Num_Resolved_Atoms>  (121) 
nan

>  <Num_Not_Resolved_Atoms>  (121) 
nan

$$$$
CHEMBL1386201
     RDKit          3D

  0  0  0  0  0  0  0  0  0  0999 V3000
M  V30 BEGIN CTAB
M  V30 COUNTS 39 41 0 0 0
M  V30 BEGIN ATOM
M  V30 1 C 2.305699 -7.566575 2.194790 0
M  V30 2 C 1.756649 -6.309346 1.634951 0
M  V30 3 C 0.694256 -6.171725 0.766719 0
M  V30 4 C 0.223991 -4.975058 0.275936 0
M  V30 5 C 0.828923 -3.792968 0.652171 0
M  V30 6 N 0.535272 -2.557460 0.299952 0
M  V30 7 C 1.088917 -1.563138 0.652494 0
M  V30 8 N 0.949645 -0.141163 0.407273 0
M  V30 9 C -0.104124 0.122315 -0.465019 0
M  V30 10 O -0.848865 -0.776216 -0.980285 0
M  V30 11 C -0.398703 1.544592 -0.834845 0
M  V30 12 N 0.432781 2.513752 -0.253860 0
M  V30 13 C 1.803457 2.539979 -0.602896 0
M  V30 14 S -0.014912 3.192626 1.221550 0
M  V30 15 O 1.087419 4.161553 1.631111 0
M  V30 16 O -0.048970 2.175315 2.337609 0
M  V30 17 C -1.479088 4.034395 1.205395 0
M  V30 18 C -2.696750 4.002412 1.804472 0
M  V30 19 C -3.688670 4.888848 1.529112 0
M  V30 20 C -3.396593 5.885026 0.558454 0
M  V30 21 Br -4.712687 7.248350 0.036537 0
M  V30 22 S -1.621598 5.467002 0.073886 0
M  V30 23 S 2.431207 -2.174645 1.790474 0
M  V30 24 C 1.935816 -3.977374 1.560613 0
M  V30 25 C 2.419351 -5.181872 2.062817 0
M  V30 26 H 1.868422 -7.794858 3.190274 0
M  V30 27 H 3.405490 -7.557033 2.263623 0
M  V30 28 H 2.017729 -8.391824 1.483121 0
M  V30 29 H 0.215440 -7.119988 0.470066 0
M  V30 30 H -0.610785 -5.029854 -0.391008 0
M  V30 31 H 1.577023 0.539453 0.847586 0
M  V30 32 H -1.450162 1.819232 -0.653685 0
M  V30 33 H -0.276434 1.618964 -1.950556 0
M  V30 34 H 2.034858 1.645774 -1.231950 0
M  V30 35 H 1.935563 3.407615 -1.314333 0
M  V30 36 H 2.518078 2.654243 0.214040 0
M  V30 37 H -2.746243 3.187707 2.509301 0
M  V30 38 H -4.645252 4.836225 2.022759 0
M  V30 39 H 3.260810 -5.045087 2.727463 0
M  V30 END ATOM
M  V30 BEGIN BOND
M  V30 1 1 1 2
M  V30 2 2 2 3
M  V30 3 1 3 4
M  V30 4 2 4 5
M  V30 5 1 5 6
M  V30 6 2 6 7
M  V30 7 1 7 8
M  V30 8 1 8 9
M  V30 9 2 9 10
M  V30 10 1 9 11
M  V30 11 1 11 12
M  V30 12 1 12 13
M  V30 13 1 12 14
M  V30 14 2 14 15
M  V30 15 2 14 16
M  V30 16 1 14 17
M  V30 17 2 17 18
M  V30 18 1 18 19
M  V30 19 2 19 20
M  V30 20 1 20 21
M  V30 21 1 20 22
M  V30 22 1 7 23
M  V30 23 1 23 24
M  V30 24 2 24 25
M  V30 25 1 25 2
M  V30 26 1 24 5
M  V30 27 1 22 17
M  V30 28 1 1 26
M  V30 29 1 1 27
M  V30 30 1 1 28
M  V30 31 1 3 29
M  V30 32 1 4 30
M  V30 33 1 8 31
M  V30 34 1 11 32
M  V30 35 1 11 33
M  V30 36 1 13 34
M  V30 37 1 13 35
M  V30 38 1 13 36
M  V30 39 1 18 37
M  V30 40 1 19 38
M  V30 41 1 25 39
M  V30 END BOND
M  V30 END CTAB
M  END
>  <Dataset>  (122) 
ChEMBL_Kinases

>  <Ligand_Instance>  (122) 
nan

>  <PDB_ID>  (122) 
nan

>  <Standardized_SMILES>  (122) 
Cc1ccc2nc(NC(=O)CN(C)S(=O)(=O)c3ccc(Br)s3)sc2c1

>  <Name>  (122) 
nan

>  <Pocket>  (122) 
nan

>  <ATP_Site>  (122) 
nan

>  <Peripheral>  (122) 
nan

>  <Num_H_Atoms_ProtBoundConf>  (122) 
nan

>  <Num_Resolved_Atoms>  (122) 
nan

>  <Num_Not_Resolved_Atoms>  (122) 
nan

$$$$
CHEMBL1386080
     RDKit          3D

  0  0  0  0  0  0  0  0  0  0999 V3000
M  V30 BEGIN CTAB
M  V30 COUNTS 44 47 0 0 0
M  V30 BEGIN ATOM
M  V30 1 C -1.707076 -5.850312 2.649891 0
M  V30 2 O -0.490915 -5.923417 1.930046 0
M  V30 3 C 0.148084 -4.781379 1.520207 0
M  V30 4 C -0.410933 -3.553944 1.819338 0
M  V30 5 C 0.224873 -2.395925 1.411783 0
M  V30 6 C 1.418689 -2.415467 0.703954 0
M  V30 7 C 2.090333 -1.186538 0.264892 0
M  V30 8 N 3.376073 -1.200741 -0.186867 0
M  V30 9 N 3.709626 0.051958 -0.518558 0
M  V30 10 C 2.531825 0.791348 -0.228417 0
M  V30 11 S 1.878593 2.468356 -0.276621 0
M  V30 12 C 0.211608 1.869198 0.415877 0
M  V30 13 C -1.096510 2.490635 0.775938 0
M  V30 14 C -1.734251 3.232939 -0.371484 0
M  V30 15 C -0.797059 4.220258 -0.957771 0
M  V30 16 C -0.190371 5.176103 0.010061 0
M  V30 17 C 0.027035 4.656627 1.389165 0
M  V30 18 C -0.802964 3.510104 1.826832 0
M  V30 19 N 0.502591 0.776143 0.495287 0
M  V30 20 N 1.481326 0.010726 0.276113 0
M  V30 21 C 1.911364 -3.693086 0.444160 0
M  V30 22 C 1.330734 -4.874542 0.819500 0
M  V30 23 O 1.928123 -6.060819 0.495736 0
M  V30 24 C 3.130730 -6.171794 -0.214378 0
M  V30 25 H -1.537589 -5.544370 3.718253 0
M  V30 26 H -2.413732 -5.129691 2.223633 0
M  V30 27 H -2.203496 -6.854813 2.716161 0
M  V30 28 H -1.330425 -3.420503 2.362966 0
M  V30 29 H -0.206958 -1.431349 1.639941 0
M  V30 30 H -1.795545 1.744057 1.213137 0
M  V30 31 H -2.586837 3.806518 0.086567 0
M  V30 32 H -2.089203 2.562255 -1.164141 0
M  V30 33 H -0.000820 3.701335 -1.550398 0
M  V30 34 H -1.369209 4.798943 -1.741097 0
M  V30 35 H 0.816645 5.447420 -0.400662 0
M  V30 36 H -0.773685 6.115836 0.013645 0
M  V30 37 H 1.099678 4.332751 1.530884 0
M  V30 38 H -0.113451 5.497506 2.103356 0
M  V30 39 H -0.294948 2.988993 2.682828 0
M  V30 40 H -1.776111 3.875998 2.253072 0
M  V30 41 H 2.850262 -3.682712 -0.112610 0
M  V30 42 H 3.237139 -7.197891 -0.638018 0
M  V30 43 H 3.233453 -5.440699 -1.051105 0
M  V30 44 H 3.981189 -5.986833 0.496489 0
M  V30 END ATOM
M  V30 BEGIN BOND
M  V30 1 1 1 2
M  V30 2 1 2 3
M  V30 3 2 3 4
M  V30 4 1 4 5
M  V30 5 2 5 6
M  V30 6 1 6 7
M  V30 7 2 7 8
M  V30 8 1 8 9
M  V30 9 2 9 10
M  V30 10 1 10 11
M  V30 11 1 11 12
M  V30 12 1 12 13
M  V30 13 1 13 14
M  V30 14 1 14 15
M  V30 15 1 15 16
M  V30 16 1 16 17
M  V30 17 1 17 18
M  V30 18 2 12 19
M  V30 19 1 19 20
M  V30 20 1 6 21
M  V30 21 2 21 22
M  V30 22 1 22 23
M  V30 23 1 23 24
M  V30 24 1 22 3
M  V30 25 1 20 7
M  V30 26 1 20 10
M  V30 27 1 18 13
M  V30 28 1 1 25
M  V30 29 1 1 26
M  V30 30 1 1 27
M  V30 31 1 4 28
M  V30 32 1 5 29
M  V30 33 1 13 30
M  V30 34 1 14 31
M  V30 35 1 14 32
M  V30 36 1 15 33
M  V30 37 1 15 34
M  V30 38 1 16 35
M  V30 39 1 16 36
M  V30 40 1 17 37
M  V30 41 1 17 38
M  V30 42 1 18 39
M  V30 43 1 18 40
M  V30 44 1 21 41
M  V30 45 1 24 42
M  V30 46 1 24 43
M  V30 47 1 24 44
M  V30 END BOND
M  V30 END CTAB
M  END
>  <Dataset>  (123) 
ChEMBL_Kinases

>  <Ligand_Instance>  (123) 
nan

>  <PDB_ID>  (123) 
nan

>  <Standardized_SMILES>  (123) 
COc1ccc(-c2nnc3sc(C4CCCCC4)nn23)cc1OC

>  <Name>  (123) 
nan

>  <Pocket>  (123) 
nan

>  <ATP_Site>  (123) 
nan

>  <Peripheral>  (123) 
nan

>  <Num_H_Atoms_ProtBoundConf>  (123) 
nan

>  <Num_Resolved_Atoms>  (123) 
nan

>  <Num_Not_Resolved_Atoms>  (123) 
nan

$$$$
CHEMBL1385827
     RDKit          3D

  0  0  0  0  0  0  0  0  0  0999 V3000
M  V30 BEGIN CTAB
M  V30 COUNTS 23 23 0 0 0
M  V30 BEGIN ATOM
M  V30 1 C -2.050123 -2.117308 0.892588 0
M  V30 2 C -0.670048 -1.617623 1.035590 0
M  V30 3 O -0.221486 -1.795127 2.229769 0
M  V30 4 N 0.326584 -0.974128 0.204987 0
M  V30 5 C 1.467039 -0.743184 1.007234 0
M  V30 6 C 1.977005 0.472984 1.199327 0
M  V30 7 C 1.217324 1.481068 0.489386 0
M  V30 8 C 0.881442 2.680292 0.998260 0
M  V30 9 C 0.193949 3.665466 0.392443 0
M  V30 10 C -0.143758 3.231803 -0.934849 0
M  V30 11 Br -1.206392 4.370078 -2.305194 0
M  V30 12 S 0.516853 1.574462 -1.150394 0
M  V30 13 C 2.175363 -1.828922 1.728512 0
M  V30 14 O 3.185506 -1.632726 2.430572 0
M  V30 15 O 1.986850 -3.176148 1.843247 0
M  V30 16 H -2.739512 -1.585572 1.594802 0
M  V30 17 H -2.426376 -1.952335 -0.131962 0
M  V30 18 H -2.119158 -3.220483 1.074179 0
M  V30 19 H -0.086948 -0.870772 -0.733960 0
M  V30 20 H 2.833017 0.776661 1.785004 0
M  V30 21 H 1.144539 3.000843 2.022228 0
M  V30 22 H -0.162889 4.653286 0.607171 0
M  V30 23 H 2.435864 -3.915772 1.330173 0
M  V30 END ATOM
M  V30 BEGIN BOND
M  V30 1 1 1 2
M  V30 2 2 2 3
M  V30 3 1 2 4
M  V30 4 1 4 5
M  V30 5 2 5 6
M  V30 6 1 6 7
M  V30 7 2 7 8
M  V30 8 1 8 9
M  V30 9 2 9 10
M  V30 10 1 10 11
M  V30 11 1 10 12
M  V30 12 1 5 13
M  V30 13 2 13 14
M  V30 14 1 13 15
M  V30 15 1 12 7
M  V30 16 1 1 16
M  V30 17 1 1 17
M  V30 18 1 1 18
M  V30 19 1 4 19
M  V30 20 1 6 20
M  V30 21 1 8 21
M  V30 22 1 9 22
M  V30 23 1 15 23
M  V30 END BOND
M  V30 END CTAB
M  END
>  <Dataset>  (124) 
ChEMBL_Kinases

>  <Ligand_Instance>  (124) 
nan

>  <PDB_ID>  (124) 
nan

>  <Standardized_SMILES>  (124) 
CC(=O)N/C(=C\c1ccc(Br)s1)C(=O)O

>  <Name>  (124) 
nan

>  <Pocket>  (124) 
nan

>  <ATP_Site>  (124) 
nan

>  <Peripheral>  (124) 
nan

>  <Num_H_Atoms_ProtBoundConf>  (124) 
nan

>  <Num_Resolved_Atoms>  (124) 
nan

>  <Num_Not_Resolved_Atoms>  (124) 
nan

$$$$
CHEMBL1389963
     RDKit          3D

  0  0  0  0  0  0  0  0  0  0999 V3000
M  V30 BEGIN CTAB
M  V30 COUNTS 54 57 0 0 0
M  V30 BEGIN ATOM
M  V30 1 C 3.727160 -2.022531 1.853267 0
M  V30 2 C 3.319801 -1.171819 0.696427 0
M  V30 3 O 2.719304 0.014586 1.083957 0
M  V30 4 C 3.339450 0.979024 1.844096 0
M  V30 5 C 4.639094 0.835820 2.281475 0
M  V30 6 C 5.301963 1.781976 3.047979 0
M  V30 7 C 4.591466 2.938909 3.383711 0
M  V30 8 C 3.304718 3.048981 2.933510 0
M  V30 9 C 2.638785 2.116972 2.173454 0
M  V30 10 N 1.307118 2.236157 1.710309 0
M  V30 11 C 0.360893 3.273101 1.888597 0
M  V30 12 O 0.691190 4.282179 2.556875 0
M  V30 13 C -1.004533 3.311661 1.369150 0
M  V30 14 N -1.271314 2.087240 0.611255 0
M  V30 15 C -1.777933 1.020823 1.256549 0
M  V30 16 N -2.038190 -0.136472 0.578751 0
M  V30 17 C -1.776038 -0.184666 -0.748809 0
M  V30 18 C -1.255429 0.908451 -1.416478 0
M  V30 19 C -1.079412 0.607059 -2.753373 0
M  V30 20 N -1.498461 -0.674255 -2.880761 0
M  V30 21 N -1.905611 -1.135340 -1.706445 0
M  V30 22 C -2.419097 -2.429198 -1.405121 0
M  V30 23 C -1.466757 -3.423098 -1.572744 0
M  V30 24 C -1.754234 -4.770531 -1.332214 0
M  V30 25 C -3.027488 -5.091094 -0.917955 0
M  V30 26 C -3.366478 -6.505773 -0.654403 0
M  V30 27 C -3.983334 -4.106040 -0.748274 0
M  V30 28 C -5.358747 -4.400078 -0.306803 0
M  V30 29 C -3.687566 -2.779683 -0.988831 0
M  V30 30 C -0.992111 2.082699 -0.725174 0
M  V30 31 O -0.517507 3.114874 -1.274793 0
M  V30 32 H 3.542048 -1.496401 2.823689 0
M  V30 33 H 3.131906 -2.971886 1.808299 0
M  V30 34 H 4.785036 -2.341398 1.828922 0
M  V30 35 H 4.261898 -0.922810 0.124447 0
M  V30 36 H 2.704557 -1.711394 -0.052988 0
M  V30 37 H 5.242906 -0.018705 2.058412 0
M  V30 38 H 6.323993 1.662285 3.388362 0
M  V30 39 H 5.086231 3.691572 3.980593 0
M  V30 40 H 2.823769 3.962569 3.230198 0
M  V30 41 H 0.878852 1.477144 1.136528 0
M  V30 42 H -1.075201 4.203087 0.687055 0
M  V30 43 H -1.759527 3.478464 2.166689 0
M  V30 44 H -1.975124 1.102152 2.329789 0
M  V30 45 H -0.686449 1.296470 -3.482049 0
M  V30 46 H -0.430765 -3.259342 -1.898622 0
M  V30 47 H -1.031592 -5.564451 -1.454829 0
M  V30 48 H -3.167576 -6.753326 0.419908 0
M  V30 49 H -4.386968 -6.791253 -0.973857 0
M  V30 50 H -2.673978 -7.147515 -1.239263 0
M  V30 51 H -5.580536 -3.705676 0.543474 0
M  V30 52 H -5.425541 -5.412752 0.121183 0
M  V30 53 H -6.116440 -4.184517 -1.080846 0
M  V30 54 H -4.341241 -1.925708 -0.893582 0
M  V30 END ATOM
M  V30 BEGIN BOND
M  V30 1 1 1 2
M  V30 2 1 2 3
M  V30 3 1 3 4
M  V30 4 2 4 5
M  V30 5 1 5 6
M  V30 6 2 6 7
M  V30 7 1 7 8
M  V30 8 2 8 9
M  V30 9 1 9 10
M  V30 10 1 10 11
M  V30 11 2 11 12
M  V30 12 1 11 13
M  V30 13 1 13 14
M  V30 14 1 14 15
M  V30 15 2 15 16
M  V30 16 1 16 17
M  V30 17 2 17 18
M  V30 18 1 18 19
M  V30 19 2 19 20
M  V30 20 1 20 21
M  V30 21 1 21 22
M  V30 22 2 22 23
M  V30 23 1 23 24
M  V30 24 2 24 25
M  V30 25 1 25 26
M  V30 26 1 25 27
M  V30 27 1 27 28
M  V30 28 2 27 29
M  V30 29 1 18 30
M  V30 30 2 30 31
M  V30 31 1 9 4
M  V30 32 1 30 14
M  V30 33 1 21 17
M  V30 34 1 29 22
M  V30 35 1 1 32
M  V30 36 1 1 33
M  V30 37 1 1 34
M  V30 38 1 2 35
M  V30 39 1 2 36
M  V30 40 1 5 37
M  V30 41 1 6 38
M  V30 42 1 7 39
M  V30 43 1 8 40
M  V30 44 1 10 41
M  V30 45 1 13 42
M  V30 46 1 13 43
M  V30 47 1 15 44
M  V30 48 1 19 45
M  V30 49 1 23 46
M  V30 50 1 24 47
M  V30 51 1 26 48
M  V30 52 1 26 49
M  V30 53 1 26 50
M  V30 54 1 28 51
M  V30 55 1 28 52
M  V30 56 1 28 53
M  V30 57 1 29 54
M  V30 END BOND
M  V30 END CTAB
M  END
>  <Dataset>  (125) 
ChEMBL_Kinases

>  <Ligand_Instance>  (125) 
nan

>  <PDB_ID>  (125) 
nan

>  <Standardized_SMILES>  (125) 
CCOc1ccccc1NC(=O)Cn1cnc2c(cnn2-c2ccc(C)c(C)c2)c1=O

>  <Name>  (125) 
nan

>  <Pocket>  (125) 
nan

>  <ATP_Site>  (125) 
nan

>  <Peripheral>  (125) 
nan

>  <Num_H_Atoms_ProtBoundConf>  (125) 
nan

>  <Num_Resolved_Atoms>  (125) 
nan

>  <Num_Not_Resolved_Atoms>  (125) 
nan

$$$$
CHEMBL1384845
     RDKit          3D

  0  0  0  0  0  0  0  0  0  0999 V3000
M  V30 BEGIN CTAB
M  V30 COUNTS 30 31 0 0 0
M  V30 BEGIN ATOM
M  V30 1 C -2.481955 -3.214925 4.626399 0
M  V30 2 O -1.570074 -3.833749 3.761275 0
M  V30 3 C -0.819553 -3.070528 2.865185 0
M  V30 4 C 0.009330 -3.914827 2.108632 0
M  V30 5 C 0.810930 -3.249718 1.169920 0
M  V30 6 C 0.800035 -1.894160 0.992172 0
M  V30 7 C 1.628304 -1.166157 0.045544 0
M  V30 8 O 2.757783 -1.724522 -0.188486 0
M  V30 9 C 1.265912 0.085627 -0.609501 0
M  V30 10 C -0.091312 0.357982 -0.727243 0
M  V30 11 C -0.465540 1.550219 -1.329079 0
M  V30 12 C 0.452654 2.460778 -1.807750 0
M  V30 13 Cl -0.072449 3.949538 -2.557044 0
M  V30 14 C 1.788294 2.129120 -1.659838 0
M  V30 15 N 2.748182 3.067471 -2.152638 0 CHG=1 VAL=4
M  V30 16 O 3.885246 3.138546 -1.654377 0
M  V30 17 O 2.718479 4.000348 -3.134631 0 CHG=-1 VAL=1
M  V30 18 C 2.222731 0.961666 -1.071625 0
M  V30 19 C -0.033572 -1.073565 1.758697 0
M  V30 20 C -0.827324 -1.716886 2.685683 0
M  V30 21 H -3.398959 -2.950759 4.044054 0
M  V30 22 H -2.814533 -3.923112 5.426584 0
M  V30 23 H -2.073058 -2.296554 5.058887 0
M  V30 24 H 0.130075 -4.975305 2.128048 0
M  V30 25 H 1.505141 -3.770589 0.506400 0
M  V30 26 H -0.922535 -0.242640 -0.420634 0
M  V30 27 H -1.512261 1.828369 -1.455561 0
M  V30 28 H 3.261795 0.696064 -0.952237 0
M  V30 29 H -0.175653 -0.007938 1.776767 0
M  V30 30 H -1.523235 -1.216937 3.349302 0
M  V30 END ATOM
M  V30 BEGIN BOND
M  V30 1 1 1 2
M  V30 2 1 2 3
M  V30 3 2 3 4
M  V30 4 1 4 5
M  V30 5 2 5 6
M  V30 6 1 6 7
M  V30 7 2 7 8
M  V30 8 1 7 9
M  V30 9 2 9 10
M  V30 10 1 10 11
M  V30 11 2 11 12
M  V30 12 1 12 13
M  V30 13 1 12 14
M  V30 14 1 14 15
M  V30 15 2 15 16
M  V30 16 1 15 17
M  V30 17 2 14 18
M  V30 18 1 6 19
M  V30 19 2 19 20
M  V30 20 1 20 3
M  V30 21 1 18 9
M  V30 22 1 1 21
M  V30 23 1 1 22
M  V30 24 1 1 23
M  V30 25 1 4 24
M  V30 26 1 5 25
M  V30 27 1 10 26
M  V30 28 1 11 27
M  V30 29 1 18 28
M  V30 30 1 19 29
M  V30 31 1 20 30
M  V30 END BOND
M  V30 END CTAB
M  END
>  <Dataset>  (126) 
ChEMBL_Kinases

>  <Ligand_Instance>  (126) 
nan

>  <PDB_ID>  (126) 
nan

>  <Standardized_SMILES>  (126) 
COc1ccc(C(=O)c2ccc(Cl)c([N+](=O)[O-])c2)cc1

>  <Name>  (126) 
nan

>  <Pocket>  (126) 
nan

>  <ATP_Site>  (126) 
nan

>  <Peripheral>  (126) 
nan

>  <Num_H_Atoms_ProtBoundConf>  (126) 
nan

>  <Num_Resolved_Atoms>  (126) 
nan

>  <Num_Not_Resolved_Atoms>  (126) 
nan

$$$$
CHEMBL1384895
     RDKit          3D

  0  0  0  0  0  0  0  0  0  0999 V3000
M  V30 BEGIN CTAB
M  V30 COUNTS 61 66 0 0 0
M  V30 BEGIN ATOM
M  V30 1 C 0.001855 0.685951 2.559752 0
M  V30 2 C 1.239699 -0.222857 2.639229 0
M  V30 3 C 1.396947 -0.556115 4.132973 0
M  V30 4 C 0.900481 -1.440379 1.903067 0
M  V30 5 C 0.092285 -2.323345 2.604170 0
M  V30 6 C -0.331743 -3.509627 2.048405 0
M  V30 7 C 0.075475 -3.802976 0.752015 0
M  V30 8 C 0.873715 -2.887109 0.116106 0
M  V30 9 C 1.331461 -1.683021 0.619170 0
M  V30 10 N 2.143259 -0.922423 -0.188953 0
M  V30 11 C 1.660494 -0.593117 -1.426540 0
M  V30 12 S 0.295886 -0.739934 -2.513171 0
M  V30 13 C -0.936541 0.515478 -2.541922 0
M  V30 14 C -1.829804 0.756781 -1.433021 0
M  V30 15 C -1.541955 1.806011 -0.530749 0
M  V30 16 C -2.284362 2.130834 0.582485 0
M  V30 17 O -1.966901 3.078322 1.335535 0
M  V30 18 O -3.360470 1.454468 0.896259 0
M  V30 19 C -3.716498 0.461065 0.123700 0
M  V30 20 C -4.856683 -0.192856 0.523013 0
M  V30 21 C -5.331582 -1.251699 -0.216098 0
M  V30 22 C -4.591447 -1.591807 -1.359296 0
M  V30 23 C -5.144312 -2.645661 -2.076485 0
M  V30 24 C -4.449613 -2.969019 -3.221789 0
M  V30 25 C -3.295687 -2.322751 -3.655356 0
M  V30 26 C -2.879785 -1.297940 -2.825914 0
M  V30 27 C -3.473986 -0.894421 -1.683625 0
M  V30 28 C -2.967806 0.150016 -0.983788 0
M  V30 29 N 2.622771 0.130357 -2.078272 0
M  V30 30 N 3.696725 0.259850 -1.276054 0
M  V30 31 C 3.379900 -0.392397 -0.128103 0
M  V30 32 C 4.310519 -0.509049 0.986092 0
M  V30 33 C 5.068416 0.501484 1.553502 0
M  V30 34 C 5.906799 0.225684 2.609267 0
M  V30 35 C 5.976391 -1.063269 3.085690 0
M  V30 36 N 5.240837 -2.053989 2.537852 0
M  V30 37 C 4.401857 -1.806478 1.490131 0
M  V30 38 H -0.868341 0.163398 2.159358 0
M  V30 39 H -0.294428 1.071870 3.556639 0
M  V30 40 H 0.205253 1.571645 1.943925 0
M  V30 41 H 2.055297 0.385084 2.276644 0
M  V30 42 H 0.435198 -0.543257 4.642045 0
M  V30 43 H 2.138029 0.107541 4.621275 0
M  V30 44 H 1.820550 -1.599258 4.209700 0
M  V30 45 H -0.253765 -2.149160 3.610363 0
M  V30 46 H -0.955611 -4.198216 2.580280 0
M  V30 47 H -0.249684 -4.729283 0.304269 0
M  V30 48 H 1.145359 -3.191166 -0.888149 0
M  V30 49 H -1.304939 0.847393 -3.574261 0
M  V30 50 H -0.246213 1.441870 -2.478982 0
M  V30 51 H -0.670416 2.478172 -0.640472 0
M  V30 52 H -5.402139 0.096326 1.407283 0
M  V30 53 H -6.209495 -1.770005 0.077185 0
M  V30 54 H -6.030335 -3.157734 -1.765085 0
M  V30 55 H -4.897008 -3.805045 -3.780319 0
M  V30 56 H -2.937217 -2.755841 -4.578420 0
M  V30 57 H -2.063142 -0.972831 -3.360009 0
M  V30 58 H 4.918375 1.461970 1.084551 0
M  V30 59 H 6.478312 1.045046 3.019697 0
M  V30 60 H 6.647498 -1.274043 3.927544 0
M  V30 61 H 3.854449 -2.669152 1.121095 0
M  V30 END ATOM
M  V30 BEGIN BOND
M  V30 1 1 1 2
M  V30 2 1 2 3
M  V30 3 1 2 4
M  V30 4 2 4 5
M  V30 5 1 5 6
M  V30 6 2 6 7
M  V30 7 1 7 8
M  V30 8 2 8 9
M  V30 9 1 9 10
M  V30 10 1 10 11
M  V30 11 1 11 12
M  V30 12 1 12 13
M  V30 13 1 13 14
M  V30 14 2 14 15
M  V30 15 1 15 16
M  V30 16 2 16 17
M  V30 17 1 16 18
M  V30 18 1 18 19
M  V30 19 2 19 20
M  V30 20 1 20 21
M  V30 21 2 21 22
M  V30 22 1 22 23
M  V30 23 2 23 24
M  V30 24 1 24 25
M  V30 25 2 25 26
M  V30 26 1 26 27
M  V30 27 2 27 28
M  V30 28 2 11 29
M  V30 29 1 29 30
M  V30 30 2 30 31
M  V30 31 1 31 32
M  V30 32 2 32 33
M  V30 33 1 33 34
M  V30 34 2 34 35
M  V30 35 1 35 36
M  V30 36 2 36 37
M  V30 37 1 9 4
M  V30 38 1 31 10
M  V30 39 1 37 32
M  V30 40 1 28 14
M  V30 41 1 28 19
M  V30 42 1 27 22
M  V30 43 1 1 38
M  V30 44 1 1 39
M  V30 45 1 1 40
M  V30 46 1 2 41
M  V30 47 1 3 42
M  V30 48 1 3 43
M  V30 49 1 3 44
M  V30 50 1 5 45
M  V30 51 1 6 46
M  V30 52 1 7 47
M  V30 53 1 8 48
M  V30 54 1 13 49
M  V30 55 1 13 50
M  V30 56 1 15 51
M  V30 57 1 20 52
M  V30 58 1 21 53
M  V30 59 1 23 54
M  V30 60 1 24 55
M  V30 61 1 25 56
M  V30 62 1 26 57
M  V30 63 1 33 58
M  V30 64 1 34 59
M  V30 65 1 35 60
M  V30 66 1 37 61
M  V30 END BOND
M  V30 END CTAB
M  END
>  <Dataset>  (127) 
ChEMBL_Kinases

>  <Ligand_Instance>  (127) 
nan

>  <PDB_ID>  (127) 
nan

>  <Standardized_SMILES>  (127) 
CC(C)c1ccccc1-n1c(SCc2cc(=O)oc3ccc4ccccc4c23)nnc1-c1cccnc1

>  <Name>  (127) 
nan

>  <Pocket>  (127) 
nan

>  <ATP_Site>  (127) 
nan

>  <Peripheral>  (127) 
nan

>  <Num_H_Atoms_ProtBoundConf>  (127) 
nan

>  <Num_Resolved_Atoms>  (127) 
nan

>  <Num_Not_Resolved_Atoms>  (127) 
nan

$$$$
CHEMBL1384913
     RDKit          3D

  0  0  0  0  0  0  0  0  0  0999 V3000
M  V30 BEGIN CTAB
M  V30 COUNTS 29 30 0 0 0
M  V30 BEGIN ATOM
M  V30 1 O -1.203801 -1.056214 3.424692 0
M  V30 2 C -0.670267 -0.436788 2.470500 0
M  V30 3 C 0.062817 0.693212 3.022344 0
M  V30 4 O 0.735258 1.514202 2.127199 0
M  V30 5 C 1.747222 1.191508 1.265103 0
M  V30 6 C 2.425304 0.010372 0.992689 0
M  V30 7 C 3.422194 -0.050513 0.063502 0
M  V30 8 Cl 4.148270 -1.640384 -0.125611 0
M  V30 9 C 3.807134 1.058641 -0.652685 0
M  V30 10 Cl 5.087487 0.841702 -1.802313 0
M  V30 11 C 3.157869 2.250915 -0.411199 0
M  V30 12 C 2.138539 2.320233 0.536675 0
M  V30 13 Cl 1.453595 3.925466 0.681825 0
M  V30 14 N -0.865506 -0.911910 1.152501 0
M  V30 15 C -1.596973 -2.028866 0.694569 0
M  V30 16 C -1.634870 -2.283446 -0.657047 0
M  V30 17 C -2.330476 -3.356580 -1.166393 0
M  V30 18 N -3.001771 -4.200620 -0.364646 0
M  V30 19 C -3.006969 -4.010786 0.967106 0
M  V30 20 C -2.304363 -2.932543 1.443180 0
M  V30 21 H 0.859997 0.276597 3.709522 0
M  V30 22 H -0.597353 1.370384 3.635380 0
M  V30 23 H 2.027479 -0.793986 1.624959 0
M  V30 24 H 3.508722 3.078087 -1.005980 0
M  V30 25 H -0.376043 -0.302123 0.465100 0
M  V30 26 H -1.096810 -1.613009 -1.340697 0
M  V30 27 H -2.305852 -3.480241 -2.239551 0
M  V30 28 H -3.539783 -4.677675 1.623918 0
M  V30 29 H -2.328152 -2.808033 2.514053 0
M  V30 END ATOM
M  V30 BEGIN BOND
M  V30 1 2 1 2
M  V30 2 1 2 3
M  V30 3 1 3 4
M  V30 4 1 4 5
M  V30 5 2 5 6
M  V30 6 1 6 7
M  V30 7 1 7 8
M  V30 8 2 7 9
M  V30 9 1 9 10
M  V30 10 1 9 11
M  V30 11 2 11 12
M  V30 12 1 12 13
M  V30 13 1 2 14
M  V30 14 1 14 15
M  V30 15 2 15 16
M  V30 16 1 16 17
M  V30 17 2 17 18
M  V30 18 1 18 19
M  V30 19 2 19 20
M  V30 20 1 12 5
M  V30 21 1 20 15
M  V30 22 1 3 21
M  V30 23 1 3 22
M  V30 24 1 6 23
M  V30 25 1 11 24
M  V30 26 1 14 25
M  V30 27 1 16 26
M  V30 28 1 17 27
M  V30 29 1 19 28
M  V30 30 1 20 29
M  V30 END BOND
M  V30 END CTAB
M  END
>  <Dataset>  (128) 
ChEMBL_Kinases

>  <Ligand_Instance>  (128) 
nan

>  <PDB_ID>  (128) 
nan

>  <Standardized_SMILES>  (128) 
O=C(COc1cc(Cl)c(Cl)cc1Cl)Nc1ccncc1

>  <Name>  (128) 
nan

>  <Pocket>  (128) 
nan

>  <ATP_Site>  (128) 
nan

>  <Peripheral>  (128) 
nan

>  <Num_H_Atoms_ProtBoundConf>  (128) 
nan

>  <Num_Resolved_Atoms>  (128) 
nan

>  <Num_Not_Resolved_Atoms>  (128) 
nan

$$$$
CHEMBL1385048
     RDKit          3D

  0  0  0  0  0  0  0  0  0  0999 V3000
M  V30 BEGIN CTAB
M  V30 COUNTS 27 29 0 0 0
M  V30 BEGIN ATOM
M  V30 1 C -0.408258 -3.167889 0.772308 0
M  V30 2 C 0.499385 -2.098484 1.140829 0
M  V30 3 C 1.611207 -2.420333 1.938973 0
M  V30 4 N 2.537228 -1.542856 2.357123 0
M  V30 5 C 2.501954 -0.240796 2.053678 0
M  V30 6 N 3.479411 0.683432 2.495400 0
M  V30 7 C 1.439772 0.152110 1.272865 0
M  V30 8 C 1.397326 1.492500 0.955608 0
M  V30 9 O 2.279223 2.299176 1.359842 0
M  V30 10 O 0.423760 1.965029 0.215045 0
M  V30 11 C -0.501463 1.096529 -0.204106 0
M  V30 12 C -1.484854 1.668833 -0.972163 0
M  V30 13 C -2.458013 0.804202 -1.422916 0
M  V30 14 C -2.510413 -0.566567 -1.160871 0
M  V30 15 C -1.465768 -1.023134 -0.377800 0
M  V30 16 C -0.483133 -0.232179 0.094804 0
M  V30 17 C 0.506260 -0.764928 0.858438 0
M  V30 18 H 0.069981 -4.096835 1.251677 0
M  V30 19 H -1.378547 -3.238327 1.303250 0
M  V30 20 H -0.362458 -3.555873 -0.270320 0
M  V30 21 H 1.858945 -3.421254 2.316902 0
M  V30 22 H 4.054258 0.549426 3.353394 0
M  V30 23 H 4.055661 0.575692 3.332010 0
M  V30 24 H -1.506559 2.720970 -1.213820 0
M  V30 25 H -3.236592 1.285223 -2.037295 0
M  V30 26 H -3.376142 -1.043853 -1.624835 0
M  V30 27 H -1.696509 -2.024177 -0.309787 0
M  V30 END ATOM
M  V30 BEGIN BOND
M  V30 1 1 1 2
M  V30 2 2 2 3
M  V30 3 1 3 4
M  V30 4 2 4 5
M  V30 5 1 5 6
M  V30 6 1 5 7
M  V30 7 1 7 8
M  V30 8 2 8 9
M  V30 9 1 8 10
M  V30 10 1 10 11
M  V30 11 2 11 12
M  V30 12 1 12 13
M  V30 13 2 13 14
M  V30 14 1 14 15
M  V30 15 2 15 16
M  V30 16 1 16 17
M  V30 17 1 17 2
M  V30 18 2 17 7
M  V30 19 1 16 11
M  V30 20 1 1 18
M  V30 21 1 1 19
M  V30 22 1 1 20
M  V30 23 1 3 21
M  V30 24 1 6 22
M  V30 25 1 6 23
M  V30 26 1 12 24
M  V30 27 1 13 25
M  V30 28 1 14 26
M  V30 29 1 15 27
M  V30 END BOND
M  V30 END CTAB
M  END
>  <Dataset>  (129) 
ChEMBL_Kinases

>  <Ligand_Instance>  (129) 
nan

>  <PDB_ID>  (129) 
nan

>  <Standardized_SMILES>  (129) 
Cc1cnc(N)c2c(=O)oc3ccccc3c12

>  <Name>  (129) 
nan

>  <Pocket>  (129) 
nan

>  <ATP_Site>  (129) 
nan

>  <Peripheral>  (129) 
nan

>  <Num_H_Atoms_ProtBoundConf>  (129) 
nan

>  <Num_Resolved_Atoms>  (129) 
nan

>  <Num_Not_Resolved_Atoms>  (129) 
nan

$$$$
CHEMBL1385095
     RDKit          3D

  0  0  0  0  0  0  0  0  0  0999 V3000
M  V30 BEGIN CTAB
M  V30 COUNTS 44 47 0 0 0
M  V30 BEGIN ATOM
M  V30 1 C 2.273620 -4.750284 3.320829 0
M  V30 2 C 2.966455 -3.559867 3.284198 0
M  V30 3 C 2.798993 -2.666722 2.226702 0
M  V30 4 C 1.930431 -2.952335 1.182831 0
M  V30 5 O 1.830879 -1.990023 0.162177 0
M  V30 6 C 0.929161 -0.929753 0.277217 0
M  V30 7 N 0.811462 0.007923 -0.704684 0
M  V30 8 C -0.049035 1.035140 -0.612736 0
M  V30 9 N -0.114637 1.963481 -1.679351 0
M  V30 10 C 0.932990 2.668135 -2.348686 0
M  V30 11 C 1.652103 3.646516 -1.511442 0
M  V30 12 C 1.324213 4.968543 -1.410283 0
M  V30 13 C 2.261540 5.475752 -0.526221 0
M  V30 14 C 3.090970 4.447031 -0.147738 0
M  V30 15 O 2.698855 3.350390 -0.759917 0
M  V30 16 N -0.813378 1.133065 0.486292 0
M  V30 17 C -0.722396 0.214070 1.487460 0
M  V30 18 N -1.417157 0.137576 2.723487 0
M  V30 19 C -2.716541 -0.413474 2.309093 0
M  V30 20 C -2.517549 -1.674706 1.550326 0
M  V30 21 C -2.478738 -3.021869 1.839089 0
M  V30 22 C -2.245386 -3.636844 0.626555 0
M  V30 23 C -2.149251 -2.649318 -0.361521 0
M  V30 24 O -2.322076 -1.525820 0.270888 0
M  V30 25 N 0.143376 -0.814651 1.387861 0
M  V30 26 C 1.236373 -4.141831 1.217798 0
M  V30 27 C 1.406823 -5.025647 2.271425 0
M  V30 28 H 2.437700 -5.402175 4.161074 0
M  V30 29 H 3.670946 -3.253051 4.070245 0
M  V30 30 H 3.346699 -1.752877 2.223240 0
M  V30 31 H -1.129223 2.093898 -1.961910 0
M  V30 32 H 0.529516 3.172039 -3.232992 0
M  V30 33 H 1.684254 1.937517 -2.738281 0
M  V30 34 H 0.542469 5.533039 -1.881542 0
M  V30 35 H 2.386397 6.493203 -0.151287 0
M  V30 36 H 3.949829 4.371543 0.515778 0
M  V30 37 H -0.880939 0.458288 3.546942 0
M  V30 38 H -3.345935 0.299040 1.785949 0
M  V30 39 H -3.217249 -0.689311 3.287800 0
M  V30 40 H -2.618613 -3.337674 2.842022 0
M  V30 41 H -2.164019 -4.727155 0.548293 0
M  V30 42 H -1.967900 -2.852406 -1.407941 0
M  V30 43 H 0.562270 -4.348137 0.396519 0
M  V30 44 H 0.869584 -5.961080 2.312029 0
M  V30 END ATOM
M  V30 BEGIN BOND
M  V30 1 2 1 2
M  V30 2 1 2 3
M  V30 3 2 3 4
M  V30 4 1 4 5
M  V30 5 1 5 6
M  V30 6 2 6 7
M  V30 7 1 7 8
M  V30 8 1 8 9
M  V30 9 1 9 10
M  V30 10 1 10 11
M  V30 11 2 11 12
M  V30 12 1 12 13
M  V30 13 2 13 14
M  V30 14 1 14 15
M  V30 15 2 8 16
M  V30 16 1 16 17
M  V30 17 1 17 18
M  V30 18 1 18 19
M  V30 19 1 19 20
M  V30 20 2 20 21
M  V30 21 1 21 22
M  V30 22 2 22 23
M  V30 23 1 23 24
M  V30 24 2 17 25
M  V30 25 1 4 26
M  V30 26 2 26 27
M  V30 27 1 27 1
M  V30 28 1 25 6
M  V30 29 1 15 11
M  V30 30 1 24 20
M  V30 31 1 1 28
M  V30 32 1 2 29
M  V30 33 1 3 30
M  V30 34 1 9 31
M  V30 35 1 10 32
M  V30 36 1 10 33
M  V30 37 1 12 34
M  V30 38 1 13 35
M  V30 39 1 14 36
M  V30 40 1 18 37
M  V30 41 1 19 38
M  V30 42 1 19 39
M  V30 43 1 21 40
M  V30 44 1 22 41
M  V30 45 1 23 42
M  V30 46 1 26 43
M  V30 47 1 27 44
M  V30 END BOND
M  V30 END CTAB
M  END
>  <Dataset>  (130) 
ChEMBL_Kinases

>  <Ligand_Instance>  (130) 
nan

>  <PDB_ID>  (130) 
nan

>  <Standardized_SMILES>  (130) 
c1ccc(Oc2nc(NCc3ccco3)nc(NCc3ccco3)n2)cc1

>  <Name>  (130) 
nan

>  <Pocket>  (130) 
nan

>  <ATP_Site>  (130) 
nan

>  <Peripheral>  (130) 
nan

>  <Num_H_Atoms_ProtBoundConf>  (130) 
nan

>  <Num_Resolved_Atoms>  (130) 
nan

>  <Num_Not_Resolved_Atoms>  (130) 
nan

$$$$
CHEMBL1385143
     RDKit          3D

  0  0  0  0  0  0  0  0  0  0999 V3000
M  V30 BEGIN CTAB
M  V30 COUNTS 56 58 0 0 0
M  V30 BEGIN ATOM
M  V30 1 N 1.967758 -0.358814 5.771561 0
M  V30 2 C 1.356641 -0.425838 4.464184 0
M  V30 3 O 0.525502 -1.007266 5.210749 0
M  V30 4 C 2.021880 0.163363 3.245755 0
M  V30 5 C 1.122097 1.081821 2.486738 0
M  V30 6 N 1.867229 1.602375 1.334679 0
M  V30 7 C 2.240017 2.853036 0.766352 0
M  V30 8 O 1.818566 3.806635 1.423246 0
M  V30 9 C 3.045363 2.791098 -0.471543 0
M  V30 10 C 3.544981 1.743554 -1.198626 0
M  V30 11 C 4.290991 1.960497 -2.336886 0
M  V30 12 C 4.538247 3.250339 -2.748829 0
M  V30 13 C 4.049299 4.323279 -2.040194 0
M  V30 14 C 3.289590 4.100066 -0.882731 0
M  V30 15 C -0.085846 0.428353 1.913324 0
M  V30 16 C -0.251491 -0.966452 1.860626 0
M  V30 17 C -1.428063 -1.401905 1.283753 0
M  V30 18 C -2.434521 -0.634309 0.766018 0
M  V30 19 N -3.606709 -1.203949 0.204793 0
M  V30 20 C -3.731008 -2.666942 0.103677 0
M  V30 21 C -2.778400 -3.064396 -0.987996 0
M  V30 22 C -2.679102 -4.482614 -1.290198 0
M  V30 23 C -3.423588 -5.131176 -2.231909 0
M  V30 24 C -3.299634 -6.467519 -2.470955 0
M  V30 25 C -2.382980 -7.195005 -1.730042 0
M  V30 26 F -2.223791 -8.532445 -1.930226 0
M  V30 27 C -1.596003 -6.579164 -0.752510 0
M  V30 28 C -1.761698 -5.201910 -0.545079 0
M  V30 29 C -2.171263 0.697368 0.871599 0
M  V30 30 N -3.164019 1.630188 0.387683 0 CHG=1 VAL=4
M  V30 31 O -2.908376 2.805484 -0.011826 0
M  V30 32 O -4.520537 1.679265 0.192062 0 CHG=-1 VAL=1
M  V30 33 C -1.057877 1.296590 1.412644 0
M  V30 34 H 2.916464 -0.356239 6.154880 0
M  V30 35 H 2.529470 -0.318476 6.658693 0
M  V30 36 H 2.914255 0.679188 3.625784 0
M  V30 37 H 2.357061 -0.705183 2.639730 0
M  V30 38 H 0.755073 1.909472 3.132264 0
M  V30 39 H 2.161058 0.702546 0.850248 0
M  V30 40 H 3.280478 0.796028 -0.773044 0
M  V30 41 H 4.596604 1.013611 -2.770958 0
M  V30 42 H 5.145165 3.222227 -3.653873 0
M  V30 43 H 4.301728 5.290215 -2.449946 0
M  V30 44 H 2.983802 5.038673 -0.449054 0
M  V30 45 H 0.534376 -1.564074 2.269620 0
M  V30 46 H -1.450658 -2.489649 1.319857 0
M  V30 47 H -4.383609 -0.601434 -0.135609 0
M  V30 48 H -4.784229 -2.879039 -0.131022 0
M  V30 49 H -3.499267 -3.061026 1.093336 0
M  V30 50 H -1.794248 -2.602048 -0.911454 0
M  V30 51 H -3.217298 -2.590397 -1.933661 0
M  V30 52 H -4.128958 -4.557736 -2.806433 0
M  V30 53 H -3.855141 -7.049605 -3.198120 0
M  V30 54 H -0.869142 -7.147849 -0.163640 0
M  V30 55 H -1.116191 -4.792476 0.227382 0
M  V30 56 H -0.926543 2.363801 1.457971 0
M  V30 END ATOM
M  V30 BEGIN BOND
M  V30 1 1 1 2
M  V30 2 2 2 3
M  V30 3 1 2 4
M  V30 4 1 4 5
M  V30 5 1 5 6
M  V30 6 1 6 7
M  V30 7 2 7 8
M  V30 8 1 7 9
M  V30 9 2 9 10
M  V30 10 1 10 11
M  V30 11 2 11 12
M  V30 12 1 12 13
M  V30 13 2 13 14
M  V30 14 1 5 15
M  V30 15 2 15 16
M  V30 16 1 16 17
M  V30 17 2 17 18
M  V30 18 1 18 19
M  V30 19 1 19 20
M  V30 20 1 20 21
M  V30 21 1 21 22
M  V30 22 2 22 23
M  V30 23 1 23 24
M  V30 24 2 24 25
M  V30 25 1 25 26
M  V30 26 1 25 27
M  V30 27 2 27 28
M  V30 28 1 18 29
M  V30 29 1 29 30
M  V30 30 2 30 31
M  V30 31 1 30 32
M  V30 32 2 29 33
M  V30 33 1 14 9
M  V30 34 1 33 15
M  V30 35 1 28 22
M  V30 36 1 1 34
M  V30 37 1 1 35
M  V30 38 1 4 36
M  V30 39 1 4 37
M  V30 40 1 5 38
M  V30 41 1 6 39
M  V30 42 1 10 40
M  V30 43 1 11 41
M  V30 44 1 12 42
M  V30 45 1 13 43
M  V30 46 1 14 44
M  V30 47 1 16 45
M  V30 48 1 17 46
M  V30 49 1 19 47
M  V30 50 1 20 48
M  V30 51 1 20 49
M  V30 52 1 21 50
M  V30 53 1 21 51
M  V30 54 1 23 52
M  V30 55 1 24 53
M  V30 56 1 27 54
M  V30 57 1 28 55
M  V30 58 1 33 56
M  V30 END BOND
M  V30 END CTAB
M  END
>  <Dataset>  (131) 
ChEMBL_Kinases

>  <Ligand_Instance>  (131) 
nan

>  <PDB_ID>  (131) 
nan

>  <Standardized_SMILES>  (131) 
NC(=O)CC(NC(=O)c1ccccc1)c1ccc(NCCc2ccc(F)cc2)c([N+](=O)[O-])c1

>  <Name>  (131) 
nan

>  <Pocket>  (131) 
nan

>  <ATP_Site>  (131) 
nan

>  <Peripheral>  (131) 
nan

>  <Num_H_Atoms_ProtBoundConf>  (131) 
nan

>  <Num_Resolved_Atoms>  (131) 
nan

>  <Num_Not_Resolved_Atoms>  (131) 
nan

$$$$
CHEMBL1385272
     RDKit          3D

  0  0  0  0  0  0  0  0  0  0999 V3000
M  V30 BEGIN CTAB
M  V30 COUNTS 44 46 0 0 0
M  V30 BEGIN ATOM
M  V30 1 C 1.585876 -6.192018 -1.668632 0
M  V30 2 C 2.145031 -4.830833 -1.974045 0
M  V30 3 C 2.678082 -4.510914 -3.208103 0
M  V30 4 C 3.195148 -3.269987 -3.507717 0
M  V30 5 C 3.165860 -2.312626 -2.499719 0
M  V30 6 C 2.639912 -2.607253 -1.261826 0
M  V30 7 N 2.615777 -1.622582 -0.242412 0
M  V30 8 C 1.433700 -0.878729 -0.282651 0
M  V30 9 O 0.674847 -1.252761 -1.204629 0
M  V30 10 C 1.071746 0.232172 0.634397 0
M  V30 11 S -0.623509 0.925999 0.184232 0
M  V30 12 C -0.559798 2.167837 1.535460 0
M  V30 13 N -1.579545 3.101676 1.808244 0
M  V30 14 C -2.538684 2.585198 2.736504 0
M  V30 15 O -2.230980 1.402938 3.087843 0
M  V30 16 C -3.693385 3.376533 3.173511 0
M  V30 17 C -4.072651 4.657294 2.825321 0
M  V30 18 C -5.238469 4.846042 3.560466 0
M  V30 19 C -5.493163 3.703354 4.291352 0
M  V30 20 O -4.544588 2.838154 4.035977 0
M  V30 21 C 0.612139 1.950735 2.122951 0
M  V30 22 C 1.015096 2.768670 3.264302 0
M  V30 23 N 1.334090 3.447048 4.177729 0
M  V30 24 C 1.459037 0.968736 1.679183 0
M  V30 25 C 2.796601 0.578515 2.199772 0
M  V30 26 C 2.118215 -3.876518 -0.976136 0
M  V30 27 C 1.566217 -4.116722 0.389659 0
M  V30 28 H 1.959849 -6.559736 -0.700516 0
M  V30 29 H 0.484732 -6.105018 -1.582928 0
M  V30 30 H 1.797842 -6.888585 -2.501326 0
M  V30 31 H 2.667888 -5.312770 -3.951891 0
M  V30 32 H 3.608265 -3.038583 -4.480072 0
M  V30 33 H 3.571511 -1.353976 -2.749132 0
M  V30 34 H 3.294282 -1.359205 0.507182 0
M  V30 35 H -1.697333 4.077444 1.421803 0
M  V30 36 H -3.514381 5.270776 2.134235 0
M  V30 37 H -5.795123 5.791283 3.499575 0
M  V30 38 H -6.342975 3.578162 4.953804 0
M  V30 39 H 3.065869 1.241133 3.080434 0
M  V30 40 H 2.819033 -0.438757 2.642411 0
M  V30 41 H 3.619738 0.779944 1.482129 0
M  V30 42 H 2.061631 -3.409508 1.093170 0
M  V30 43 H 0.482321 -3.885822 0.395756 0
M  V30 44 H 1.782133 -5.137563 0.751919 0
M  V30 END ATOM
M  V30 BEGIN BOND
M  V30 1 1 1 2
M  V30 2 2 2 3
M  V30 3 1 3 4
M  V30 4 2 4 5
M  V30 5 1 5 6
M  V30 6 1 6 7
M  V30 7 1 7 8
M  V30 8 2 8 9
M  V30 9 1 8 10
M  V30 10 1 10 11
M  V30 11 1 11 12
M  V30 12 1 12 13
M  V30 13 1 13 14
M  V30 14 2 14 15
M  V30 15 1 14 16
M  V30 16 2 16 17
M  V30 17 1 17 18
M  V30 18 2 18 19
M  V30 19 1 19 20
M  V30 20 2 12 21
M  V30 21 1 21 22
M  V30 22 3 22 23
M  V30 23 1 21 24
M  V30 24 1 24 25
M  V30 25 2 6 26
M  V30 26 1 26 27
M  V30 27 1 26 2
M  V30 28 2 24 10
M  V30 29 1 20 16
M  V30 30 1 1 28
M  V30 31 1 1 29
M  V30 32 1 1 30
M  V30 33 1 3 31
M  V30 34 1 4 32
M  V30 35 1 5 33
M  V30 36 1 7 34
M  V30 37 1 13 35
M  V30 38 1 17 36
M  V30 39 1 18 37
M  V30 40 1 19 38
M  V30 41 1 25 39
M  V30 42 1 25 40
M  V30 43 1 25 41
M  V30 44 1 27 42
M  V30 45 1 27 43
M  V30 46 1 27 44
M  V30 END BOND
M  V30 END CTAB
M  END
>  <Dataset>  (132) 
ChEMBL_Kinases

>  <Ligand_Instance>  (132) 
nan

>  <PDB_ID>  (132) 
nan

>  <Standardized_SMILES>  (132) 
Cc1cccc(NC(=O)c2sc(NC(=O)c3ccco3)c(C#N)c2C)c1C

>  <Name>  (132) 
nan

>  <Pocket>  (132) 
nan

>  <ATP_Site>  (132) 
nan

>  <Peripheral>  (132) 
nan

>  <Num_H_Atoms_ProtBoundConf>  (132) 
nan

>  <Num_Resolved_Atoms>  (132) 
nan

>  <Num_Not_Resolved_Atoms>  (132) 
nan

$$$$
CHEMBL1385823
     RDKit          3D

  0  0  0  0  0  0  0  0  0  0999 V3000
M  V30 BEGIN CTAB
M  V30 COUNTS 63 66 0 0 0
M  V30 BEGIN ATOM
M  V30 1 C 4.288859 -1.233738 2.367044 0
M  V30 2 C 2.916443 -1.847315 2.664335 0
M  V30 3 O 1.962377 -0.882503 2.300848 0
M  V30 4 C 0.605583 -1.020863 2.402738 0
M  V30 5 O 0.296596 -2.145293 2.873720 0
M  V30 6 C -0.380985 0.033742 2.003278 0
M  V30 7 C -0.132472 1.262273 2.829521 0
M  V30 8 C 1.220703 1.865299 2.695966 0
M  V30 9 O 1.522599 2.265259 1.410337 0
M  V30 10 C 0.972850 3.167601 0.576503 0
M  V30 11 C 1.673819 3.167172 -0.628832 0
M  V30 12 C 1.333192 4.003668 -1.690942 0
M  V30 13 C 0.251735 4.859930 -1.517336 0
M  V30 14 C -0.458754 4.890995 -0.355593 0
M  V30 15 C -0.072388 4.047676 0.641751 0
M  V30 16 C -0.306255 0.234915 0.528226 0
M  V30 17 C -0.905850 -1.021352 -0.123412 0
M  V30 18 N -2.316856 -0.949134 0.075074 0
M  V30 19 C -3.039318 -2.167131 -0.088493 0
M  V30 20 C -2.919935 -2.759572 -1.428691 0
M  V30 21 C -3.826874 -2.421174 -2.428130 0
M  V30 22 C -3.451427 -3.132607 -3.548708 0
M  V30 23 C -2.340076 -3.866936 -3.182429 0
M  V30 24 N -2.013892 -3.641015 -1.889444 0
M  V30 25 C -0.937187 -4.208499 -1.147659 0
M  V30 26 C 0.353194 -3.900060 -1.534406 0
M  V30 27 C 1.388896 -4.459576 -0.803559 0
M  V30 28 C 1.133031 -5.295433 0.272601 0
M  V30 29 N -0.139968 -5.596888 0.650484 0
M  V30 30 C -1.148376 -5.056437 -0.055521 0
M  V30 31 C -2.737263 -0.147885 1.178218 0
M  V30 32 C -1.791473 -0.423553 2.342160 0
M  V30 33 H 5.060738 -2.022956 2.256376 0
M  V30 34 H 4.549363 -0.541384 3.200786 0
M  V30 35 H 4.164494 -0.627000 1.452069 0
M  V30 36 H 2.791839 -2.714167 1.982457 0
M  V30 37 H 2.830641 -2.120121 3.734432 0
M  V30 38 H -0.956389 1.962014 2.621402 0
M  V30 39 H -0.329803 0.932491 3.899411 0
M  V30 40 H 2.020719 1.269738 3.184352 0
M  V30 41 H 1.193040 2.812119 3.323677 0
M  V30 42 H 2.540071 2.558249 -0.919465 0
M  V30 43 H 1.821056 4.061145 -2.643666 0
M  V30 44 H -0.050076 5.528854 -2.316426 0
M  V30 45 H -1.312002 5.534676 -0.155761 0
M  V30 46 H -0.579826 4.025302 1.579149 0
M  V30 47 H 0.690584 0.326854 0.098231 0
M  V30 48 H -0.957886 1.057721 0.186018 0
M  V30 49 H -0.527364 -1.864258 0.509123 0
M  V30 50 H -0.600622 -1.132795 -1.164376 0
M  V30 51 H -2.675551 -2.873293 0.706016 0
M  V30 52 H -4.094160 -1.961169 0.195849 0
M  V30 53 H -4.670474 -1.746373 -2.390880 0
M  V30 54 H -3.965926 -3.083214 -4.498420 0
M  V30 55 H -1.810256 -4.531324 -3.851821 0
M  V30 56 H 0.530202 -3.245621 -2.377228 0
M  V30 57 H 2.379797 -4.207393 -1.120348 0
M  V30 58 H 2.032628 -5.669982 0.763512 0
M  V30 59 H -2.189519 -5.247524 0.181980 0
M  V30 60 H -2.831194 0.935739 0.972672 0
M  V30 61 H -3.760519 -0.483409 1.457264 0
M  V30 62 H -1.787920 -1.522366 2.498726 0
M  V30 63 H -2.161680 0.035313 3.265534 0
M  V30 END ATOM
M  V30 BEGIN BOND
M  V30 1 1 1 2
M  V30 2 1 2 3
M  V30 3 1 3 4
M  V30 4 2 4 5
M  V30 5 1 4 6
M  V30 6 1 6 7
M  V30 7 1 7 8
M  V30 8 1 8 9
M  V30 9 1 9 10
M  V30 10 2 10 11
M  V30 11 1 11 12
M  V30 12 2 12 13
M  V30 13 1 13 14
M  V30 14 2 14 15
M  V30 15 1 6 16
M  V30 16 1 16 17
M  V30 17 1 17 18
M  V30 18 1 18 19
M  V30 19 1 19 20
M  V30 20 2 20 21
M  V30 21 1 21 22
M  V30 22 2 22 23
M  V30 23 1 23 24
M  V30 24 1 24 25
M  V30 25 2 25 26
M  V30 26 1 26 27
M  V30 27 2 27 28
M  V30 28 1 28 29
M  V30 29 2 29 30
M  V30 30 1 18 31
M  V30 31 1 31 32
M  V30 32 1 32 6
M  V30 33 1 15 10
M  V30 34 1 24 20
M  V30 35 1 30 25
M  V30 36 1 1 33
M  V30 37 1 1 34
M  V30 38 1 1 35
M  V30 39 1 2 36
M  V30 40 1 2 37
M  V30 41 1 7 38
M  V30 42 1 7 39
M  V30 43 1 8 40
M  V30 44 1 8 41
M  V30 45 1 11 42
M  V30 46 1 12 43
M  V30 47 1 13 44
M  V30 48 1 14 45
M  V30 49 1 15 46
M  V30 50 1 16 47
M  V30 51 1 16 48
M  V30 52 1 17 49
M  V30 53 1 17 50
M  V30 54 1 19 51
M  V30 55 1 19 52
M  V30 56 1 21 53
M  V30 57 1 22 54
M  V30 58 1 23 55
M  V30 59 1 26 56
M  V30 60 1 27 57
M  V30 61 1 28 58
M  V30 62 1 30 59
M  V30 63 1 31 60
M  V30 64 1 31 61
M  V30 65 1 32 62
M  V30 66 1 32 63
M  V30 END BOND
M  V30 END CTAB
M  END
>  <Dataset>  (133) 
ChEMBL_Kinases

>  <Ligand_Instance>  (133) 
nan

>  <PDB_ID>  (133) 
nan

>  <Standardized_SMILES>  (133) 
CCOC(=O)C1(CCOc2ccccc2)CCN(Cc2cccn2-c2cccnc2)CC1

>  <Name>  (133) 
nan

>  <Pocket>  (133) 
nan

>  <ATP_Site>  (133) 
nan

>  <Peripheral>  (133) 
nan

>  <Num_H_Atoms_ProtBoundConf>  (133) 
nan

>  <Num_Resolved_Atoms>  (133) 
nan

>  <Num_Not_Resolved_Atoms>  (133) 
nan

$$$$
CHEMBL1385355
     RDKit          3D

  0  0  0  0  0  0  0  0  0  0999 V3000
M  V30 BEGIN CTAB
M  V30 COUNTS 46 49 0 0 0
M  V30 BEGIN ATOM
M  V30 1 O -1.282913 -3.970301 0.953333 0
M  V30 2 C -0.577775 -4.802425 1.614403 0
M  V30 3 N 0.804044 -4.495503 1.643957 0
M  V30 4 C 1.044906 -3.286704 0.894303 0
M  V30 5 C 0.973176 -2.106493 1.615815 0
M  V30 6 C 1.193963 -0.923377 0.952938 0
M  V30 7 C 1.478459 -0.914842 -0.391640 0
M  V30 8 C 1.706280 0.360931 -1.057857 0
M  V30 9 N 1.878310 0.567561 -2.372132 0
M  V30 10 O 2.055928 1.816915 -2.618347 0
M  V30 11 C 2.007075 2.481197 -1.470406 0
M  V30 12 C 2.198950 3.929955 -1.629905 0
M  V30 13 C 2.149041 4.719794 -0.370272 0
M  V30 14 C 0.894104 4.648933 0.385603 0
M  V30 15 C 0.511465 3.821812 1.405851 0
M  V30 16 C -0.733570 3.907423 1.986816 0
M  V30 17 C -1.670584 4.827064 1.581074 0
M  V30 18 C -1.332243 5.680421 0.559129 0
M  V30 19 C -0.079115 5.574129 -0.006007 0
M  V30 20 N 1.790211 1.565916 -0.515388 0
M  V30 21 C 1.552036 -2.095604 -1.122076 0
M  V30 22 C 1.329754 -3.290961 -0.456082 0
M  V30 23 C -1.229473 -5.929328 2.242144 0
M  V30 24 C -2.595521 -6.017848 2.072513 0
M  V30 25 C -3.286886 -7.086396 2.655527 0
M  V30 26 C -2.524758 -7.988923 3.372097 0
M  V30 27 N -1.176873 -7.883505 3.527663 0
M  V30 28 C -0.492002 -6.844542 2.962898 0
M  V30 29 H 1.416615 -5.161641 2.181167 0
M  V30 30 H 0.745635 -2.110837 2.692011 0
M  V30 31 H 1.124807 -0.021391 1.572248 0
M  V30 32 H 3.200006 4.106345 -2.089854 0
M  V30 33 H 1.483607 4.363428 -2.383589 0
M  V30 34 H 2.367669 5.789053 -0.654733 0
M  V30 35 H 3.032154 4.419387 0.259176 0
M  V30 36 H 1.266892 3.112686 1.711258 0
M  V30 37 H -0.914213 3.191938 2.788605 0
M  V30 38 H -2.610842 4.797385 2.112799 0
M  V30 39 H -2.054997 6.393504 0.242682 0
M  V30 40 H 0.098169 6.298241 -0.814472 0
M  V30 41 H 1.776572 -2.095279 -2.185346 0
M  V30 42 H 1.373617 -4.250274 -0.974157 0
M  V30 43 H -3.180997 -5.310231 1.512702 0
M  V30 44 H -4.346670 -7.220573 2.566723 0
M  V30 45 H -3.053847 -8.834112 3.836200 0
M  V30 46 H 0.578131 -6.779398 3.098528 0
M  V30 END ATOM
M  V30 BEGIN BOND
M  V30 1 2 1 2
M  V30 2 1 2 3
M  V30 3 1 3 4
M  V30 4 2 4 5
M  V30 5 1 5 6
M  V30 6 2 6 7
M  V30 7 1 7 8
M  V30 8 2 8 9
M  V30 9 1 9 10
M  V30 10 1 10 11
M  V30 11 1 11 12
M  V30 12 1 12 13
M  V30 13 1 13 14
M  V30 14 2 14 15
M  V30 15 1 15 16
M  V30 16 2 16 17
M  V30 17 1 17 18
M  V30 18 2 18 19
M  V30 19 2 11 20
M  V30 20 1 7 21
M  V30 21 2 21 22
M  V30 22 1 2 23
M  V30 23 2 23 24
M  V30 24 1 24 25
M  V30 25 2 25 26
M  V30 26 1 26 27
M  V30 27 2 27 28
M  V30 28 1 22 4
M  V30 29 1 28 23
M  V30 30 1 20 8
M  V30 31 1 19 14
M  V30 32 1 3 29
M  V30 33 1 5 30
M  V30 34 1 6 31
M  V30 35 1 12 32
M  V30 36 1 12 33
M  V30 37 1 13 34
M  V30 38 1 13 35
M  V30 39 1 15 36
M  V30 40 1 16 37
M  V30 41 1 17 38
M  V30 42 1 18 39
M  V30 43 1 19 40
M  V30 44 1 21 41
M  V30 45 1 22 42
M  V30 46 1 24 43
M  V30 47 1 25 44
M  V30 48 1 26 45
M  V30 49 1 28 46
M  V30 END BOND
M  V30 END CTAB
M  END
>  <Dataset>  (134) 
ChEMBL_Kinases

>  <Ligand_Instance>  (134) 
nan

>  <PDB_ID>  (134) 
nan

>  <Standardized_SMILES>  (134) 
O=C(Nc1ccc(-c2noc(CCc3ccccc3)n2)cc1)c1cccnc1

>  <Name>  (134) 
nan

>  <Pocket>  (134) 
nan

>  <ATP_Site>  (134) 
nan

>  <Peripheral>  (134) 
nan

>  <Num_H_Atoms_ProtBoundConf>  (134) 
nan

>  <Num_Resolved_Atoms>  (134) 
nan

>  <Num_Not_Resolved_Atoms>  (134) 
nan

$$$$
CHEMBL1385434
     RDKit          3D

  0  0  0  0  0  0  0  0  0  0999 V3000
M  V30 BEGIN CTAB
M  V30 COUNTS 49 52 0 0 0
M  V30 BEGIN ATOM
M  V30 1 O 0.446585 -1.912225 0.430716 0
M  V30 2 C 1.100434 -1.218519 1.273782 0
M  V30 3 N 2.488515 -1.401326 1.325853 0
M  V30 4 C 3.315563 -2.292695 0.533669 0
M  V30 5 C 3.150232 -1.905713 -0.909327 0
M  V30 6 C 4.033418 -2.723327 -1.825276 0
M  V30 7 C 4.953081 -1.669126 -2.401400 0
M  V30 8 C 4.932401 -0.625915 -1.302891 0
M  V30 9 O 3.564250 -0.584789 -1.023107 0
M  V30 10 C 0.421236 -0.252206 2.168717 0
M  V30 11 C 0.874270 1.160406 2.018272 0
M  V30 12 C 0.111684 1.984189 3.017958 0
M  V30 13 C -1.327045 1.720530 3.103057 0
M  V30 14 N -1.756359 0.332742 2.901840 0
M  V30 15 S -3.461051 0.241323 2.846643 0
M  V30 16 O -3.991443 -0.687304 3.914100 0
M  V30 17 O -4.040837 1.589672 3.140944 0
M  V30 18 C -4.012150 -0.344107 1.317742 0
M  V30 19 C -4.481869 0.604465 0.438601 0
M  V30 20 C -4.883210 0.216085 -0.815910 0
M  V30 21 C -4.801146 -1.111154 -1.148628 0
M  V30 22 C -4.327695 -2.006573 -0.232840 0
M  V30 23 N -4.288170 -3.417702 -0.624256 0
M  V30 24 S -3.680588 -4.182556 0.797847 0
M  V30 25 N -3.486201 -2.723142 1.856102 0
M  V30 26 C -3.930101 -1.667439 0.990915 0
M  V30 27 C -1.064663 -0.227767 1.767768 0
M  V30 28 H 2.998911 -0.810308 2.037330 0
M  V30 29 H 2.936740 -3.345098 0.693087 0
M  V30 30 H 4.357981 -2.289694 0.852197 0
M  V30 31 H 2.091967 -2.061074 -1.194975 0
M  V30 32 H 3.463102 -3.273345 -2.599035 0
M  V30 33 H 4.670088 -3.403651 -1.211474 0
M  V30 34 H 5.972923 -2.061732 -2.586951 0
M  V30 35 H 4.495389 -1.224968 -3.300558 0
M  V30 36 H 5.501623 -1.047461 -0.447037 0
M  V30 37 H 5.275857 0.353230 -1.641140 0
M  V30 38 H 0.536648 -0.536127 3.236396 0
M  V30 39 H 1.951898 1.312987 2.212831 0
M  V30 40 H 0.690322 1.520105 0.984647 0
M  V30 41 H 0.258612 3.053899 2.684068 0
M  V30 42 H 0.653763 1.923704 3.984409 0
M  V30 43 H -1.681503 1.996452 4.118795 0
M  V30 44 H -1.920770 2.327009 2.387817 0
M  V30 45 H -4.548360 1.658607 0.700392 0
M  V30 46 H -5.249912 0.946594 -1.507333 0
M  V30 47 H -5.124370 -1.358700 -2.134037 0
M  V30 48 H -1.173972 0.502514 0.931756 0
M  V30 49 H -1.423178 -1.186223 1.483524 0
M  V30 END ATOM
M  V30 BEGIN BOND
M  V30 1 2 1 2
M  V30 2 1 2 3
M  V30 3 1 3 4
M  V30 4 1 4 5
M  V30 5 1 5 6
M  V30 6 1 6 7
M  V30 7 1 7 8
M  V30 8 1 8 9
M  V30 9 1 2 10
M  V30 10 1 10 11
M  V30 11 1 11 12
M  V30 12 1 12 13
M  V30 13 1 13 14
M  V30 14 1 14 15
M  V30 15 2 15 16
M  V30 16 2 15 17
M  V30 17 1 15 18
M  V30 18 2 18 19
M  V30 19 1 19 20
M  V30 20 2 20 21
M  V30 21 1 21 22
M  V30 22 2 22 23
M  V30 23 1 23 24
M  V30 24 1 24 25
M  V30 25 2 25 26
M  V30 26 1 14 27
M  V30 27 1 9 5
M  V30 28 1 27 10
M  V30 29 1 26 18
M  V30 30 1 26 22
M  V30 31 1 3 28
M  V30 32 1 4 29
M  V30 33 1 4 30
M  V30 34 1 5 31
M  V30 35 1 6 32
M  V30 36 1 6 33
M  V30 37 1 7 34
M  V30 38 1 7 35
M  V30 39 1 8 36
M  V30 40 1 8 37
M  V30 41 1 10 38
M  V30 42 1 11 39
M  V30 43 1 11 40
M  V30 44 1 12 41
M  V30 45 1 12 42
M  V30 46 1 13 43
M  V30 47 1 13 44
M  V30 48 1 19 45
M  V30 49 1 20 46
M  V30 50 1 21 47
M  V30 51 1 27 48
M  V30 52 1 27 49
M  V30 END BOND
M  V30 END CTAB
M  END
>  <Dataset>  (135) 
ChEMBL_Kinases

>  <Ligand_Instance>  (135) 
nan

>  <PDB_ID>  (135) 
nan

>  <Standardized_SMILES>  (135) 
O=C(NCC1CCCO1)C1CCCN(S(=O)(=O)c2cccc3nsnc23)C1

>  <Name>  (135) 
nan

>  <Pocket>  (135) 
nan

>  <ATP_Site>  (135) 
nan

>  <Peripheral>  (135) 
nan

>  <Num_H_Atoms_ProtBoundConf>  (135) 
nan

>  <Num_Resolved_Atoms>  (135) 
nan

>  <Num_Not_Resolved_Atoms>  (135) 
nan

$$$$
CHEMBL1385446
     RDKit          3D

  0  0  0  0  0  0  0  0  0  0999 V3000
M  V30 BEGIN CTAB
M  V30 COUNTS 49 51 0 0 0
M  V30 BEGIN ATOM
M  V30 1 C -0.185798 -1.950338 3.141790 0
M  V30 2 O 0.404039 -1.079861 2.199551 0
M  V30 3 C 1.738730 -0.749606 2.386019 0
M  V30 4 C 2.443663 -1.277757 3.478015 0
M  V30 5 C 3.761623 -1.027435 3.769332 0
M  V30 6 C 4.443495 -0.192712 2.922805 0
M  V30 7 C 3.801164 0.355294 1.833382 0
M  V30 8 O 4.497190 1.195522 0.985986 0
M  V30 9 C 5.851935 1.459361 1.276185 0
M  V30 10 C 2.455602 0.103969 1.529978 0
M  V30 11 C 1.720289 0.639025 0.413290 0
M  V30 12 O 0.505724 0.286499 0.315139 0
M  V30 13 N 2.057559 1.499053 -0.635993 0
M  V30 14 C 1.299296 1.989362 -1.700978 0
M  V30 15 S 2.021728 3.013911 -2.793056 0
M  V30 16 N -0.060656 1.750271 -2.032876 0
M  V30 17 C -1.257495 1.065328 -1.656052 0
M  V30 18 C -2.200581 1.629273 -0.801223 0
M  V30 19 C -3.357085 0.930273 -0.444867 0
M  V30 20 C -3.488833 -0.321752 -0.987916 0
M  V30 21 S -4.963828 -1.142019 -0.497119 0
M  V30 22 O -6.094652 -0.154219 -0.345816 0
M  V30 23 O -5.360283 -2.043199 -1.637431 0
M  V30 24 N -4.723546 -2.037711 0.953264 0
M  V30 25 C -3.740019 -3.098392 0.891200 0
M  V30 26 N -3.017934 -3.534922 0.057385 0
M  V30 27 C -2.177544 -4.549445 0.253251 0
M  V30 28 C -2.149540 -5.130243 1.519395 0
M  V30 29 S -3.454680 -4.068857 2.399259 0
M  V30 30 C -2.629698 -0.978818 -1.838558 0
M  V30 31 C -1.509590 -0.221492 -2.143625 0
M  V30 32 H -0.066402 -1.519588 4.166798 0
M  V30 33 H 0.325149 -2.933628 3.187415 0
M  V30 34 H -1.264742 -2.097994 2.963437 0
M  V30 35 H 1.927913 -1.947745 4.172904 0
M  V30 36 H 4.239518 -1.467690 4.625890 0
M  V30 37 H 5.471355 0.020546 3.124506 0
M  V30 38 H 6.238071 2.287273 0.637533 0
M  V30 39 H 6.472455 0.549474 1.199375 0
M  V30 40 H 5.933459 1.839284 2.318517 0
M  V30 41 H 3.050331 1.815865 -0.596024 0
M  V30 42 H -0.545218 2.165757 -2.856328 0
M  V30 43 H -1.968299 2.618483 -0.450431 0
M  V30 44 H -4.067755 1.394403 0.219014 0
M  V30 45 H -5.269755 -1.801018 1.798935 0
M  V30 46 H -1.594918 -4.802596 -0.647629 0
M  V30 47 H -1.394058 -6.008027 1.616659 0
M  V30 48 H -2.783141 -1.953235 -2.231785 0
M  V30 49 H -0.741339 -0.625378 -2.812903 0
M  V30 END ATOM
M  V30 BEGIN BOND
M  V30 1 1 1 2
M  V30 2 1 2 3
M  V30 3 2 3 4
M  V30 4 1 4 5
M  V30 5 2 5 6
M  V30 6 1 6 7
M  V30 7 1 7 8
M  V30 8 1 8 9
M  V30 9 2 7 10
M  V30 10 1 10 11
M  V30 11 2 11 12
M  V30 12 1 11 13
M  V30 13 1 13 14
M  V30 14 2 14 15
M  V30 15 1 14 16
M  V30 16 1 16 17
M  V30 17 2 17 18
M  V30 18 1 18 19
M  V30 19 2 19 20
M  V30 20 1 20 21
M  V30 21 2 21 22
M  V30 22 2 21 23
M  V30 23 1 21 24
M  V30 24 1 24 25
M  V30 25 2 25 26
M  V30 26 1 26 27
M  V30 27 2 27 28
M  V30 28 1 28 29
M  V30 29 1 20 30
M  V30 30 2 30 31
M  V30 31 1 10 3
M  V30 32 1 31 17
M  V30 33 1 29 25
M  V30 34 1 1 32
M  V30 35 1 1 33
M  V30 36 1 1 34
M  V30 37 1 4 35
M  V30 38 1 5 36
M  V30 39 1 6 37
M  V30 40 1 9 38
M  V30 41 1 9 39
M  V30 42 1 9 40
M  V30 43 1 13 41
M  V30 44 1 16 42
M  V30 45 1 18 43
M  V30 46 1 19 44
M  V30 47 1 24 45
M  V30 48 1 27 46
M  V30 49 1 28 47
M  V30 50 1 30 48
M  V30 51 1 31 49
M  V30 END BOND
M  V30 END CTAB
M  END
>  <Dataset>  (136) 
ChEMBL_Kinases

>  <Ligand_Instance>  (136) 
nan

>  <PDB_ID>  (136) 
nan

>  <Standardized_SMILES>  (136) 
COc1cccc(OC)c1C(=O)NC(=S)Nc1ccc(S(=O)(=O)Nc2nccs2)cc1

>  <Name>  (136) 
nan

>  <Pocket>  (136) 
nan

>  <ATP_Site>  (136) 
nan

>  <Peripheral>  (136) 
nan

>  <Num_H_Atoms_ProtBoundConf>  (136) 
nan

>  <Num_Resolved_Atoms>  (136) 
nan

>  <Num_Not_Resolved_Atoms>  (136) 
nan

$$$$
CHEMBL1385530
     RDKit          3D

  0  0  0  0  0  0  0  0  0  0999 V3000
M  V30 BEGIN CTAB
M  V30 COUNTS 39 41 0 0 0
M  V30 BEGIN ATOM
M  V30 1 O 1.164153 -3.097100 4.620736 0
M  V30 2 C 1.174226 -2.787545 3.407021 0
M  V30 3 C 0.613933 -1.678143 2.676630 0
M  V30 4 C 0.630921 -1.354683 1.370822 0
M  V30 5 N 1.270765 -2.134665 0.379198 0
M  V30 6 C 1.073408 -3.582580 0.514799 0
M  V30 7 C 0.883667 -4.090352 -0.905510 0
M  V30 8 O 2.038151 -3.898456 -1.641046 0
M  V30 9 C 2.904758 -2.951306 -1.103569 0
M  V30 10 C 2.068376 -1.717568 -0.720859 0
M  V30 11 C -0.103466 -0.092645 1.220661 0
M  V30 12 C 0.171244 0.810016 0.292608 0
M  V30 13 C -0.674977 2.019160 0.291374 0
M  V30 14 C -0.033729 3.247186 0.156377 0
M  V30 15 C -0.763576 4.436794 0.134337 0
M  V30 16 C -2.133477 4.344354 0.250671 0
M  V30 17 Cl -3.100188 5.803307 0.228646 0
M  V30 18 C -2.793371 3.118404 0.386876 0
M  V30 19 C -2.046482 1.942598 0.406688 0
M  V30 20 C -1.109739 -0.156502 2.341465 0
M  V30 21 C -0.154707 -0.662846 3.441148 0
M  V30 22 H 1.757607 -3.685811 3.215183 0
M  V30 23 H 2.004024 -4.091284 0.869788 0
M  V30 24 H 0.177490 -3.833152 1.118793 0
M  V30 25 H -0.001380 -3.564012 -1.317276 0
M  V30 26 H 0.590405 -5.157810 -0.836835 0
M  V30 27 H 3.559159 -2.605629 -1.950487 0
M  V30 28 H 3.500168 -3.295019 -0.257411 0
M  V30 29 H 2.800213 -0.933445 -0.543398 0
M  V30 30 H 1.441593 -1.567781 -1.651364 0
M  V30 31 H 0.991824 0.624358 -0.413383 0
M  V30 32 H 1.031600 3.399600 0.059926 0
M  V30 33 H -0.340446 5.424799 0.032731 0
M  V30 34 H -3.878899 3.108640 0.475190 0
M  V30 35 H -2.559689 0.994321 0.501502 0
M  V30 36 H -1.802160 -0.969381 2.121996 0
M  V30 37 H -1.530939 0.811030 2.604784 0
M  V30 38 H -0.707053 -1.056339 4.294138 0
M  V30 39 H 0.473557 0.238680 3.673165 0
M  V30 END ATOM
M  V30 BEGIN BOND
M  V30 1 2 1 2
M  V30 2 1 2 3
M  V30 3 2 3 4
M  V30 4 1 4 5
M  V30 5 1 5 6
M  V30 6 1 6 7
M  V30 7 1 7 8
M  V30 8 1 8 9
M  V30 9 1 9 10
M  V30 10 1 4 11
M  V30 11 2 11 12
M  V30 12 1 12 13
M  V30 13 2 13 14
M  V30 14 1 14 15
M  V30 15 2 15 16
M  V30 16 1 16 17
M  V30 17 1 16 18
M  V30 18 2 18 19
M  V30 19 1 11 20
M  V30 20 1 20 21
M  V30 21 1 21 3
M  V30 22 1 10 5
M  V30 23 1 19 13
M  V30 24 1 2 22
M  V30 25 1 6 23
M  V30 26 1 6 24
M  V30 27 1 7 25
M  V30 28 1 7 26
M  V30 29 1 9 27
M  V30 30 1 9 28
M  V30 31 1 10 29
M  V30 32 1 10 30
M  V30 33 1 12 31
M  V30 34 1 14 32
M  V30 35 1 15 33
M  V30 36 1 18 34
M  V30 37 1 19 35
M  V30 38 1 20 36
M  V30 39 1 20 37
M  V30 40 1 21 38
M  V30 41 1 21 39
M  V30 END BOND
M  V30 END CTAB
M  END
>  <Dataset>  (137) 
ChEMBL_Kinases

>  <Ligand_Instance>  (137) 
nan

>  <PDB_ID>  (137) 
nan

>  <Standardized_SMILES>  (137) 
O=CC1=C(N2CCOCC2)/C(=C/c2ccc(Cl)cc2)CC1

>  <Name>  (137) 
nan

>  <Pocket>  (137) 
nan

>  <ATP_Site>  (137) 
nan

>  <Peripheral>  (137) 
nan

>  <Num_H_Atoms_ProtBoundConf>  (137) 
nan

>  <Num_Resolved_Atoms>  (137) 
nan

>  <Num_Not_Resolved_Atoms>  (137) 
nan

$$$$
CHEMBL1385622
     RDKit          3D

  0  0  0  0  0  0  0  0  0  0999 V3000
M  V30 BEGIN CTAB
M  V30 COUNTS 51 55 0 0 0
M  V30 BEGIN ATOM
M  V30 1 O 2.892211 -1.913876 1.347087 0
M  V30 2 C 1.825771 -1.451456 0.823273 0
M  V30 3 C 1.841744 -0.019667 0.631297 0
M  V30 4 C 2.297814 0.612765 -0.510999 0
M  V30 5 C 2.276537 1.987999 -0.609178 0
M  V30 6 C 2.747757 2.694795 -1.795197 0
M  V30 7 C 2.687957 4.073217 -1.802994 0
M  V30 8 C 3.118806 4.810968 -2.897291 0
M  V30 9 N 3.602510 4.166554 -3.967032 0
M  V30 10 C 3.683869 2.844090 -4.016047 0
M  V30 11 C 3.259098 2.111921 -2.936669 0
M  V30 12 N 1.816045 2.713223 0.397140 0
M  V30 13 C 1.356733 2.128917 1.541882 0
M  V30 14 C 0.884495 2.941137 2.566462 0
M  V30 15 C 0.414244 2.371103 3.735402 0
M  V30 16 C 0.417899 0.990577 3.875650 0
M  V30 17 C 0.888175 0.189253 2.854517 0
M  V30 18 C 1.365726 0.755173 1.668833 0
M  V30 19 N 0.637771 -2.143157 0.407369 0
M  V30 20 C -0.551478 -1.613797 -0.178656 0
M  V30 21 C -1.701085 -1.889963 0.765294 0
M  V30 22 N -1.764524 -3.300790 1.012544 0
M  V30 23 C -2.935406 -3.850147 1.626345 0
M  V30 24 C -4.012865 -3.070699 1.992098 0
M  V30 25 C -5.142915 -3.616425 2.586904 0
M  V30 26 C -5.177410 -4.975935 2.813107 0
M  V30 27 C -4.104140 -5.753041 2.448884 0
M  V30 28 N -3.054729 -5.165227 1.883968 0
M  V30 29 C -0.694821 -4.207752 0.670076 0
M  V30 30 C 0.659913 -3.579044 0.616330 0
M  V30 31 H 2.664815 0.008250 -1.310149 0
M  V30 32 H 2.304340 4.630423 -0.959577 0
M  V30 33 H 3.052743 5.900687 -2.859185 0
M  V30 34 H 4.069331 2.302834 -4.865537 0
M  V30 35 H 3.313400 1.032251 -2.948147 0
M  V30 36 H 0.872053 4.037799 2.477510 0
M  V30 37 H 0.044369 2.993120 4.539422 0
M  V30 38 H 0.051191 0.540402 4.787816 0
M  V30 39 H 0.900861 -0.895871 2.941658 0
M  V30 40 H -0.764140 -2.235533 -1.092812 0
M  V30 41 H -0.513898 -0.584701 -0.528946 0
M  V30 42 H -2.662170 -1.480954 0.370800 0
M  V30 43 H -1.490136 -1.381563 1.727279 0
M  V30 44 H -3.999179 -2.003203 1.820537 0
M  V30 45 H -5.982922 -2.987333 2.868734 0
M  V30 46 H -6.031275 -5.456364 3.273092 0
M  V30 47 H -4.046641 -6.823967 2.588836 0
M  V30 48 H -0.934117 -4.618147 -0.327080 0
M  V30 49 H -0.643557 -5.062531 1.382415 0
M  V30 50 H 1.244310 -4.037235 -0.234551 0
M  V30 51 H 1.262625 -3.845789 1.522144 0
M  V30 END ATOM
M  V30 BEGIN BOND
M  V30 1 2 1 2
M  V30 2 1 2 3
M  V30 3 2 3 4
M  V30 4 1 4 5
M  V30 5 1 5 6
M  V30 6 2 6 7
M  V30 7 1 7 8
M  V30 8 2 8 9
M  V30 9 1 9 10
M  V30 10 2 10 11
M  V30 11 2 5 12
M  V30 12 1 12 13
M  V30 13 2 13 14
M  V30 14 1 14 15
M  V30 15 2 15 16
M  V30 16 1 16 17
M  V30 17 2 17 18
M  V30 18 1 2 19
M  V30 19 1 19 20
M  V30 20 1 20 21
M  V30 21 1 21 22
M  V30 22 1 22 23
M  V30 23 2 23 24
M  V30 24 1 24 25
M  V30 25 2 25 26
M  V30 26 1 26 27
M  V30 27 2 27 28
M  V30 28 1 22 29
M  V30 29 1 29 30
M  V30 30 1 18 3
M  V30 31 1 30 19
M  V30 32 1 11 6
M  V30 33 1 18 13
M  V30 34 1 28 23
M  V30 35 1 4 31
M  V30 36 1 7 32
M  V30 37 1 8 33
M  V30 38 1 10 34
M  V30 39 1 11 35
M  V30 40 1 14 36
M  V30 41 1 15 37
M  V30 42 1 16 38
M  V30 43 1 17 39
M  V30 44 1 20 40
M  V30 45 1 20 41
M  V30 46 1 21 42
M  V30 47 1 21 43
M  V30 48 1 24 44
M  V30 49 1 25 45
M  V30 50 1 26 46
M  V30 51 1 27 47
M  V30 52 1 29 48
M  V30 53 1 29 49
M  V30 54 1 30 50
M  V30 55 1 30 51
M  V30 END BOND
M  V30 END CTAB
M  END
>  <Dataset>  (138) 
ChEMBL_Kinases

>  <Ligand_Instance>  (138) 
nan

>  <PDB_ID>  (138) 
nan

>  <Standardized_SMILES>  (138) 
O=C(c1cc(-c2ccncc2)nc2ccccc12)N1CCN(c2ccccn2)CC1

>  <Name>  (138) 
nan

>  <Pocket>  (138) 
nan

>  <ATP_Site>  (138) 
nan

>  <Peripheral>  (138) 
nan

>  <Num_H_Atoms_ProtBoundConf>  (138) 
nan

>  <Num_Resolved_Atoms>  (138) 
nan

>  <Num_Not_Resolved_Atoms>  (138) 
nan

$$$$
CHEMBL1385627
     RDKit          3D

  0  0  0  0  0  0  0  0  0  0999 V3000
M  V30 BEGIN CTAB
M  V30 COUNTS 30 30 0 0 0
M  V30 BEGIN ATOM
M  V30 1 C 0.387292 -2.260965 4.347441 0
M  V30 2 C -0.533186 -2.484512 3.141277 0
M  V30 3 C -1.122312 -3.863641 3.313527 0
M  V30 4 N 0.235527 -2.390333 1.904888 0
M  V30 5 C -0.046083 -1.475789 0.842097 0
M  V30 6 O -1.044495 -0.761733 1.112166 0
M  V30 7 C 0.958445 -1.680978 -0.249372 0
M  V30 8 O 0.705023 -0.789553 -1.314812 0
M  V30 9 C 0.716283 0.585622 -1.203185 0
M  V30 10 C 0.960500 1.369688 -0.107311 0
M  V30 11 C 0.932189 2.739131 -0.168110 0
M  V30 12 C 0.654184 3.393601 -1.345603 0
M  V30 13 C 0.406739 2.609205 -2.455757 0
M  V30 14 C 0.432946 1.212452 -2.405237 0
M  V30 15 C 0.157358 0.544719 -3.632178 0
M  V30 16 N -0.057627 -0.013479 -4.619798 0
M  V30 17 H 0.053980 -2.899682 5.204467 0
M  V30 18 H 1.407193 -2.590635 4.085197 0
M  V30 19 H 0.295931 -1.219203 4.653391 0
M  V30 20 H -1.349057 -1.743725 3.111155 0
M  V30 21 H -0.432295 -4.521250 3.884049 0
M  V30 22 H -1.333770 -4.384950 2.367597 0
M  V30 23 H -2.098625 -3.745295 3.830800 0
M  V30 24 H 0.986044 -3.117904 2.006595 0
M  V30 25 H 0.803921 -2.711177 -0.642583 0
M  V30 26 H 1.992490 -1.572691 0.144649 0
M  V30 27 H 1.174444 0.819945 0.792072 0
M  V30 28 H 1.132977 3.307245 0.729565 0
M  V30 29 H 0.635526 4.474134 -1.377613 0
M  V30 30 H 0.191333 3.154615 -3.366470 0
M  V30 END ATOM
M  V30 BEGIN BOND
M  V30 1 1 1 2
M  V30 2 1 2 3
M  V30 3 1 2 4
M  V30 4 1 4 5
M  V30 5 2 5 6
M  V30 6 1 5 7
M  V30 7 1 7 8
M  V30 8 1 8 9
M  V30 9 2 9 10
M  V30 10 1 10 11
M  V30 11 2 11 12
M  V30 12 1 12 13
M  V30 13 2 13 14
M  V30 14 1 14 15
M  V30 15 3 15 16
M  V30 16 1 14 9
M  V30 17 1 1 17
M  V30 18 1 1 18
M  V30 19 1 1 19
M  V30 20 1 2 20
M  V30 21 1 3 21
M  V30 22 1 3 22
M  V30 23 1 3 23
M  V30 24 1 4 24
M  V30 25 1 7 25
M  V30 26 1 7 26
M  V30 27 1 10 27
M  V30 28 1 11 28
M  V30 29 1 12 29
M  V30 30 1 13 30
M  V30 END BOND
M  V30 END CTAB
M  END
>  <Dataset>  (139) 
ChEMBL_Kinases

>  <Ligand_Instance>  (139) 
nan

>  <PDB_ID>  (139) 
nan

>  <Standardized_SMILES>  (139) 
CC(C)NC(=O)COc1ccccc1C#N

>  <Name>  (139) 
nan

>  <Pocket>  (139) 
nan

>  <ATP_Site>  (139) 
nan

>  <Peripheral>  (139) 
nan

>  <Num_H_Atoms_ProtBoundConf>  (139) 
nan

>  <Num_Resolved_Atoms>  (139) 
nan

>  <Num_Not_Resolved_Atoms>  (139) 
nan

$$$$
CHEMBL1385734
     RDKit          3D

  0  0  0  0  0  0  0  0  0  0999 V3000
M  V30 BEGIN CTAB
M  V30 COUNTS 57 59 0 0 0
M  V30 BEGIN ATOM
M  V30 1 C 2.139795 -5.197215 3.509811 0
M  V30 2 C 2.366723 -5.799324 2.164743 0
M  V30 3 O 3.453766 -5.249121 1.498409 0
M  V30 4 C 3.637413 -3.932410 1.135760 0
M  V30 5 C 4.256940 -2.891176 1.788216 0
M  V30 6 Br 5.020475 -3.331116 3.477005 0
M  V30 7 C 4.322895 -1.631955 1.232981 0
M  V30 8 C 3.770570 -1.327492 -0.020638 0
M  V30 9 C 4.003113 0.095894 -0.368064 0
M  V30 10 N 3.026902 1.007374 0.182061 0
M  V30 11 C 1.651402 1.305221 0.065792 0
M  V30 12 C 0.947148 2.267858 0.775160 0
M  V30 13 C -0.393910 2.413638 0.508094 0
M  V30 14 C -1.104911 1.676405 -0.414485 0
M  V30 15 N -2.505462 1.943255 -0.578030 0
M  V30 16 C -3.074711 2.931328 0.343462 0
M  V30 17 C -4.571110 2.841693 0.220215 0
M  V30 18 N -4.955408 1.424756 0.298913 0
M  V30 19 C -5.699216 0.872464 1.366561 0
M  V30 20 C -6.009123 -0.564951 1.306508 0
M  V30 21 O -5.993184 1.734816 2.240411 0
M  V30 22 C -4.491323 0.624711 -0.844131 0
M  V30 23 C -3.356042 1.333385 -1.551133 0
M  V30 24 C -0.404910 0.720395 -1.119041 0
M  V30 25 C 0.940364 0.568317 -0.856931 0
M  V30 26 C 3.155266 -2.375817 -0.663737 0
M  V30 27 C 3.093533 -3.629615 -0.101897 0
M  V30 28 O 2.439293 -4.555803 -0.887135 0
M  V30 29 C 1.889168 -4.257975 -2.134349 0
M  V30 30 H 1.159135 -5.557834 3.936192 0
M  V30 31 H 2.045231 -4.090249 3.426778 0
M  V30 32 H 2.928283 -5.445143 4.244079 0
M  V30 33 H 2.448487 -6.902367 2.293605 0
M  V30 34 H 1.446930 -5.621774 1.536280 0
M  V30 35 H 4.851777 -0.921005 1.888107 0
M  V30 36 H 3.913813 0.234529 -1.483217 0
M  V30 37 H 5.009486 0.404082 -0.106028 0
M  V30 38 H 3.449951 1.672261 0.904529 0
M  V30 39 H 1.507959 2.832775 1.487014 0
M  V30 40 H -0.824621 3.207441 1.136237 0
M  V30 41 H -2.769845 2.712526 1.389575 0
M  V30 42 H -2.733874 3.936621 0.075884 0
M  V30 43 H -4.837986 3.239697 -0.786716 0
M  V30 44 H -5.113227 3.431622 0.975703 0
M  V30 45 H -5.119777 -1.221096 1.413356 0
M  V30 46 H -6.711475 -0.820009 2.101913 0
M  V30 47 H -6.471451 -0.809746 0.317662 0
M  V30 48 H -5.332090 0.410317 -1.508697 0
M  V30 49 H -4.083107 -0.310432 -0.411158 0
M  V30 50 H -2.823456 0.581481 -2.156559 0
M  V30 51 H -3.837533 2.088944 -2.206581 0
M  V30 52 H -0.906778 0.127110 -1.839549 0
M  V30 53 H 1.415812 -0.194590 -1.453430 0
M  V30 54 H 2.762398 -2.082494 -1.624039 0
M  V30 55 H 1.166891 -3.418188 -2.024558 0
M  V30 56 H 2.641876 -3.908208 -2.879718 0
M  V30 57 H 1.323750 -5.107565 -2.530104 0
M  V30 END ATOM
M  V30 BEGIN BOND
M  V30 1 1 1 2
M  V30 2 1 2 3
M  V30 3 1 3 4
M  V30 4 2 4 5
M  V30 5 1 5 6
M  V30 6 1 5 7
M  V30 7 2 7 8
M  V30 8 1 8 9
M  V30 9 1 9 10
M  V30 10 1 10 11
M  V30 11 2 11 12
M  V30 12 1 12 13
M  V30 13 2 13 14
M  V30 14 1 14 15
M  V30 15 1 15 16
M  V30 16 1 16 17
M  V30 17 1 17 18
M  V30 18 1 18 19
M  V30 19 1 19 20
M  V30 20 2 19 21
M  V30 21 1 18 22
M  V30 22 1 22 23
M  V30 23 1 14 24
M  V30 24 2 24 25
M  V30 25 1 8 26
M  V30 26 2 26 27
M  V30 27 1 27 28
M  V30 28 1 28 29
M  V30 29 1 27 4
M  V30 30 1 25 11
M  V30 31 1 23 15
M  V30 32 1 1 30
M  V30 33 1 1 31
M  V30 34 1 1 32
M  V30 35 1 2 33
M  V30 36 1 2 34
M  V30 37 1 7 35
M  V30 38 1 9 36
M  V30 39 1 9 37
M  V30 40 1 10 38
M  V30 41 1 12 39
M  V30 42 1 13 40
M  V30 43 1 16 41
M  V30 44 1 16 42
M  V30 45 1 17 43
M  V30 46 1 17 44
M  V30 47 1 20 45
M  V30 48 1 20 46
M  V30 49 1 20 47
M  V30 50 1 22 48
M  V30 51 1 22 49
M  V30 52 1 23 50
M  V30 53 1 23 51
M  V30 54 1 24 52
M  V30 55 1 25 53
M  V30 56 1 26 54
M  V30 57 1 29 55
M  V30 58 1 29 56
M  V30 59 1 29 57
M  V30 END BOND
M  V30 END CTAB
M  END
>  <Dataset>  (140) 
ChEMBL_Kinases

>  <Ligand_Instance>  (140) 
nan

>  <PDB_ID>  (140) 
nan

>  <Standardized_SMILES>  (140) 
CCOc1c(Br)cc(CNc2ccc(N3CCN(C(C)=O)CC3)cc2)cc1OC

>  <Name>  (140) 
nan

>  <Pocket>  (140) 
nan

>  <ATP_Site>  (140) 
nan

>  <Peripheral>  (140) 
nan

>  <Num_H_Atoms_ProtBoundConf>  (140) 
nan

>  <Num_Resolved_Atoms>  (140) 
nan

>  <Num_Not_Resolved_Atoms>  (140) 
nan

$$$$
CHEMBL1385762
     RDKit          3D

  0  0  0  0  0  0  0  0  0  0999 V3000
M  V30 BEGIN CTAB
M  V30 COUNTS 49 52 0 0 0
M  V30 BEGIN ATOM
M  V30 1 C 0.408283 -1.758257 4.071643 0
M  V30 2 C -0.557054 -2.844295 3.664982 0
M  V30 3 C 0.043907 -3.785810 2.647158 0
M  V30 4 N 0.431404 -3.090186 1.437208 0
M  V30 5 C 1.628216 -2.528398 1.188240 0
M  V30 6 C 1.618157 -1.957788 -0.074670 0
M  V30 7 S 2.802114 -1.111585 -0.954652 0
M  V30 8 O 3.091079 -1.901135 -2.212067 0
M  V30 9 O 4.093785 -1.139901 -0.164484 0
M  V30 10 C 2.497471 0.526427 -1.443913 0
M  V30 11 C 2.256084 1.475178 -0.367788 0
M  V30 12 O 3.326899 2.007804 0.107990 0
M  V30 13 N 1.133805 1.992682 0.326136 0
M  V30 14 C 1.067373 2.951956 1.442326 0
M  V30 15 C 0.038185 2.266711 2.315875 0
M  V30 16 C -1.005809 1.851715 1.311067 0
M  V30 17 C -2.362581 1.611541 1.287910 0
M  V30 18 C -3.014775 1.233339 0.132435 0
M  V30 19 C -2.307517 1.086400 -1.040952 0
M  V30 20 C -0.949492 1.324309 -1.028163 0
M  V30 21 C -0.268116 1.707890 0.129489 0
M  V30 22 C 0.335880 -2.221059 -0.552926 0
M  V30 23 C -0.310239 -1.930639 -1.726708 0
M  V30 24 C -1.611878 -2.295136 -1.999787 0
M  V30 25 C -2.315515 -2.995281 -1.039457 0
M  V30 26 C -1.707027 -3.308858 0.154033 0
M  V30 27 C -0.394367 -2.921451 0.385665 0
M  V30 28 H 1.379851 -2.186172 4.381592 0
M  V30 29 H -0.011610 -1.248038 4.963008 0
M  V30 30 H 0.514912 -0.973971 3.296944 0
M  V30 31 H -0.810466 -3.420083 4.576692 0
M  V30 32 H -1.494322 -2.405037 3.271778 0
M  V30 33 H 0.940676 -4.279239 3.059246 0
M  V30 34 H -0.682207 -4.567364 2.416656 0
M  V30 35 H 2.495194 -2.496741 1.833200 0
M  V30 36 H 1.799907 0.590396 -2.317405 0
M  V30 37 H 3.465760 0.842326 -1.940273 0
M  V30 38 H 0.648777 3.923972 1.135667 0
M  V30 39 H 2.024973 3.097151 1.931342 0
M  V30 40 H -0.461696 2.993591 2.991259 0
M  V30 41 H 0.435934 1.430816 2.892991 0
M  V30 42 H -2.831217 1.756779 2.274505 0
M  V30 43 H -4.079384 1.083518 0.281275 0
M  V30 44 H -2.871887 0.787953 -1.913158 0
M  V30 45 H -0.419837 1.203407 -1.960456 0
M  V30 46 H 0.240928 -1.383235 -2.476608 0
M  V30 47 H -2.037799 -2.013716 -2.972292 0
M  V30 48 H -3.332674 -3.240563 -1.340429 0
M  V30 49 H -2.289187 -3.849373 0.863478 0
M  V30 END ATOM
M  V30 BEGIN BOND
M  V30 1 1 1 2
M  V30 2 1 2 3
M  V30 3 1 3 4
M  V30 4 1 4 5
M  V30 5 2 5 6
M  V30 6 1 6 7
M  V30 7 2 7 8
M  V30 8 2 7 9
M  V30 9 1 7 10
M  V30 10 1 10 11
M  V30 11 2 11 12
M  V30 12 1 11 13
M  V30 13 1 13 14
M  V30 14 1 14 15
M  V30 15 1 15 16
M  V30 16 2 16 17
M  V30 17 1 17 18
M  V30 18 2 18 19
M  V30 19 1 19 20
M  V30 20 2 20 21
M  V30 21 1 6 22
M  V30 22 2 22 23
M  V30 23 1 23 24
M  V30 24 2 24 25
M  V30 25 1 25 26
M  V30 26 2 26 27
M  V30 27 1 27 4
M  V30 28 1 21 13
M  V30 29 1 27 22
M  V30 30 1 21 16
M  V30 31 1 1 28
M  V30 32 1 1 29
M  V30 33 1 1 30
M  V30 34 1 2 31
M  V30 35 1 2 32
M  V30 36 1 3 33
M  V30 37 1 3 34
M  V30 38 1 5 35
M  V30 39 1 10 36
M  V30 40 1 10 37
M  V30 41 1 14 38
M  V30 42 1 14 39
M  V30 43 1 15 40
M  V30 44 1 15 41
M  V30 45 1 17 42
M  V30 46 1 18 43
M  V30 47 1 19 44
M  V30 48 1 20 45
M  V30 49 1 23 46
M  V30 50 1 24 47
M  V30 51 1 25 48
M  V30 52 1 26 49
M  V30 END BOND
M  V30 END CTAB
M  END
>  <Dataset>  (141) 
ChEMBL_Kinases

>  <Ligand_Instance>  (141) 
nan

>  <PDB_ID>  (141) 
nan

>  <Standardized_SMILES>  (141) 
CCCn1cc(S(=O)(=O)CC(=O)N2CCc3ccccc32)c2ccccc21

>  <Name>  (141) 
nan

>  <Pocket>  (141) 
nan

>  <ATP_Site>  (141) 
nan

>  <Peripheral>  (141) 
nan

>  <Num_H_Atoms_ProtBoundConf>  (141) 
nan

>  <Num_Resolved_Atoms>  (141) 
nan

>  <Num_Not_Resolved_Atoms>  (141) 
nan

$$$$
CHEMBL1385345
     RDKit          3D

  0  0  0  0  0  0  0  0  0  0999 V3000
M  V30 BEGIN CTAB
M  V30 COUNTS 54 57 0 0 0
M  V30 BEGIN ATOM
M  V30 1 O 2.641079 -0.631113 2.138180 0
M  V30 2 S 2.486160 0.840782 1.962690 0
M  V30 3 O 3.021261 1.509412 3.208792 0
M  V30 4 C 3.413088 1.413521 0.593358 0
M  V30 5 C 3.549765 0.527598 -0.456238 0
M  V30 6 C 4.265047 0.865699 -1.603618 0
M  V30 7 C 4.846659 2.135814 -1.667198 0
M  V30 8 F 5.561853 2.536713 -2.759579 0
M  V30 9 C 4.710963 3.034801 -0.608162 0
M  V30 10 C 3.999086 2.677788 0.515824 0
M  V30 11 N 0.866827 1.220344 1.764214 0
M  V30 12 C 0.482875 2.566622 1.671389 0
M  V30 13 C 0.159520 3.196457 3.018781 0
M  V30 14 O -0.203111 4.514815 2.798524 0
M  V30 15 C -0.097872 0.267889 2.139672 0
M  V30 16 C -0.519970 -0.702450 1.065982 0
M  V30 17 O -1.075775 -0.054078 -0.035887 0
M  V30 18 C -1.593513 -1.607221 1.635144 0
M  V30 19 N -2.062057 -2.578944 0.665786 0
M  V30 20 C -1.506778 -3.815293 0.507244 0
M  V30 21 C -0.434280 -4.407483 1.184182 0
M  V30 22 C -0.010644 -5.689275 0.877887 0
M  V30 23 C -0.653613 -6.402880 -0.112989 0
M  V30 24 C -1.709733 -5.819024 -0.779201 0
M  V30 25 C -2.126785 -4.557155 -0.477667 0
M  V30 26 C -3.118705 -3.719190 -0.944825 0
M  V30 27 C -4.066670 -3.904538 -1.931188 0
M  V30 28 C -4.957983 -2.858278 -2.190391 0
M  V30 29 C -4.900622 -1.655463 -1.478331 0
M  V30 30 C -3.936844 -1.479817 -0.482514 0
M  V30 31 C -3.076171 -2.516148 -0.246478 0
M  V30 32 H 3.124383 -0.464200 -0.464642 0
M  V30 33 H 4.384114 0.173794 -2.448212 0
M  V30 34 H 5.153533 4.027908 -0.633270 0
M  V30 35 H 3.853770 3.329120 1.377903 0
M  V30 36 H 1.323477 3.153388 1.247498 0
M  V30 37 H -0.373443 2.767038 0.982472 0
M  V30 38 H -0.593112 2.579136 3.509359 0
M  V30 39 H 1.124930 3.237365 3.590163 0
M  V30 40 H 0.556163 5.145502 2.915447 0
M  V30 41 H -1.004537 0.777017 2.508176 0
M  V30 42 H 0.305426 -0.350632 2.976097 0
M  V30 43 H 0.317156 -1.379531 0.758728 0
M  V30 44 H -1.522736 0.772537 0.302275 0
M  V30 45 H -1.218291 -2.163467 2.508969 0
M  V30 46 H -2.485364 -1.035252 1.962120 0
M  V30 47 H 0.104181 -3.886472 1.972067 0
M  V30 48 H 0.827035 -6.114717 1.426921 0
M  V30 49 H -0.303865 -7.398701 -0.331699 0
M  V30 50 H -2.229893 -6.354495 -1.557920 0
M  V30 51 H -4.144763 -4.818914 -2.504684 0
M  V30 52 H -5.718201 -2.980021 -2.966689 0
M  V30 53 H -5.629669 -0.904743 -1.747864 0
M  V30 54 H -3.912388 -0.545014 0.052103 0
M  V30 END ATOM
M  V30 BEGIN BOND
M  V30 1 2 1 2
M  V30 2 2 2 3
M  V30 3 1 2 4
M  V30 4 2 4 5
M  V30 5 1 5 6
M  V30 6 2 6 7
M  V30 7 1 7 8
M  V30 8 1 7 9
M  V30 9 2 9 10
M  V30 10 1 2 11
M  V30 11 1 11 12
M  V30 12 1 12 13
M  V30 13 1 13 14
M  V30 14 1 11 15
M  V30 15 1 15 16
M  V30 16 1 16 17
M  V30 17 1 16 18
M  V30 18 1 18 19
M  V30 19 1 19 20
M  V30 20 2 20 21
M  V30 21 1 21 22
M  V30 22 2 22 23
M  V30 23 1 23 24
M  V30 24 2 24 25
M  V30 25 1 25 26
M  V30 26 2 26 27
M  V30 27 1 27 28
M  V30 28 2 28 29
M  V30 29 1 29 30
M  V30 30 2 30 31
M  V30 31 1 10 4
M  V30 32 1 31 19
M  V30 33 1 25 20
M  V30 34 1 31 26
M  V30 35 1 5 32
M  V30 36 1 6 33
M  V30 37 1 9 34
M  V30 38 1 10 35
M  V30 39 1 12 36
M  V30 40 1 12 37
M  V30 41 1 13 38
M  V30 42 1 13 39
M  V30 43 1 14 40
M  V30 44 1 15 41
M  V30 45 1 15 42
M  V30 46 1 16 43
M  V30 47 1 17 44
M  V30 48 1 18 45
M  V30 49 1 18 46
M  V30 50 1 21 47
M  V30 51 1 22 48
M  V30 52 1 23 49
M  V30 53 1 24 50
M  V30 54 1 27 51
M  V30 55 1 28 52
M  V30 56 1 29 53
M  V30 57 1 30 54
M  V30 END BOND
M  V30 END CTAB
M  END
>  <Dataset>  (142) 
ChEMBL_Kinases

>  <Ligand_Instance>  (142) 
nan

>  <PDB_ID>  (142) 
nan

>  <Standardized_SMILES>  (142) 
O=S(=O)(c1ccc(F)cc1)N(CCO)CC(O)Cn1c2ccccc2c2ccccc21

>  <Name>  (142) 
nan

>  <Pocket>  (142) 
nan

>  <ATP_Site>  (142) 
nan

>  <Peripheral>  (142) 
nan

>  <Num_H_Atoms_ProtBoundConf>  (142) 
nan

>  <Num_Resolved_Atoms>  (142) 
nan

>  <Num_Not_Resolved_Atoms>  (142) 
nan

$$$$
CHEMBL1389920
     RDKit          3D

  0  0  0  0  0  0  0  0  0  0999 V3000
M  V30 BEGIN CTAB
M  V30 COUNTS 15 16 0 0 0
M  V30 BEGIN ATOM
M  V30 1 O -1.319763 -1.673497 0.845198 0
M  V30 2 N 0.056743 -1.572672 1.007490 0
M  V30 3 N 0.948325 -2.557025 1.106430 0
M  V30 4 N 2.161764 -2.029903 1.252076 0
M  V30 5 C 1.992520 -0.680919 1.240135 0
M  V30 6 C 2.905609 0.345000 1.353435 0
M  V30 7 C 2.439419 1.639514 1.306292 0
M  V30 8 C 1.102025 1.942032 1.150968 0
M  V30 9 C 0.201997 0.925200 1.039256 0
M  V30 10 C 0.639005 -0.375227 1.082937 0
M  V30 11 H -1.725986 -1.480089 -0.064610 0
M  V30 12 H 3.963139 0.205364 1.476841 0
M  V30 13 H 3.086128 2.523592 1.387463 0
M  V30 14 H 0.709115 2.964811 1.110834 0
M  V30 15 H -0.869281 1.122656 0.914575 0
M  V30 END ATOM
M  V30 BEGIN BOND
M  V30 1 1 1 2
M  V30 2 1 2 3
M  V30 3 2 3 4
M  V30 4 1 4 5
M  V30 5 2 5 6
M  V30 6 1 6 7
M  V30 7 2 7 8
M  V30 8 1 8 9
M  V30 9 2 9 10
M  V30 10 1 10 2
M  V30 11 1 10 5
M  V30 12 1 1 11
M  V30 13 1 6 12
M  V30 14 1 7 13
M  V30 15 1 8 14
M  V30 16 1 9 15
M  V30 END BOND
M  V30 END CTAB
M  END
>  <Dataset>  (143) 
ChEMBL_Kinases

>  <Ligand_Instance>  (143) 
nan

>  <PDB_ID>  (143) 
nan

>  <Standardized_SMILES>  (143) 
On1nnc2ccccc21

>  <Name>  (143) 
nan

>  <Pocket>  (143) 
nan

>  <ATP_Site>  (143) 
nan

>  <Peripheral>  (143) 
nan

>  <Num_H_Atoms_ProtBoundConf>  (143) 
nan

>  <Num_Resolved_Atoms>  (143) 
nan

>  <Num_Not_Resolved_Atoms>  (143) 
nan

$$$$
CHEMBL1389807
     RDKit          3D

  0  0  0  0  0  0  0  0  0  0999 V3000
M  V30 BEGIN CTAB
M  V30 COUNTS 51 53 0 0 0
M  V30 BEGIN ATOM
M  V30 1 C -0.511495 -0.098541 5.194077 0
M  V30 2 C 0.141628 -1.011215 4.175915 0
M  V30 3 O 0.697710 -0.222583 3.163506 0
M  V30 4 C 1.678159 0.738177 3.369847 0
M  V30 5 O 2.143350 0.967842 4.515914 0
M  V30 6 C 2.182318 1.500556 2.232372 0
M  V30 7 N 3.144312 2.460905 2.352658 0
M  V30 8 C 3.363548 2.952227 1.117671 0
M  V30 9 C 4.195287 3.919720 0.586102 0
M  V30 10 C 4.244097 4.258258 -0.750584 0
M  V30 11 C 3.382520 3.551726 -1.569879 0
M  V30 12 F 3.398999 3.856598 -2.904157 0
M  V30 13 C 2.508729 2.562758 -1.138577 0
M  V30 14 C 2.542882 2.305669 0.214838 0
M  V30 15 C 1.787639 1.380119 0.915475 0
M  V30 16 N 0.792941 0.449348 0.502793 0
M  V30 17 C 0.884848 -0.894071 0.073151 0
M  V30 18 O 2.055339 -1.383307 0.040219 0
M  V30 19 C -0.337503 -1.602121 -0.291359 0
M  V30 20 C -1.633144 -1.130373 -0.277408 0
M  V30 21 C -2.663362 -1.941927 -0.654990 0
M  V30 22 O -3.938524 -1.442697 -0.629811 0
M  V30 23 C -4.210737 -0.104166 -0.220942 0
M  V30 24 C -2.492491 -3.248504 -1.064406 0
M  V30 25 O -3.545383 -4.067754 -1.446970 0
M  V30 26 C -4.213934 -4.868968 -0.488710 0
M  V30 27 C -1.183325 -3.735435 -1.081862 0
M  V30 28 O -1.022755 -5.051637 -1.495545 0
M  V30 29 C 0.293965 -5.572820 -1.523397 0
M  V30 30 C -0.143155 -2.913304 -0.699736 0
M  V30 31 H -0.999687 0.768944 4.678570 0
M  V30 32 H 0.212563 0.267697 5.932127 0
M  V30 33 H -1.321658 -0.621603 5.760504 0
M  V30 34 H 0.913089 -1.623084 4.668798 0
M  V30 35 H -0.582207 -1.691464 3.700027 0
M  V30 36 H 3.644507 2.787386 3.216153 0
M  V30 37 H 4.868593 4.464152 1.262088 0
M  V30 38 H 4.900699 5.017079 -1.147295 0
M  V30 39 H 1.855968 2.038222 -1.809163 0
M  V30 40 H -0.095971 1.000081 0.586432 0
M  V30 41 H -1.726870 -0.104108 0.048550 0
M  V30 42 H -5.232163 0.201388 -0.549720 0
M  V30 43 H -3.504121 0.607072 -0.732957 0
M  V30 44 H -4.046490 0.019804 0.851127 0
M  V30 45 H -4.582110 -5.820597 -0.922105 0
M  V30 46 H -3.428188 -5.126166 0.273066 0
M  V30 47 H -4.995878 -4.314498 0.075010 0
M  V30 48 H 0.262017 -6.685831 -1.678993 0
M  V30 49 H 0.882047 -5.146371 -2.383387 0
M  V30 50 H 0.827217 -5.406346 -0.578276 0
M  V30 51 H 0.853886 -3.372944 -0.742104 0
M  V30 END ATOM
M  V30 BEGIN BOND
M  V30 1 1 1 2
M  V30 2 1 2 3
M  V30 3 1 3 4
M  V30 4 2 4 5
M  V30 5 1 4 6
M  V30 6 1 6 7
M  V30 7 1 7 8
M  V30 8 2 8 9
M  V30 9 1 9 10
M  V30 10 2 10 11
M  V30 11 1 11 12
M  V30 12 1 11 13
M  V30 13 2 13 14
M  V30 14 1 14 15
M  V30 15 1 15 16
M  V30 16 1 16 17
M  V30 17 2 17 18
M  V30 18 1 17 19
M  V30 19 2 19 20
M  V30 20 1 20 21
M  V30 21 1 21 22
M  V30 22 1 22 23
M  V30 23 2 21 24
M  V30 24 1 24 25
M  V30 25 1 25 26
M  V30 26 1 24 27
M  V30 27 1 27 28
M  V30 28 1 28 29
M  V30 29 2 27 30
M  V30 30 2 15 6
M  V30 31 1 30 19
M  V30 32 1 14 8
M  V30 33 1 1 31
M  V30 34 1 1 32
M  V30 35 1 1 33
M  V30 36 1 2 34
M  V30 37 1 2 35
M  V30 38 1 7 36
M  V30 39 1 9 37
M  V30 40 1 10 38
M  V30 41 1 13 39
M  V30 42 1 16 40
M  V30 43 1 20 41
M  V30 44 1 23 42
M  V30 45 1 23 43
M  V30 46 1 23 44
M  V30 47 1 26 45
M  V30 48 1 26 46
M  V30 49 1 26 47
M  V30 50 1 29 48
M  V30 51 1 29 49
M  V30 52 1 29 50
M  V30 53 1 30 51
M  V30 END BOND
M  V30 END CTAB
M  END
>  <Dataset>  (144) 
ChEMBL_Kinases

>  <Ligand_Instance>  (144) 
nan

>  <PDB_ID>  (144) 
nan

>  <Standardized_SMILES>  (144) 
CCOC(=O)c1[nH]c2ccc(F)cc2c1NC(=O)c1cc(OC)c(OC)c(OC)c1

>  <Name>  (144) 
nan

>  <Pocket>  (144) 
nan

>  <ATP_Site>  (144) 
nan

>  <Peripheral>  (144) 
nan

>  <Num_H_Atoms_ProtBoundConf>  (144) 
nan

>  <Num_Resolved_Atoms>  (144) 
nan

>  <Num_Not_Resolved_Atoms>  (144) 
nan

$$$$
CHEMBL1389776
     RDKit          3D

  0  0  0  0  0  0  0  0  0  0999 V3000
M  V30 BEGIN CTAB
M  V30 COUNTS 57 60 0 0 0
M  V30 BEGIN ATOM
M  V30 1 C 2.145084 -1.471530 -3.709175 0
M  V30 2 N 2.763795 -2.053090 -2.533898 0
M  V30 3 C 1.912339 -1.947525 -1.366595 0
M  V30 4 C 2.778700 -1.895240 -0.137087 0
M  V30 5 N 3.472367 -0.609226 -0.155110 0
M  V30 6 C 3.826290 0.366645 0.848936 0
M  V30 7 C 5.182648 0.568965 0.966259 0
M  V30 8 C 5.702201 1.463315 1.876781 0
M  V30 9 C 4.821558 2.158693 2.676518 0
M  V30 10 C 3.475582 1.920632 2.520494 0
M  V30 11 C 2.915203 1.042748 1.630388 0
M  V30 12 N 1.540852 0.772517 1.441315 0
M  V30 13 C 0.410574 1.309767 2.094718 0
M  V30 14 O 0.619686 2.165053 2.990911 0
M  V30 15 C -0.967809 0.946586 1.806764 0
M  V30 16 C -1.296502 0.039313 0.861273 0
M  V30 17 C -2.593202 -0.320542 0.571407 0
M  V30 18 C -3.657251 0.238179 1.246168 0
M  V30 19 O -4.996011 0.085967 1.182094 0
M  V30 20 C -5.827829 -0.691203 0.417884 0
M  V30 21 C -5.672728 -2.150574 0.516580 0
M  V30 22 C -6.405327 -2.695578 1.580123 0
M  V30 23 C -6.422312 -4.046627 1.861960 0
M  V30 24 C -5.706825 -4.931478 1.095552 0
M  V30 25 C -4.985359 -4.397562 0.048453 0
M  V30 26 C -4.961559 -3.051602 -0.241612 0
M  V30 27 C -3.313876 1.180966 2.228409 0
M  V30 28 C -2.005858 1.526438 2.502056 0
M  V30 29 C 3.932259 -0.168430 -1.480930 0
M  V30 30 C 4.059436 -1.442301 -2.313888 0
M  V30 31 H 2.227722 -2.100338 -4.616829 0
M  V30 32 H 2.638407 -0.500239 -3.954618 0
M  V30 33 H 1.058808 -1.373157 -3.499824 0
M  V30 34 H 1.340547 -1.001788 -1.417778 0
M  V30 35 H 1.241670 -2.831742 -1.273719 0
M  V30 36 H 2.256825 -2.100903 0.807948 0
M  V30 37 H 3.543289 -2.708262 -0.281239 0
M  V30 38 H 5.911482 0.049511 0.363880 0
M  V30 39 H 6.768202 1.623835 1.970935 0
M  V30 40 H 5.198140 2.867580 3.400840 0
M  V30 41 H 2.843413 2.492303 3.171194 0
M  V30 42 H 1.268963 0.079873 0.722255 0
M  V30 43 H -0.589049 -0.487404 0.246814 0
M  V30 44 H -2.899946 -1.024743 -0.162412 0
M  V30 45 H -5.726850 -0.342056 -0.658644 0
M  V30 46 H -6.888984 -0.377941 0.661228 0
M  V30 47 H -7.023166 -2.106133 2.275099 0
M  V30 48 H -6.986256 -4.469280 2.681003 0
M  V30 49 H -5.672736 -5.995673 1.255739 0
M  V30 50 H -4.411600 -5.050523 -0.577049 0
M  V30 51 H -4.423408 -2.584342 -1.048732 0
M  V30 52 H -4.018915 1.728670 2.864899 0
M  V30 53 H -1.734145 2.262631 3.268913 0
M  V30 54 H 4.942782 0.269987 -1.428397 0
M  V30 55 H 3.245187 0.534211 -1.944963 0
M  V30 56 H 4.767517 -2.139974 -1.861108 0
M  V30 57 H 4.437989 -1.141133 -3.301094 0
M  V30 END ATOM
M  V30 BEGIN BOND
M  V30 1 1 1 2
M  V30 2 1 2 3
M  V30 3 1 3 4
M  V30 4 1 4 5
M  V30 5 1 5 6
M  V30 6 2 6 7
M  V30 7 1 7 8
M  V30 8 2 8 9
M  V30 9 1 9 10
M  V30 10 2 10 11
M  V30 11 1 11 12
M  V30 12 1 12 13
M  V30 13 2 13 14
M  V30 14 1 13 15
M  V30 15 2 15 16
M  V30 16 1 16 17
M  V30 17 2 17 18
M  V30 18 1 18 19
M  V30 19 1 19 20
M  V30 20 1 20 21
M  V30 21 2 21 22
M  V30 22 1 22 23
M  V30 23 2 23 24
M  V30 24 1 24 25
M  V30 25 2 25 26
M  V30 26 1 18 27
M  V30 27 2 27 28
M  V30 28 1 5 29
M  V30 29 1 29 30
M  V30 30 1 30 2
M  V30 31 1 11 6
M  V30 32 1 28 15
M  V30 33 1 26 21
M  V30 34 1 1 31
M  V30 35 1 1 32
M  V30 36 1 1 33
M  V30 37 1 3 34
M  V30 38 1 3 35
M  V30 39 1 4 36
M  V30 40 1 4 37
M  V30 41 1 7 38
M  V30 42 1 8 39
M  V30 43 1 9 40
M  V30 44 1 10 41
M  V30 45 1 12 42
M  V30 46 1 16 43
M  V30 47 1 17 44
M  V30 48 1 20 45
M  V30 49 1 20 46
M  V30 50 1 22 47
M  V30 51 1 23 48
M  V30 52 1 24 49
M  V30 53 1 25 50
M  V30 54 1 26 51
M  V30 55 1 27 52
M  V30 56 1 28 53
M  V30 57 1 29 54
M  V30 58 1 29 55
M  V30 59 1 30 56
M  V30 60 1 30 57
M  V30 END BOND
M  V30 END CTAB
M  END
>  <Dataset>  (145) 
ChEMBL_Kinases

>  <Ligand_Instance>  (145) 
nan

>  <PDB_ID>  (145) 
nan

>  <Standardized_SMILES>  (145) 
CN1CCN(c2ccccc2NC(=O)c2ccc(OCc3ccccc3)cc2)CC1

>  <Name>  (145) 
nan

>  <Pocket>  (145) 
nan

>  <ATP_Site>  (145) 
nan

>  <Peripheral>  (145) 
nan

>  <Num_H_Atoms_ProtBoundConf>  (145) 
nan

>  <Num_Resolved_Atoms>  (145) 
nan

>  <Num_Not_Resolved_Atoms>  (145) 
nan

$$$$
CHEMBL1389769
     RDKit          3D

  0  0  0  0  0  0  0  0  0  0999 V3000
M  V30 BEGIN CTAB
M  V30 COUNTS 49 51 0 0 0
M  V30 BEGIN ATOM
M  V30 1 C -0.152885 0.801900 -4.502264 0
M  V30 2 C -0.258531 1.925503 -3.500694 0
M  V30 3 C -1.576379 2.559073 -3.441445 0
M  V30 4 C -1.796400 3.790327 -4.022696 0
M  V30 5 C -3.050570 4.358035 -3.949677 0
M  V30 6 C -4.074668 3.700420 -3.301350 0
M  V30 7 C -3.831848 2.465425 -2.724862 0
M  V30 8 C -2.581909 1.880074 -2.787497 0
M  V30 9 N -2.468935 0.610620 -2.153647 0
M  V30 10 C -2.747512 -0.574786 -2.971810 0
M  V30 11 C -2.105538 0.382414 -0.775563 0
M  V30 12 O -2.028900 -0.780478 -0.297900 0
M  V30 13 C -1.822066 1.570370 0.071481 0
M  V30 14 C -1.446082 1.231668 1.483992 0
M  V30 15 C -0.239983 0.400451 1.560381 0
M  V30 16 N -0.113196 -0.936124 1.557364 0
M  V30 17 C 1.177926 -1.291982 1.643918 0
M  V30 18 C 1.765699 -2.631686 1.672899 0
M  V30 19 C 1.100705 -3.724887 1.123715 0
M  V30 20 C 1.701207 -4.984192 1.175169 0
M  V30 21 C 2.932811 -5.171266 1.754726 0
M  V30 22 C 3.629976 -6.462966 1.848058 0
M  V30 23 C 3.611254 -4.082101 2.309860 0
M  V30 24 C 3.006242 -2.830609 2.254561 0
M  V30 25 N 1.835204 -0.127109 1.699947 0
M  V30 26 O 0.998981 0.865088 1.650591 0
M  V30 27 H -1.010083 0.753464 -5.206279 0
M  V30 28 H 0.739492 0.954311 -5.174385 0
M  V30 29 H -0.071310 -0.200877 -4.035366 0
M  V30 30 H 0.035295 1.469402 -2.511706 0
M  V30 31 H 0.565692 2.652109 -3.701994 0
M  V30 32 H -0.944148 4.261701 -4.522274 0
M  V30 33 H -3.160137 5.329452 -4.426957 0
M  V30 34 H -5.003069 4.250703 -3.314847 0
M  V30 35 H -4.722325 2.058430 -2.247739 0
M  V30 36 H -3.725687 -0.947351 -2.589615 0
M  V30 37 H -2.792814 -0.339535 -4.035761 0
M  V30 38 H -2.001968 -1.368824 -2.785690 0
M  V30 39 H -2.687891 2.239925 0.034350 0
M  V30 40 H -0.915289 2.046332 -0.388490 0
M  V30 41 H -1.234894 2.197530 1.990622 0
M  V30 42 H -2.304405 0.800932 2.057732 0
M  V30 43 H 0.123212 -3.589078 0.661298 0
M  V30 44 H 1.214303 -5.849873 0.760033 0
M  V30 45 H 2.947543 -7.313539 1.649782 0
M  V30 46 H 4.099419 -6.542372 2.835627 0
M  V30 47 H 4.450504 -6.474774 1.086810 0
M  V30 48 H 4.589616 -4.092472 2.797361 0
M  V30 49 H 3.491847 -1.955047 2.670262 0
M  V30 END ATOM
M  V30 BEGIN BOND
M  V30 1 1 1 2
M  V30 2 1 2 3
M  V30 3 2 3 4
M  V30 4 1 4 5
M  V30 5 2 5 6
M  V30 6 1 6 7
M  V30 7 2 7 8
M  V30 8 1 8 9
M  V30 9 1 9 10
M  V30 10 1 9 11
M  V30 11 2 11 12
M  V30 12 1 11 13
M  V30 13 1 13 14
M  V30 14 1 14 15
M  V30 15 2 15 16
M  V30 16 1 16 17
M  V30 17 1 17 18
M  V30 18 2 18 19
M  V30 19 1 19 20
M  V30 20 2 20 21
M  V30 21 1 21 22
M  V30 22 1 21 23
M  V30 23 2 23 24
M  V30 24 2 17 25
M  V30 25 1 25 26
M  V30 26 1 8 3
M  V30 27 1 26 15
M  V30 28 1 24 18
M  V30 29 1 1 27
M  V30 30 1 1 28
M  V30 31 1 1 29
M  V30 32 1 2 30
M  V30 33 1 2 31
M  V30 34 1 4 32
M  V30 35 1 5 33
M  V30 36 1 6 34
M  V30 37 1 7 35
M  V30 38 1 10 36
M  V30 39 1 10 37
M  V30 40 1 10 38
M  V30 41 1 13 39
M  V30 42 1 13 40
M  V30 43 1 14 41
M  V30 44 1 14 42
M  V30 45 1 19 43
M  V30 46 1 20 44
M  V30 47 1 22 45
M  V30 48 1 22 46
M  V30 49 1 22 47
M  V30 50 1 23 48
M  V30 51 1 24 49
M  V30 END BOND
M  V30 END CTAB
M  END
>  <Dataset>  (146) 
ChEMBL_Kinases

>  <Ligand_Instance>  (146) 
nan

>  <PDB_ID>  (146) 
nan

>  <Standardized_SMILES>  (146) 
CCc1ccccc1N(C)C(=O)CCc1nc(-c2ccc(C)cc2)no1

>  <Name>  (146) 
nan

>  <Pocket>  (146) 
nan

>  <ATP_Site>  (146) 
nan

>  <Peripheral>  (146) 
nan

>  <Num_H_Atoms_ProtBoundConf>  (146) 
nan

>  <Num_Resolved_Atoms>  (146) 
nan

>  <Num_Not_Resolved_Atoms>  (146) 
nan

$$$$
CHEMBL1389726
     RDKit          3D

  0  0  0  0  0  0  0  0  0  0999 V3000
M  V30 BEGIN CTAB
M  V30 COUNTS 57 61 0 0 0
M  V30 BEGIN ATOM
M  V30 1 C 1.652233 2.465843 5.860735 0
M  V30 2 N 2.278277 2.330708 4.564525 0
M  V30 3 C 3.295313 1.376508 4.290922 0
M  V30 4 C 4.676234 1.534710 4.419286 0
M  V30 5 C 5.488112 0.447766 4.088891 0
M  V30 6 C 4.951649 -0.726296 3.656393 0
M  V30 7 C 3.576386 -0.924211 3.514658 0
M  V30 8 C 2.776943 0.163063 3.845819 0
M  V30 9 S 1.784575 3.365394 3.269281 0
M  V30 10 O 2.640494 3.200748 2.072274 0
M  V30 11 O 1.948740 4.777942 3.776983 0
M  V30 12 C 0.073520 3.102379 2.911040 0
M  V30 13 C -0.888404 3.852259 3.563357 0
M  V30 14 C -2.209926 3.637615 3.276383 0
M  V30 15 C -2.631412 2.712188 2.370450 0
M  V30 16 Cl -4.271413 2.329343 1.903883 0
M  V30 17 C -1.689991 1.953350 1.708406 0
M  V30 18 C -1.859466 0.893583 0.692693 0
M  V30 19 O -1.323537 1.167312 -0.425419 0
M  V30 20 N -2.540945 -0.344912 0.862802 0
M  V30 21 C -2.531359 -1.158757 -0.304704 0
M  V30 22 C -1.402404 -1.980493 -0.287589 0
M  V30 23 C -1.167914 -2.879503 -1.337121 0
M  V30 24 C -2.082304 -2.922125 -2.374915 0
M  V30 25 C -1.885469 -3.846919 -3.506728 0
M  V30 26 N -0.841782 -4.686464 -3.628346 0
M  V30 27 C -0.925072 -5.405317 -4.759556 0
M  V30 28 C -0.119760 -6.387791 -5.339771 0
M  V30 29 C -0.476842 -6.959272 -6.544998 0
M  V30 30 C -1.638889 -6.555615 -7.180332 0
M  V30 31 C -2.427413 -5.573324 -6.582868 0
M  V30 32 C -2.083458 -4.992937 -5.378543 0
M  V30 33 N -2.647867 -4.047258 -4.599003 0
M  V30 34 C -3.215392 -2.099409 -2.394910 0
M  V30 35 C -3.428014 -1.220316 -1.350987 0
M  V30 36 C -0.330742 2.148119 1.978736 0
M  V30 37 H 0.595601 2.127380 5.725024 0
M  V30 38 H 1.702418 3.517672 6.167838 0
M  V30 39 H 2.200868 1.840412 6.593657 0
M  V30 40 H 4.971297 2.509144 4.770231 0
M  V30 41 H 6.526177 0.652015 4.214640 0
M  V30 42 H 5.625750 -1.536875 3.413580 0
M  V30 43 H 3.195015 -1.856813 3.173411 0
M  V30 44 H 1.715400 -0.046424 3.717071 0
M  V30 45 H -0.620426 4.602249 4.292989 0
M  V30 46 H -3.014905 4.193333 3.754114 0
M  V30 47 H -2.931749 -0.425309 1.842889 0
M  V30 48 H -0.626395 -2.036182 0.460245 0
M  V30 49 H -0.315666 -3.542911 -1.386094 0
M  V30 50 H 0.790984 -6.674152 -4.798734 0
M  V30 51 H 0.171831 -7.718643 -6.965698 0
M  V30 52 H -1.866466 -7.039320 -8.122010 0
M  V30 53 H -3.336616 -5.268701 -7.095907 0
M  V30 54 H -3.547183 -3.532548 -4.796836 0
M  V30 55 H -3.952025 -2.102064 -3.185380 0
M  V30 56 H -4.249777 -0.532550 -1.234019 0
M  V30 57 H 0.505182 1.608625 1.518356 0
M  V30 END ATOM
M  V30 BEGIN BOND
M  V30 1 1 1 2
M  V30 2 1 2 3
M  V30 3 2 3 4
M  V30 4 1 4 5
M  V30 5 2 5 6
M  V30 6 1 6 7
M  V30 7 2 7 8
M  V30 8 1 2 9
M  V30 9 2 9 10
M  V30 10 2 9 11
M  V30 11 1 9 12
M  V30 12 2 12 13
M  V30 13 1 13 14
M  V30 14 2 14 15
M  V30 15 1 15 16
M  V30 16 1 15 17
M  V30 17 1 17 18
M  V30 18 2 18 19
M  V30 19 1 18 20
M  V30 20 1 20 21
M  V30 21 2 21 22
M  V30 22 1 22 23
M  V30 23 2 23 24
M  V30 24 1 24 25
M  V30 25 2 25 26
M  V30 26 1 26 27
M  V30 27 2 27 28
M  V30 28 1 28 29
M  V30 29 2 29 30
M  V30 30 1 30 31
M  V30 31 2 31 32
M  V30 32 1 32 33
M  V30 33 1 24 34
M  V30 34 2 34 35
M  V30 35 2 17 36
M  V30 36 1 8 3
M  V30 37 1 36 12
M  V30 38 1 35 21
M  V30 39 1 33 25
M  V30 40 1 32 27
M  V30 41 1 1 37
M  V30 42 1 1 38
M  V30 43 1 1 39
M  V30 44 1 4 40
M  V30 45 1 5 41
M  V30 46 1 6 42
M  V30 47 1 7 43
M  V30 48 1 8 44
M  V30 49 1 13 45
M  V30 50 1 14 46
M  V30 51 1 20 47
M  V30 52 1 22 48
M  V30 53 1 23 49
M  V30 54 1 28 50
M  V30 55 1 29 51
M  V30 56 1 30 52
M  V30 57 1 31 53
M  V30 58 1 33 54
M  V30 59 1 34 55
M  V30 60 1 35 56
M  V30 61 1 36 57
M  V30 END BOND
M  V30 END CTAB
M  END
>  <Dataset>  (147) 
ChEMBL_Kinases

>  <Ligand_Instance>  (147) 
nan

>  <PDB_ID>  (147) 
nan

>  <Standardized_SMILES>  (147) 
CN(c1ccccc1)S(=O)(=O)c1ccc(Cl)c(C(=O)Nc2ccc(-c3nc4ccccc4[nH]3)cc2)c1

>  <Name>  (147) 
nan

>  <Pocket>  (147) 
nan

>  <ATP_Site>  (147) 
nan

>  <Peripheral>  (147) 
nan

>  <Num_H_Atoms_ProtBoundConf>  (147) 
nan

>  <Num_Resolved_Atoms>  (147) 
nan

>  <Num_Not_Resolved_Atoms>  (147) 
nan

$$$$
CHEMBL1389592
     RDKit          3D

  0  0  0  0  0  0  0  0  0  0999 V3000
M  V30 BEGIN CTAB
M  V30 COUNTS 50 53 0 0 0
M  V30 BEGIN ATOM
M  V30 1 C 2.368819 -6.597004 0.454738 0
M  V30 2 C 1.182209 -6.797663 1.168761 0
M  V30 3 C 0.265533 -5.742680 1.255387 0
M  V30 4 C 0.550138 -4.539658 0.639979 0
M  V30 5 C -0.411775 -3.446556 0.735730 0
M  V30 6 N -0.150674 -2.270041 0.143023 0
M  V30 7 C -0.941282 -1.203963 0.155552 0
M  V30 8 N -0.529203 -0.011566 -0.523528 0
M  V30 9 C 0.738893 0.004851 -1.208413 0
M  V30 10 C 1.097309 1.335353 -1.766589 0
M  V30 11 C 1.365257 2.480901 -0.875849 0
M  V30 12 N 0.431064 2.968472 0.058868 0
M  V30 13 C 0.874636 4.357651 0.419185 0
M  V30 14 C 1.845510 4.276611 1.523238 0
M  V30 15 O 2.579285 3.131709 1.669582 0
M  V30 16 C 1.809743 1.987385 1.790144 0
M  V30 17 C 0.418718 2.334167 1.371996 0
M  V30 18 C -2.118873 -1.343236 0.839319 0
M  V30 19 C -2.988475 -0.292830 0.900544 0
M  V30 20 C -4.183209 -0.397490 1.580357 0
M  V30 21 C -4.521224 -1.590895 2.220980 0
M  V30 22 C -3.636709 -2.654820 2.157220 0
M  V30 23 C -2.446390 -2.538424 1.474834 0
M  V30 24 N -1.570606 -3.577902 1.406414 0
M  V30 25 C 1.714842 -4.346038 -0.060010 0
M  V30 26 C 2.645397 -5.385280 -0.159799 0
M  V30 27 H 3.061401 -7.422721 0.400910 0
M  V30 28 H 0.991276 -7.766650 1.643299 0
M  V30 29 H -0.656518 -5.907033 1.814719 0
M  V30 30 H -1.069946 0.872717 -0.590604 0
M  V30 31 H 1.563005 -0.322440 -0.498081 0
M  V30 32 H 0.763724 -0.800576 -1.998010 0
M  V30 33 H 0.318669 1.615234 -2.562422 0
M  V30 34 H 2.010322 1.134859 -2.442743 0
M  V30 35 H 1.619496 3.362306 -1.583802 0
M  V30 36 H 2.383328 2.282197 -0.424278 0
M  V30 37 H 1.242823 4.865054 -0.496470 0
M  V30 38 H -0.048008 4.853863 0.772646 0
M  V30 39 H 1.433008 4.604666 2.516547 0
M  V30 40 H 2.621539 5.089987 1.317451 0
M  V30 41 H 1.764974 1.638381 2.864262 0
M  V30 42 H 2.232019 1.148623 1.240601 0
M  V30 43 H 0.102950 3.163769 2.104108 0
M  V30 44 H -0.344500 1.584758 1.536347 0
M  V30 45 H -2.778199 0.639437 0.428045 0
M  V30 46 H -4.860737 0.446629 1.618038 0
M  V30 47 H -5.459592 -1.610692 2.731174 0
M  V30 48 H -3.892598 -3.581612 2.651544 0
M  V30 49 H 1.938821 -3.415197 -0.537975 0
M  V30 50 H 3.575332 -5.258055 -0.707710 0
M  V30 END ATOM
M  V30 BEGIN BOND
M  V30 1 2 1 2
M  V30 2 1 2 3
M  V30 3 2 3 4
M  V30 4 1 4 5
M  V30 5 2 5 6
M  V30 6 1 6 7
M  V30 7 1 7 8
M  V30 8 1 8 9
M  V30 9 1 9 10
M  V30 10 1 10 11
M  V30 11 1 11 12
M  V30 12 1 12 13
M  V30 13 1 13 14
M  V30 14 1 14 15
M  V30 15 1 15 16
M  V30 16 1 16 17
M  V30 17 2 7 18
M  V30 18 1 18 19
M  V30 19 2 19 20
M  V30 20 1 20 21
M  V30 21 2 21 22
M  V30 22 1 22 23
M  V30 23 2 23 24
M  V30 24 1 4 25
M  V30 25 2 25 26
M  V30 26 1 26 1
M  V30 27 1 24 5
M  V30 28 1 17 12
M  V30 29 1 23 18
M  V30 30 1 1 27
M  V30 31 1 2 28
M  V30 32 1 3 29
M  V30 33 1 8 30
M  V30 34 1 9 31
M  V30 35 1 9 32
M  V30 36 1 10 33
M  V30 37 1 10 34
M  V30 38 1 11 35
M  V30 39 1 11 36
M  V30 40 1 13 37
M  V30 41 1 13 38
M  V30 42 1 14 39
M  V30 43 1 14 40
M  V30 44 1 16 41
M  V30 45 1 16 42
M  V30 46 1 17 43
M  V30 47 1 17 44
M  V30 48 1 19 45
M  V30 49 1 20 46
M  V30 50 1 21 47
M  V30 51 1 22 48
M  V30 52 1 25 49
M  V30 53 1 26 50
M  V30 END BOND
M  V30 END CTAB
M  END
>  <Dataset>  (148) 
ChEMBL_Kinases

>  <Ligand_Instance>  (148) 
nan

>  <PDB_ID>  (148) 
nan

>  <Standardized_SMILES>  (148) 
c1ccc(-c2nc(NCCCN3CCOCC3)c3ccccc3n2)cc1

>  <Name>  (148) 
nan

>  <Pocket>  (148) 
nan

>  <ATP_Site>  (148) 
nan

>  <Peripheral>  (148) 
nan

>  <Num_H_Atoms_ProtBoundConf>  (148) 
nan

>  <Num_Resolved_Atoms>  (148) 
nan

>  <Num_Not_Resolved_Atoms>  (148) 
nan

$$$$
CHEMBL1389547
     RDKit          3D

  0  0  0  0  0  0  0  0  0  0999 V3000
M  V30 BEGIN CTAB
M  V30 COUNTS 31 34 0 0 0
M  V30 BEGIN ATOM
M  V30 1 C -2.827093 -3.280358 3.803976 0
M  V30 2 C -1.618502 -3.903274 4.025764 0
M  V30 3 C -0.504877 -3.493416 3.360356 0
M  V30 4 C -0.479100 -2.449456 2.430412 0
M  V30 5 N 0.705824 -2.084088 1.784933 0
M  V30 6 C 0.888127 -1.054399 0.825046 0
M  V30 7 N -0.051069 -0.226486 0.348778 0
M  V30 8 C 0.176464 0.725854 -0.555029 0
M  V30 9 C -0.870455 1.520688 -0.972726 0
M  V30 10 C -0.695783 2.521845 -1.905289 0
M  V30 11 C 0.596251 2.660144 -2.379198 0
M  V30 12 C 1.678160 1.875109 -1.979691 0
M  V30 13 C 1.452536 0.888262 -1.045906 0
M  V30 14 N 2.424903 0.098371 -0.612282 0
M  V30 15 C 3.706309 0.087606 -0.951532 0
M  V30 16 N 4.274914 -0.905102 -0.228728 0
M  V30 17 N 3.328629 -1.454461 0.514468 0
M  V30 18 C 2.136800 -0.830630 0.287379 0
M  V30 19 C -1.721710 -1.879931 2.265085 0
M  V30 20 C -2.884045 -2.248184 2.906967 0
M  V30 21 H -3.664007 -3.656164 4.363969 0
M  V30 22 H -1.551120 -4.731637 4.739749 0
M  V30 23 H 0.426372 -4.025320 3.577156 0
M  V30 24 H 1.551645 -2.638554 2.044917 0
M  V30 25 H -1.868709 1.381609 -0.578092 0
M  V30 26 H -1.456797 3.187587 -2.286680 0
M  V30 27 H 0.787227 3.433603 -3.114909 0
M  V30 28 H 2.653031 2.054422 -2.403546 0
M  V30 29 H 4.225872 0.724146 -1.655657 0
M  V30 30 H -1.838960 -1.064868 1.576429 0
M  V30 31 H -3.826202 -1.757229 2.729341 0
M  V30 END ATOM
M  V30 BEGIN BOND
M  V30 1 2 1 2
M  V30 2 1 2 3
M  V30 3 2 3 4
M  V30 4 1 4 5
M  V30 5 1 5 6
M  V30 6 2 6 7
M  V30 7 1 7 8
M  V30 8 2 8 9
M  V30 9 1 9 10
M  V30 10 2 10 11
M  V30 11 1 11 12
M  V30 12 2 12 13
M  V30 13 1 13 14
M  V30 14 1 14 15
M  V30 15 2 15 16
M  V30 16 1 16 17
M  V30 17 2 17 18
M  V30 18 1 4 19
M  V30 19 2 19 20
M  V30 20 1 20 1
M  V30 21 1 18 6
M  V30 22 1 13 8
M  V30 23 1 18 14
M  V30 24 1 1 21
M  V30 25 1 2 22
M  V30 26 1 3 23
M  V30 27 1 5 24
M  V30 28 1 9 25
M  V30 29 1 10 26
M  V30 30 1 11 27
M  V30 31 1 12 28
M  V30 32 1 15 29
M  V30 33 1 19 30
M  V30 34 1 20 31
M  V30 END BOND
M  V30 END CTAB
M  END
>  <Dataset>  (149) 
ChEMBL_Kinases

>  <Ligand_Instance>  (149) 
nan

>  <PDB_ID>  (149) 
nan

>  <Standardized_SMILES>  (149) 
c1ccc(Nc2nc3ccccc3n3cnnc23)cc1

>  <Name>  (149) 
nan

>  <Pocket>  (149) 
nan

>  <ATP_Site>  (149) 
nan

>  <Peripheral>  (149) 
nan

>  <Num_H_Atoms_ProtBoundConf>  (149) 
nan

>  <Num_Resolved_Atoms>  (149) 
nan

>  <Num_Not_Resolved_Atoms>  (149) 
nan

$$$$
CHEMBL1389446
     RDKit          3D

  0  0  0  0  0  0  0  0  0  0999 V3000
M  V30 BEGIN CTAB
M  V30 COUNTS 40 43 0 0 0
M  V30 BEGIN ATOM
M  V30 1 C 1.014281 -5.984807 2.291027 0
M  V30 2 C 1.512695 -5.223030 1.092539 0
M  V30 3 C 1.139518 -3.961997 0.608548 0
M  V30 4 C 1.906861 -3.718542 -0.538646 0
M  V30 5 N 1.606198 -2.453094 -1.114753 0
M  V30 6 C 2.450533 -1.461512 -0.557226 0
M  V30 7 O 3.334526 -1.736286 0.325772 0
M  V30 8 C 2.406658 -0.031052 -0.922793 0
M  V30 9 C 3.165028 0.815740 -1.715148 0
M  V30 10 N 2.628233 2.044751 -1.663450 0
M  V30 11 N 1.560926 2.051066 -0.881788 0
M  V30 12 C 0.681924 3.025212 -0.507152 0
M  V30 13 C 0.903151 4.398029 -1.056482 0
M  V30 14 F 2.119531 4.921121 -0.627280 0
M  V30 15 F 0.856033 4.413107 -2.442283 0
M  V30 16 C -0.380345 2.769150 0.344512 0
M  V30 17 C -0.514247 1.480125 0.801516 0
M  V30 18 C -1.577427 1.052167 1.695215 0
M  V30 19 C -1.629012 -0.267852 2.092023 0
M  V30 20 C -2.588712 -0.804600 2.939790 0
M  V30 21 C -3.573259 0.030769 3.433964 0
M  V30 22 C -3.517390 1.348725 3.033958 0
M  V30 23 C -2.571957 1.893779 2.193576 0
M  V30 24 N 0.368127 0.542327 0.414605 0
M  V30 25 C 1.399161 0.804246 -0.415812 0
M  V30 26 N 2.682260 -4.812783 -0.684687 0
M  V30 27 O 2.449500 -5.666221 0.252257 0
M  V30 28 H 1.756073 -6.742347 2.536256 0
M  V30 29 H 0.937451 -5.267941 3.148178 0
M  V30 30 H -0.007316 -6.370950 2.124269 0
M  V30 31 H 0.370318 -3.444011 1.190885 0
M  V30 32 H 0.909876 -2.163033 -1.833355 0
M  V30 33 H 4.023771 0.389581 -2.228881 0
M  V30 34 H 0.113852 5.073475 -0.679721 0
M  V30 35 H -1.083149 3.538996 0.650546 0
M  V30 36 H -0.883388 -1.002289 1.749676 0
M  V30 37 H -2.575445 -1.852347 3.212824 0
M  V30 38 H -4.316241 -0.387755 4.099383 0
M  V30 39 H -4.315409 1.983991 3.443655 0
M  V30 40 H -2.559710 2.927647 1.900312 0
M  V30 END ATOM
M  V30 BEGIN BOND
M  V30 1 1 1 2
M  V30 2 2 2 3
M  V30 3 1 3 4
M  V30 4 1 4 5
M  V30 5 1 5 6
M  V30 6 2 6 7
M  V30 7 1 6 8
M  V30 8 1 8 9
M  V30 9 2 9 10
M  V30 10 1 10 11
M  V30 11 1 11 12
M  V30 12 1 12 13
M  V30 13 1 13 14
M  V30 14 1 13 15
M  V30 15 2 12 16
M  V30 16 1 16 17
M  V30 17 1 17 18
M  V30 18 2 18 19
M  V30 19 1 19 20
M  V30 20 2 20 21
M  V30 21 1 21 22
M  V30 22 2 22 23
M  V30 23 2 17 24
M  V30 24 1 24 25
M  V30 25 2 4 26
M  V30 26 1 26 27
M  V30 27 1 27 2
M  V30 28 2 25 8
M  V30 29 1 25 11
M  V30 30 1 23 18
M  V30 31 1 1 28
M  V30 32 1 1 29
M  V30 33 1 1 30
M  V30 34 1 3 31
M  V30 35 1 5 32
M  V30 36 1 9 33
M  V30 37 1 13 34
M  V30 38 1 16 35
M  V30 39 1 19 36
M  V30 40 1 20 37
M  V30 41 1 21 38
M  V30 42 1 22 39
M  V30 43 1 23 40
M  V30 END BOND
M  V30 END CTAB
M  END
>  <Dataset>  (150) 
ChEMBL_Kinases

>  <Ligand_Instance>  (150) 
nan

>  <PDB_ID>  (150) 
nan

>  <Standardized_SMILES>  (150) 
Cc1cc(NC(=O)c2cnn3c(C(F)F)cc(-c4ccccc4)nc23)no1

>  <Name>  (150) 
nan

>  <Pocket>  (150) 
nan

>  <ATP_Site>  (150) 
nan

>  <Peripheral>  (150) 
nan

>  <Num_H_Atoms_ProtBoundConf>  (150) 
nan

>  <Num_Resolved_Atoms>  (150) 
nan

>  <Num_Not_Resolved_Atoms>  (150) 
nan

$$$$
CHEMBL1389407
     RDKit          3D

  0  0  0  0  0  0  0  0  0  0999 V3000
M  V30 BEGIN CTAB
M  V30 COUNTS 54 56 0 0 0
M  V30 BEGIN ATOM
M  V30 1 C 1.561478 -0.239725 4.440310 0
M  V30 2 O 2.000828 0.701733 3.472918 0
M  V30 3 C 3.312219 1.201230 3.519114 0
M  V30 4 C 4.272575 0.854123 4.458095 0
M  V30 5 C 5.500623 1.432733 4.360606 0
M  V30 6 C 5.860879 2.344006 3.390500 0
M  V30 7 C 4.887433 2.675502 2.464551 0
M  V30 8 C 3.625161 2.107614 2.530671 0
M  V30 9 N 2.776682 2.583104 1.486717 0
M  V30 10 C 1.910013 3.740746 1.545043 0
M  V30 11 S 2.777656 1.696331 0.004649 0
M  V30 12 O 3.160842 2.662138 -1.108044 0
M  V30 13 O 3.843063 0.622904 -0.002555 0
M  V30 14 C 1.218226 1.030697 -0.378586 0
M  V30 15 C 0.933685 -0.246284 0.098389 0
M  V30 16 C -0.271661 -0.852929 -0.154196 0
M  V30 17 C -1.251838 -0.221209 -0.892064 0
M  V30 18 C -2.571568 -0.735302 -1.239632 0
M  V30 19 O -3.441483 -0.121225 -1.919767 0
M  V30 20 N -2.949095 -2.023751 -0.798837 0
M  V30 21 C -4.188297 -2.759438 -1.005458 0
M  V30 22 C -4.822408 -2.986308 0.343710 0
M  V30 23 C -3.971792 -4.015330 -1.758491 0
M  V30 24 C -4.787915 -4.410856 -2.800310 0
M  V30 25 C -4.601431 -5.580044 -3.515076 0
M  V30 26 C -3.544536 -6.404823 -3.177293 0
M  V30 27 C -2.702137 -6.066203 -2.154611 0
M  V30 28 C -2.932149 -4.887448 -1.472217 0
M  V30 29 C -0.985362 1.062139 -1.380144 0
M  V30 30 C 0.245051 1.666135 -1.115081 0
M  V30 31 H 0.461683 -0.280207 4.457009 0
M  V30 32 H 2.007624 -1.235926 4.303724 0
M  V30 33 H 1.882476 0.115252 5.456528 0
M  V30 34 H 3.968749 0.139171 5.208208 0
M  V30 35 H 6.210681 1.117639 5.129074 0
M  V30 36 H 6.874946 2.724995 3.432904 0
M  V30 37 H 5.222909 3.402599 1.715423 0
M  V30 38 H 2.168326 4.368197 0.662730 0
M  V30 39 H 2.091659 4.351944 2.453341 0
M  V30 40 H 0.851582 3.443877 1.422402 0
M  V30 41 H 1.647349 -0.806570 0.683111 0
M  V30 42 H -0.532391 -1.841978 0.197160 0
M  V30 43 H -2.351389 -2.660844 -0.229690 0
M  V30 44 H -4.860830 -2.110836 -1.613429 0
M  V30 45 H -5.677418 -3.690728 0.280901 0
M  V30 46 H -4.140316 -3.344471 1.109957 0
M  V30 47 H -5.206624 -1.976582 0.672527 0
M  V30 48 H -5.624896 -3.792418 -3.094075 0
M  V30 49 H -5.252141 -5.880268 -4.334288 0
M  V30 50 H -3.412080 -7.323554 -3.751758 0
M  V30 51 H -1.868171 -6.718426 -1.889144 0
M  V30 52 H -2.245935 -4.650434 -0.668510 0
M  V30 53 H -1.691043 1.646844 -1.972855 0
M  V30 54 H 0.501465 2.649012 -1.465459 0
M  V30 END ATOM
M  V30 BEGIN BOND
M  V30 1 1 1 2
M  V30 2 1 2 3
M  V30 3 2 3 4
M  V30 4 1 4 5
M  V30 5 2 5 6
M  V30 6 1 6 7
M  V30 7 2 7 8
M  V30 8 1 8 9
M  V30 9 1 9 10
M  V30 10 1 9 11
M  V30 11 2 11 12
M  V30 12 2 11 13
M  V30 13 1 11 14
M  V30 14 2 14 15
M  V30 15 1 15 16
M  V30 16 2 16 17
M  V30 17 1 17 18
M  V30 18 2 18 19
M  V30 19 1 18 20
M  V30 20 1 20 21
M  V30 21 1 21 22
M  V30 22 1 21 23
M  V30 23 2 23 24
M  V30 24 1 24 25
M  V30 25 2 25 26
M  V30 26 1 26 27
M  V30 27 2 27 28
M  V30 28 1 17 29
M  V30 29 2 29 30
M  V30 30 1 8 3
M  V30 31 1 30 14
M  V30 32 1 28 23
M  V30 33 1 1 31
M  V30 34 1 1 32
M  V30 35 1 1 33
M  V30 36 1 4 34
M  V30 37 1 5 35
M  V30 38 1 6 36
M  V30 39 1 7 37
M  V30 40 1 10 38
M  V30 41 1 10 39
M  V30 42 1 10 40
M  V30 43 1 15 41
M  V30 44 1 16 42
M  V30 45 1 20 43
M  V30 46 1 21 44
M  V30 47 1 22 45
M  V30 48 1 22 46
M  V30 49 1 22 47
M  V30 50 1 24 48
M  V30 51 1 25 49
M  V30 52 1 26 50
M  V30 53 1 27 51
M  V30 54 1 28 52
M  V30 55 1 29 53
M  V30 56 1 30 54
M  V30 END BOND
M  V30 END CTAB
M  END
>  <Dataset>  (151) 
ChEMBL_Kinases

>  <Ligand_Instance>  (151) 
nan

>  <PDB_ID>  (151) 
nan

>  <Standardized_SMILES>  (151) 
COc1ccccc1N(C)S(=O)(=O)c1ccc(C(=O)NC(C)c2ccccc2)cc1

>  <Name>  (151) 
nan

>  <Pocket>  (151) 
nan

>  <ATP_Site>  (151) 
nan

>  <Peripheral>  (151) 
nan

>  <Num_H_Atoms_ProtBoundConf>  (151) 
nan

>  <Num_Resolved_Atoms>  (151) 
nan

>  <Num_Not_Resolved_Atoms>  (151) 
nan

$$$$
CHEMBL1389377
     RDKit          3D

  0  0  0  0  0  0  0  0  0  0999 V3000
M  V30 BEGIN CTAB
M  V30 COUNTS 39 40 0 0 0
M  V30 BEGIN ATOM
M  V30 1 C -1.192950 -5.096984 5.450773 0
M  V30 2 C -1.196191 -4.029579 4.399914 0
M  V30 3 O -2.118191 -3.288980 3.984084 0
M  V30 4 N 0.039433 -3.763482 3.716929 0
M  V30 5 C 0.226736 -2.791497 2.694911 0
M  V30 6 C 0.041335 -3.116375 1.368382 0
M  V30 7 C 0.237225 -2.134880 0.421892 0
M  V30 8 C 0.608094 -0.834454 0.681780 0
M  V30 9 N 0.799078 0.140518 -0.332676 0
M  V30 10 C 0.629026 -0.041594 -1.752432 0
M  V30 11 C -0.284560 0.985463 -2.389333 0
M  V30 12 C 0.009330 2.376578 -1.903152 0
M  V30 13 C 0.060282 3.368595 -3.039023 0
M  V30 14 C 1.344785 2.346503 -1.223873 0
M  V30 15 C 1.207379 1.470223 0.018684 0
M  V30 16 C 0.775689 -0.578883 2.021312 0
M  V30 17 N 1.158442 0.714001 2.472146 0 CHG=1 VAL=4
M  V30 18 O 0.849945 1.270382 3.545032 0
M  V30 19 O 0.711198 1.153350 3.697237 0 CHG=-1 VAL=1
M  V30 20 C 0.598096 -1.502694 3.006188 0
M  V30 21 H -0.804641 -6.060205 5.082034 0
M  V30 22 H -2.249853 -5.160163 5.811506 0
M  V30 23 H -0.582896 -4.780990 6.332351 0
M  V30 24 H 0.903917 -4.324477 3.975307 0
M  V30 25 H -0.249998 -4.128572 1.128438 0
M  V30 26 H 0.069785 -2.481888 -0.587072 0
M  V30 27 H 0.144108 -1.030017 -1.975167 0
M  V30 28 H 1.615878 -0.110268 -2.298024 0
M  V30 29 H -1.353627 0.693242 -2.317510 0
M  V30 30 H -0.042043 0.987659 -3.490153 0
M  V30 31 H -0.755721 2.734199 -1.179242 0
M  V30 32 H -0.682887 3.163692 -3.839145 0
M  V30 33 H -0.148310 4.378954 -2.595326 0
M  V30 34 H 1.099246 3.446902 -3.454029 0
M  V30 35 H 1.730653 3.345231 -0.971772 0
M  V30 36 H 2.061009 1.830352 -1.893095 0
M  V30 37 H 2.201876 1.530943 0.515336 0
M  V30 38 H 0.394736 1.969753 0.617009 0
M  V30 39 H 0.731552 -1.291361 4.045891 0
M  V30 END ATOM
M  V30 BEGIN BOND
M  V30 1 1 1 2
M  V30 2 2 2 3
M  V30 3 1 2 4
M  V30 4 1 4 5
M  V30 5 2 5 6
M  V30 6 1 6 7
M  V30 7 2 7 8
M  V30 8 1 8 9
M  V30 9 1 9 10
M  V30 10 1 10 11
M  V30 11 1 11 12
M  V30 12 1 12 13
M  V30 13 1 12 14
M  V30 14 1 14 15
M  V30 15 1 8 16
M  V30 16 1 16 17
M  V30 17 2 17 18
M  V30 18 1 17 19
M  V30 19 2 16 20
M  V30 20 1 20 5
M  V30 21 1 15 9
M  V30 22 1 1 21
M  V30 23 1 1 22
M  V30 24 1 1 23
M  V30 25 1 4 24
M  V30 26 1 6 25
M  V30 27 1 7 26
M  V30 28 1 10 27
M  V30 29 1 10 28
M  V30 30 1 11 29
M  V30 31 1 11 30
M  V30 32 1 12 31
M  V30 33 1 13 32
M  V30 34 1 13 33
M  V30 35 1 13 34
M  V30 36 1 14 35
M  V30 37 1 14 36
M  V30 38 1 15 37
M  V30 39 1 15 38
M  V30 40 1 20 39
M  V30 END BOND
M  V30 END CTAB
M  END
>  <Dataset>  (152) 
ChEMBL_Kinases

>  <Ligand_Instance>  (152) 
nan

>  <PDB_ID>  (152) 
nan

>  <Standardized_SMILES>  (152) 
CC(=O)Nc1ccc(N2CCC(C)CC2)c([N+](=O)[O-])c1

>  <Name>  (152) 
nan

>  <Pocket>  (152) 
nan

>  <ATP_Site>  (152) 
nan

>  <Peripheral>  (152) 
nan

>  <Num_H_Atoms_ProtBoundConf>  (152) 
nan

>  <Num_Resolved_Atoms>  (152) 
nan

>  <Num_Not_Resolved_Atoms>  (152) 
nan

$$$$
CHEMBL1388947
     RDKit          3D

  0  0  0  0  0  0  0  0  0  0999 V3000
M  V30 BEGIN CTAB
M  V30 COUNTS 40 42 0 0 0
M  V30 BEGIN ATOM
M  V30 1 C -0.435617 -6.140832 0.333463 0
M  V30 2 C -0.116927 -4.702580 0.010284 0
M  V30 3 O -0.374643 -4.442260 -1.370609 0
M  V30 4 C -0.145036 -3.183958 -1.877281 0
M  V30 5 O 0.246819 -2.720366 -0.773522 0
M  V30 6 C 0.113295 -1.824931 -2.381286 0
M  V30 7 C 0.602803 -0.883159 -1.340799 0
M  V30 8 C -0.426857 -0.460308 -0.517209 0
M  V30 9 C -1.871639 -0.824177 -0.561781 0
M  V30 10 N -0.167951 0.410679 0.501567 0
M  V30 11 C 1.089341 0.855977 0.702132 0
M  V30 12 C 1.656184 1.722497 1.628053 0
M  V30 13 C 0.832380 2.369140 2.670306 0
M  V30 14 C 1.192667 2.456837 4.001371 0
M  V30 15 C 0.314964 3.097866 4.877433 0
M  V30 16 C -0.884489 3.634779 4.441615 0
M  V30 17 C -1.254314 3.552119 3.111631 0
M  V30 18 Br -2.909437 4.293244 2.510847 0
M  V30 19 C -0.368693 2.908477 2.242301 0
M  V30 20 C 3.009821 1.804123 1.345856 0
M  V30 21 N 3.248239 1.002564 0.272424 0
M  V30 22 N 2.087567 0.443089 -0.099731 0
M  V30 23 C 1.877587 -0.413627 -1.114852 0
M  V30 24 O 2.824988 -0.902748 -1.997979 0
M  V30 25 H -0.561640 -6.239004 1.444532 0
M  V30 26 H -1.404390 -6.407673 -0.156409 0
M  V30 27 H 0.411998 -6.769059 0.016216 0
M  V30 28 H 0.959007 -4.554829 0.235000 0
M  V30 29 H -0.716420 -4.013510 0.656040 0
M  V30 30 H 0.972558 -1.921568 -3.105834 0
M  V30 31 H -0.761641 -1.407964 -2.932627 0
M  V30 32 H -2.231208 -1.184838 0.418505 0
M  V30 33 H -2.120793 -1.456518 -1.412358 0
M  V30 34 H -2.396527 0.153791 -0.749412 0
M  V30 35 H 2.135131 2.025563 4.298413 0
M  V30 36 H 0.586758 3.172382 5.922096 0
M  V30 37 H -1.573783 4.134089 5.110879 0
M  V30 38 H -0.714234 2.871838 1.198927 0
M  V30 39 H 3.688647 2.416613 1.922224 0
M  V30 40 H 3.788966 -0.720206 -1.774599 0
M  V30 END ATOM
M  V30 BEGIN BOND
M  V30 1 1 1 2
M  V30 2 1 2 3
M  V30 3 1 3 4
M  V30 4 2 4 5
M  V30 5 1 4 6
M  V30 6 1 6 7
M  V30 7 1 7 8
M  V30 8 1 8 9
M  V30 9 2 8 10
M  V30 10 1 10 11
M  V30 11 2 11 12
M  V30 12 1 12 13
M  V30 13 2 13 14
M  V30 14 1 14 15
M  V30 15 2 15 16
M  V30 16 1 16 17
M  V30 17 1 17 18
M  V30 18 2 17 19
M  V30 19 1 12 20
M  V30 20 2 20 21
M  V30 21 1 21 22
M  V30 22 1 22 23
M  V30 23 1 23 24
M  V30 24 2 23 7
M  V30 25 1 22 11
M  V30 26 1 19 13
M  V30 27 1 1 25
M  V30 28 1 1 26
M  V30 29 1 1 27
M  V30 30 1 2 28
M  V30 31 1 2 29
M  V30 32 1 6 30
M  V30 33 1 6 31
M  V30 34 1 9 32
M  V30 35 1 9 33
M  V30 36 1 9 34
M  V30 37 1 14 35
M  V30 38 1 15 36
M  V30 39 1 16 37
M  V30 40 1 19 38
M  V30 41 1 20 39
M  V30 42 1 24 40
M  V30 END BOND
M  V30 END CTAB
M  END
>  <Dataset>  (153) 
ChEMBL_Kinases

>  <Ligand_Instance>  (153) 
nan

>  <PDB_ID>  (153) 
nan

>  <Standardized_SMILES>  (153) 
CCOC(=O)Cc1c(C)nc2c(-c3cccc(Br)c3)cnn2c1O

>  <Name>  (153) 
nan

>  <Pocket>  (153) 
nan

>  <ATP_Site>  (153) 
nan

>  <Peripheral>  (153) 
nan

>  <Num_H_Atoms_ProtBoundConf>  (153) 
nan

>  <Num_Resolved_Atoms>  (153) 
nan

>  <Num_Not_Resolved_Atoms>  (153) 
nan

$$$$
CHEMBL1388936
     RDKit          3D

  0  0  0  0  0  0  0  0  0  0999 V3000
M  V30 BEGIN CTAB
M  V30 COUNTS 39 41 0 0 0
M  V30 BEGIN ATOM
M  V30 1 C 0.229514 -3.617531 3.199540 0
M  V30 2 N -0.011871 -2.283754 3.641449 0
M  V30 3 C 1.098391 -1.385119 3.381884 0
M  V30 4 C 0.900818 -1.059663 1.882791 0
M  V30 5 C 1.726115 0.136830 1.605247 0
M  V30 6 O 2.155902 0.410082 2.761485 0
M  V30 7 C 2.042663 0.888916 0.403272 0
M  V30 8 C 1.626099 0.630250 -0.869581 0
M  V30 9 C 1.967602 1.395474 -1.961404 0
M  V30 10 C 2.779800 2.487689 -1.749794 0
M  V30 11 F 3.118274 3.241194 -2.812674 0
M  V30 12 C 3.204432 2.756314 -0.472163 0
M  V30 13 C 2.849879 1.976228 0.606259 0
M  V30 14 C -0.540263 -0.812633 1.828284 0
M  V30 15 C -1.302700 -0.840309 0.620828 0
M  V30 16 C -1.724805 -1.983846 0.006057 0
M  V30 17 F -1.430103 -3.207948 0.504094 0
M  V30 18 C -2.469181 -2.058067 -1.150657 0
M  V30 19 C -2.841992 -0.871678 -1.775935 0
M  V30 20 C -2.459161 0.315659 -1.223805 0
M  V30 21 C -1.726227 0.299667 -0.081076 0
M  V30 22 Cl -1.290801 1.890944 0.566496 0
M  V30 23 C -1.104024 -1.658173 2.948247 0
M  V30 24 H 0.874600 -4.163363 3.903712 0
M  V30 25 H -0.734028 -4.166593 3.149268 0
M  V30 26 H 0.683844 -3.635760 2.166347 0
M  V30 27 H 1.048212 -0.501278 4.014056 0
M  V30 28 H 2.027097 -1.939868 3.560507 0
M  V30 29 H 1.341122 -1.883759 1.350333 0
M  V30 30 H 0.993148 -0.231823 -1.009550 0
M  V30 31 H 1.578019 1.096190 -2.929464 0
M  V30 32 H 3.842437 3.634543 -0.384616 0
M  V30 33 H 3.268223 2.322365 1.550280 0
M  V30 34 H -0.662090 0.252443 2.221266 0
M  V30 35 H -2.798312 -2.955147 -1.629624 0
M  V30 36 H -3.422973 -0.880637 -2.680819 0
M  V30 37 H -2.752873 1.225998 -1.715622 0
M  V30 38 H -1.852042 -2.403835 2.594233 0
M  V30 39 H -1.645781 -1.060805 3.726964 0
M  V30 END ATOM
M  V30 BEGIN BOND
M  V30 1 1 1 2
M  V30 2 1 2 3
M  V30 3 1 3 4
M  V30 4 1 4 5
M  V30 5 2 5 6
M  V30 6 1 5 7
M  V30 7 2 7 8
M  V30 8 1 8 9
M  V30 9 2 9 10
M  V30 10 1 10 11
M  V30 11 1 10 12
M  V30 12 2 12 13
M  V30 13 1 4 14
M  V30 14 1 14 15
M  V30 15 2 15 16
M  V30 16 1 16 17
M  V30 17 1 16 18
M  V30 18 2 18 19
M  V30 19 1 19 20
M  V30 20 2 20 21
M  V30 21 1 21 22
M  V30 22 1 14 23
M  V30 23 1 23 2
M  V30 24 1 13 7
M  V30 25 1 21 15
M  V30 26 1 1 24
M  V30 27 1 1 25
M  V30 28 1 1 26
M  V30 29 1 3 27
M  V30 30 1 3 28
M  V30 31 1 4 29
M  V30 32 1 8 30
M  V30 33 1 9 31
M  V30 34 1 12 32
M  V30 35 1 13 33
M  V30 36 1 14 34
M  V30 37 1 18 35
M  V30 38 1 19 36
M  V30 39 1 20 37
M  V30 40 1 23 38
M  V30 41 1 23 39
M  V30 END BOND
M  V30 END CTAB
M  END
>  <Dataset>  (154) 
ChEMBL_Kinases

>  <Ligand_Instance>  (154) 
nan

>  <PDB_ID>  (154) 
nan

>  <Standardized_SMILES>  (154) 
CN1CC(C(=O)c2ccc(F)cc2)C(c2c(F)cccc2Cl)C1

>  <Name>  (154) 
nan

>  <Pocket>  (154) 
nan

>  <ATP_Site>  (154) 
nan

>  <Peripheral>  (154) 
nan

>  <Num_H_Atoms_ProtBoundConf>  (154) 
nan

>  <Num_Resolved_Atoms>  (154) 
nan

>  <Num_Not_Resolved_Atoms>  (154) 
nan

$$$$
CHEMBL1388881
     RDKit          3D

  0  0  0  0  0  0  0  0  0  0999 V3000
M  V30 BEGIN CTAB
M  V30 COUNTS 45 48 0 0 0
M  V30 BEGIN ATOM
M  V30 1 C 4.470760 -2.259577 -2.130622 0
M  V30 2 O 3.651935 -1.500508 -1.247956 0
M  V30 3 C 2.388578 -1.931934 -0.864975 0
M  V30 4 O 2.117137 -3.036143 -1.399860 0
M  V30 5 C 1.492894 -1.217486 0.028164 0
M  V30 6 C 1.838510 -0.015999 0.594052 0
M  V30 7 C 0.968325 0.635862 1.433817 0
M  V30 8 C 1.236548 1.920843 2.033795 0
M  V30 9 O 0.640460 2.092337 3.154292 0
M  V30 10 C 2.033918 3.039574 1.624218 0
M  V30 11 C 2.676776 3.243464 0.425387 0
M  V30 12 C 3.413283 4.345074 0.071244 0
M  V30 13 F 4.014439 4.453658 -1.137382 0
M  V30 14 C 3.540298 5.368166 0.986245 0
M  V30 15 C 2.920631 5.229235 2.207391 0
M  V30 16 C 2.180865 4.089931 2.525999 0
M  V30 17 O 1.632129 4.136525 3.803355 0
M  V30 18 C -0.240251 0.013741 1.661564 0
M  V30 19 N -0.618444 -1.163316 1.127290 0
M  V30 20 C -1.833328 -1.646308 1.435391 0
M  V30 21 O -2.562390 -0.956817 2.229669 0
M  V30 22 C -2.225532 -2.849796 0.882740 0
M  V30 23 C -3.436009 -3.437780 1.119990 0
M  V30 24 C -4.569562 -3.000539 1.966770 0
M  V30 25 C -3.584200 -4.705283 0.401957 0
M  V30 26 C -4.771979 -5.625224 0.424865 0
M  V30 27 S -2.032170 -4.903349 -0.496794 0
M  V30 28 C -1.299092 -3.417793 0.065160 0
M  V30 29 N -0.100080 -2.909567 -0.219030 0
M  V30 30 C 0.277124 -1.734699 0.323130 0
M  V30 31 H 5.402276 -1.696541 -2.256617 0
M  V30 32 H 4.591748 -3.303801 -1.786866 0
M  V30 33 H 3.999657 -2.335807 -3.146447 0
M  V30 34 H 2.809085 0.341487 0.348694 0
M  V30 35 H 2.602193 2.500007 -0.327728 0
M  V30 36 H 4.115803 6.247072 0.730885 0
M  V30 37 H 3.047024 6.056106 2.888220 0
M  V30 38 H 0.664554 4.417168 3.930909 0
M  V30 39 H -0.927921 0.531978 2.329494 0
M  V30 40 H -5.233356 -2.322119 1.398015 0
M  V30 41 H -4.223711 -2.430848 2.847641 0
M  V30 42 H -5.115279 -3.877224 2.375795 0
M  V30 43 H -4.423982 -6.676112 0.211833 0
M  V30 44 H -5.527695 -5.381290 -0.322142 0
M  V30 45 H -5.173132 -5.699372 1.468592 0
M  V30 END ATOM
M  V30 BEGIN BOND
M  V30 1 1 1 2
M  V30 2 1 2 3
M  V30 3 2 3 4
M  V30 4 1 3 5
M  V30 5 2 5 6
M  V30 6 1 6 7
M  V30 7 1 7 8
M  V30 8 2 8 9
M  V30 9 1 8 10
M  V30 10 2 10 11
M  V30 11 1 11 12
M  V30 12 1 12 13
M  V30 13 2 12 14
M  V30 14 1 14 15
M  V30 15 2 15 16
M  V30 16 1 16 17
M  V30 17 2 7 18
M  V30 18 1 18 19
M  V30 19 1 19 20
M  V30 20 2 20 21
M  V30 21 1 20 22
M  V30 22 1 22 23
M  V30 23 1 23 24
M  V30 24 2 23 25
M  V30 25 1 25 26
M  V30 26 1 25 27
M  V30 27 1 27 28
M  V30 28 1 28 29
M  V30 29 2 29 30
M  V30 30 1 30 5
M  V30 31 1 16 10
M  V30 32 1 30 19
M  V30 33 2 28 22
M  V30 34 1 1 31
M  V30 35 1 1 32
M  V30 36 1 1 33
M  V30 37 1 6 34
M  V30 38 1 11 35
M  V30 39 1 14 36
M  V30 40 1 15 37
M  V30 41 1 17 38
M  V30 42 1 18 39
M  V30 43 1 24 40
M  V30 44 1 24 41
M  V30 45 1 24 42
M  V30 46 1 26 43
M  V30 47 1 26 44
M  V30 48 1 26 45
M  V30 END BOND
M  V30 END CTAB
M  END
>  <Dataset>  (155) 
ChEMBL_Kinases

>  <Ligand_Instance>  (155) 
nan

>  <PDB_ID>  (155) 
nan

>  <Standardized_SMILES>  (155) 
COC(=O)c1cc(C(=O)c2cc(F)ccc2O)cn2c(=O)c3c(C)c(C)sc3nc12

>  <Name>  (155) 
nan

>  <Pocket>  (155) 
nan

>  <ATP_Site>  (155) 
nan

>  <Peripheral>  (155) 
nan

>  <Num_H_Atoms_ProtBoundConf>  (155) 
nan

>  <Num_Resolved_Atoms>  (155) 
nan

>  <Num_Not_Resolved_Atoms>  (155) 
nan

$$$$
CHEMBL1388876
     RDKit          3D

  0  0  0  0  0  0  0  0  0  0999 V3000
M  V30 BEGIN CTAB
M  V30 COUNTS 42 44 0 0 0
M  V30 BEGIN ATOM
M  V30 1 O 2.417241 -1.635119 4.733530 0
M  V30 2 S 2.125197 -2.224361 3.392616 0
M  V30 3 O 1.346498 -3.525993 3.595580 0
M  V30 4 N 3.574431 -2.669017 2.611175 0
M  V30 5 C 3.844868 -3.318596 1.382345 0
M  V30 6 C 2.783290 -3.723605 0.586188 0
M  V30 7 C 2.918591 -4.374182 -0.636834 0
M  V30 8 C 4.179732 -4.636503 -1.093022 0
M  V30 9 C 5.199792 -4.218278 -0.272923 0
M  V30 10 N 5.090472 -3.593397 0.902260 0
M  V30 11 C 1.157742 -1.088949 2.498382 0
M  V30 12 C 0.092302 -1.339713 1.662226 0
M  V30 13 C -0.560405 -0.310208 1.020710 0
M  V30 14 C -0.231110 1.022000 1.142540 0
M  V30 15 C -0.919867 2.136270 0.470421 0
M  V30 16 C -1.075192 2.037613 -0.991589 0
M  V30 17 C -2.238654 1.294944 -1.529839 0
M  V30 18 C -3.424097 1.136808 -0.665018 0
M  V30 19 C -3.286998 1.491725 0.768003 0
M  V30 20 C -2.231315 2.473535 1.116096 0
M  V30 21 C 0.851211 1.232893 1.996867 0
M  V30 22 C 1.543435 0.246541 2.665488 0
M  V30 23 H 4.481175 -2.427795 3.114168 0
M  V30 24 H 1.757485 -3.561754 0.867273 0
M  V30 25 H 2.070638 -4.675007 -1.230271 0
M  V30 26 H 4.396988 -5.134552 -2.025820 0
M  V30 27 H 6.249524 -4.384594 -0.554293 0
M  V30 28 H -0.169380 -2.375423 1.569363 0
M  V30 29 H -1.377170 -0.604938 0.385080 0
M  V30 30 H -0.272576 3.055165 0.665735 0
M  V30 31 H -0.111377 1.713580 -1.489175 0
M  V30 32 H -1.181833 3.094142 -1.387786 0
M  V30 33 H -2.561829 1.680890 -2.545333 0
M  V30 34 H -1.863223 0.258279 -1.788621 0
M  V30 35 H -3.846204 0.098504 -0.740240 0
M  V30 36 H -4.253095 1.777878 -1.091166 0
M  V30 37 H -4.269608 1.911782 1.156398 0
M  V30 38 H -3.172092 0.565042 1.405480 0
M  V30 39 H -2.150392 2.507974 2.220289 0
M  V30 40 H -2.547042 3.465934 0.711636 0
M  V30 41 H 1.162906 2.273411 2.136089 0
M  V30 42 H 2.364831 0.554532 3.297704 0
M  V30 END ATOM
M  V30 BEGIN BOND
M  V30 1 2 1 2
M  V30 2 2 2 3
M  V30 3 1 2 4
M  V30 4 1 4 5
M  V30 5 2 5 6
M  V30 6 1 6 7
M  V30 7 2 7 8
M  V30 8 1 8 9
M  V30 9 2 9 10
M  V30 10 1 2 11
M  V30 11 2 11 12
M  V30 12 1 12 13
M  V30 13 2 13 14
M  V30 14 1 14 15
M  V30 15 1 15 16
M  V30 16 1 16 17
M  V30 17 1 17 18
M  V30 18 1 18 19
M  V30 19 1 19 20
M  V30 20 1 14 21
M  V30 21 2 21 22
M  V30 22 1 10 5
M  V30 23 1 22 11
M  V30 24 1 20 15
M  V30 25 1 4 23
M  V30 26 1 6 24
M  V30 27 1 7 25
M  V30 28 1 8 26
M  V30 29 1 9 27
M  V30 30 1 12 28
M  V30 31 1 13 29
M  V30 32 1 15 30
M  V30 33 1 16 31
M  V30 34 1 16 32
M  V30 35 1 17 33
M  V30 36 1 17 34
M  V30 37 1 18 35
M  V30 38 1 18 36
M  V30 39 1 19 37
M  V30 40 1 19 38
M  V30 41 1 20 39
M  V30 42 1 20 40
M  V30 43 1 21 41
M  V30 44 1 22 42
M  V30 END BOND
M  V30 END CTAB
M  END
>  <Dataset>  (156) 
ChEMBL_Kinases

>  <Ligand_Instance>  (156) 
nan

>  <PDB_ID>  (156) 
nan

>  <Standardized_SMILES>  (156) 
O=S(=O)(Nc1ccccn1)c1ccc(C2CCCCC2)cc1

>  <Name>  (156) 
nan

>  <Pocket>  (156) 
nan

>  <ATP_Site>  (156) 
nan

>  <Peripheral>  (156) 
nan

>  <Num_H_Atoms_ProtBoundConf>  (156) 
nan

>  <Num_Resolved_Atoms>  (156) 
nan

>  <Num_Not_Resolved_Atoms>  (156) 
nan

$$$$
CHEMBL1388764
     RDKit          3D

  0  0  0  0  0  0  0  0  0  0999 V3000
M  V30 BEGIN CTAB
M  V30 COUNTS 30 31 0 0 0
M  V30 BEGIN ATOM
M  V30 1 O -3.564152 -1.516567 0.428529 0
M  V30 2 C -3.638394 -0.244430 0.382470 0
M  V30 3 C -4.646628 0.671355 -0.162301 0
M  V30 4 Cl -4.232589 2.379020 0.051189 0
M  V30 5 N -2.487850 0.339619 0.996093 0
M  V30 6 C -1.520887 -0.580665 1.518764 0
M  V30 7 C -1.542700 -1.068339 2.805291 0
M  V30 8 C -0.577958 -1.955466 3.247532 0
M  V30 9 C 0.415898 -2.349484 2.375581 0
M  V30 10 C 0.416539 -1.846427 1.089786 0
M  V30 11 O 1.440284 -2.272808 0.244013 0
M  V30 12 C 2.629325 -1.560658 0.187417 0
M  V30 13 C 2.553968 -0.576849 -0.793482 0
M  V30 14 C 3.624265 0.277056 -1.048098 0
M  V30 15 C 4.776134 0.122757 -0.295206 0
M  V30 16 C 4.848848 -0.853385 0.676969 0
M  V30 17 C 3.785979 -1.694472 0.923224 0
M  V30 18 C -0.529681 -0.961429 0.617969 0
M  V30 19 H -4.641270 0.504393 -1.278127 0
M  V30 20 H -5.673322 0.506851 0.158883 0
M  V30 21 H -2.285877 1.377799 1.099193 0
M  V30 22 H -2.351655 -0.726356 3.460697 0
M  V30 23 H -0.642286 -2.306034 4.264276 0
M  V30 24 H 1.138493 -3.038347 2.769126 0
M  V30 25 H 1.705864 -0.357246 -1.449247 0
M  V30 26 H 3.624411 1.055843 -1.793158 0
M  V30 27 H 5.637604 0.759512 -0.451789 0
M  V30 28 H 5.726834 -1.025152 1.302661 0
M  V30 29 H 3.715982 -2.492290 1.649789 0
M  V30 30 H -0.502305 -0.584942 -0.395138 0
M  V30 END ATOM
M  V30 BEGIN BOND
M  V30 1 2 1 2
M  V30 2 1 2 3
M  V30 3 1 3 4
M  V30 4 1 2 5
M  V30 5 1 5 6
M  V30 6 2 6 7
M  V30 7 1 7 8
M  V30 8 2 8 9
M  V30 9 1 9 10
M  V30 10 1 10 11
M  V30 11 1 11 12
M  V30 12 2 12 13
M  V30 13 1 13 14
M  V30 14 2 14 15
M  V30 15 1 15 16
M  V30 16 2 16 17
M  V30 17 2 10 18
M  V30 18 1 18 6
M  V30 19 1 17 12
M  V30 20 1 3 19
M  V30 21 1 3 20
M  V30 22 1 5 21
M  V30 23 1 7 22
M  V30 24 1 8 23
M  V30 25 1 9 24
M  V30 26 1 13 25
M  V30 27 1 14 26
M  V30 28 1 15 27
M  V30 29 1 16 28
M  V30 30 1 17 29
M  V30 31 1 18 30
M  V30 END BOND
M  V30 END CTAB
M  END
>  <Dataset>  (157) 
ChEMBL_Kinases

>  <Ligand_Instance>  (157) 
nan

>  <PDB_ID>  (157) 
nan

>  <Standardized_SMILES>  (157) 
O=C(CCl)Nc1cccc(Oc2ccccc2)c1

>  <Name>  (157) 
nan

>  <Pocket>  (157) 
nan

>  <ATP_Site>  (157) 
nan

>  <Peripheral>  (157) 
nan

>  <Num_H_Atoms_ProtBoundConf>  (157) 
nan

>  <Num_Resolved_Atoms>  (157) 
nan

>  <Num_Not_Resolved_Atoms>  (157) 
nan

$$$$
CHEMBL1387235
     RDKit          3D

  0  0  0  0  0  0  0  0  0  0999 V3000
M  V30 BEGIN CTAB
M  V30 COUNTS 31 33 0 0 0
M  V30 BEGIN ATOM
M  V30 1 O 0.882233 -4.255159 3.978755 0
M  V30 2 N 0.932181 -3.921576 2.784147 0
M  V30 3 C 0.767036 -2.578260 2.341486 0
M  V30 4 C 1.499426 -1.889890 1.392231 0
M  V30 5 O 2.559167 -2.516178 0.729640 0
M  V30 6 N 1.031320 -0.621731 1.250398 0
M  V30 7 C 1.600488 0.343080 0.324342 0
M  V30 8 C 0.878202 0.198499 -0.983504 0
M  V30 9 C 1.424560 -0.704510 -1.873629 0
M  V30 10 C 0.793608 -0.882457 -3.111980 0
M  V30 11 C -0.338239 -0.129435 -3.342872 0
M  V30 12 C -0.907158 0.779217 -2.474737 0
M  V30 13 C -0.258808 0.932355 -1.257407 0
M  V30 14 C -0.001676 -0.507276 2.113639 0
M  V30 15 C -0.825383 0.558751 2.374836 0
M  V30 16 C -1.843362 0.448759 3.323172 0
M  V30 17 C -2.008616 -0.745765 3.992761 0
M  V30 18 C -1.189721 -1.830859 3.744178 0
M  V30 19 C -0.185500 -1.688555 2.793847 0
M  V30 20 H 3.480705 -2.117471 0.668089 0
M  V30 21 H 1.436484 1.361752 0.721804 0
M  V30 22 H 2.675705 0.160071 0.185689 0
M  V30 23 H 2.298892 -1.301581 -1.723821 0
M  V30 24 H 1.147199 -1.563541 -3.867548 0
M  V30 25 H -0.862214 -0.241550 -4.305035 0
M  V30 26 H -1.800734 1.328889 -2.740236 0
M  V30 27 H -0.661583 1.632538 -0.537190 0
M  V30 28 H -0.706938 1.497966 1.858532 0
M  V30 29 H -2.486670 1.289892 3.523408 0
M  V30 30 H -2.812251 -0.816426 4.734330 0
M  V30 31 H -1.363717 -2.743862 4.298137 0
M  V30 END ATOM
M  V30 BEGIN BOND
M  V30 1 2 1 2
M  V30 2 1 2 3
M  V30 3 2 3 4
M  V30 4 1 4 5
M  V30 5 1 4 6
M  V30 6 1 6 7
M  V30 7 1 7 8
M  V30 8 2 8 9
M  V30 9 1 9 10
M  V30 10 2 10 11
M  V30 11 1 11 12
M  V30 12 2 12 13
M  V30 13 1 6 14
M  V30 14 2 14 15
M  V30 15 1 15 16
M  V30 16 2 16 17
M  V30 17 1 17 18
M  V30 18 2 18 19
M  V30 19 1 19 3
M  V30 20 1 13 8
M  V30 21 1 19 14
M  V30 22 1 5 20
M  V30 23 1 7 21
M  V30 24 1 7 22
M  V30 25 1 9 23
M  V30 26 1 10 24
M  V30 27 1 11 25
M  V30 28 1 12 26
M  V30 29 1 13 27
M  V30 30 1 15 28
M  V30 31 1 16 29
M  V30 32 1 17 30
M  V30 33 1 18 31
M  V30 END BOND
M  V30 END CTAB
M  END
>  <Dataset>  (158) 
ChEMBL_Kinases

>  <Ligand_Instance>  (158) 
nan

>  <PDB_ID>  (158) 
nan

>  <Standardized_SMILES>  (158) 
O=Nc1c(O)n(Cc2ccccc2)c2ccccc12

>  <Name>  (158) 
nan

>  <Pocket>  (158) 
nan

>  <ATP_Site>  (158) 
nan

>  <Peripheral>  (158) 
nan

>  <Num_H_Atoms_ProtBoundConf>  (158) 
nan

>  <Num_Resolved_Atoms>  (158) 
nan

>  <Num_Not_Resolved_Atoms>  (158) 
nan

$$$$
CHEMBL1387417
     RDKit          3D

  0  0  0  0  0  0  0  0  0  0999 V3000
M  V30 BEGIN CTAB
M  V30 COUNTS 38 39 0 0 0
M  V30 BEGIN ATOM
M  V30 1 C -0.595232 -6.275949 0.519953 0
M  V30 2 S 1.098478 -5.901017 0.071133 0
M  V30 3 C 1.492627 -4.147240 0.262800 0
M  V30 4 C 0.743094 -3.266179 -0.683685 0
M  V30 5 C 1.104813 -1.826701 -0.488321 0
M  V30 6 N 2.487043 -1.518048 -0.690196 0
M  V30 7 C 2.480548 -0.088655 -0.857185 0
M  V30 8 O 3.362000 0.814184 -0.650851 0
M  V30 9 N 1.184026 0.298067 -1.358210 0
M  V30 10 C 0.722394 1.653971 -1.675366 0
M  V30 11 C 0.102834 2.312609 -0.519212 0
M  V30 12 O -0.290372 3.461866 -0.771865 0
M  V30 13 N -0.110523 1.866781 0.784455 0
M  V30 14 C -0.660846 2.288364 2.004638 0
M  V30 15 C -0.347596 1.472950 3.067259 0
M  V30 16 C -0.827347 1.773508 4.314271 0
M  V30 17 C -1.617280 2.872257 4.538908 0
M  V30 18 Br -2.223873 3.187770 6.314319 0
M  V30 19 C -1.952210 3.710791 3.501165 0
M  V30 20 C -1.451448 3.373598 2.267454 0
M  V30 21 Br -1.999000 4.558190 0.903524 0
M  V30 22 C 0.457016 -0.922470 -1.474200 0
M  V30 23 O -0.513017 -1.106418 -2.269203 0
M  V30 24 H -0.558164 -6.977187 1.403001 0
M  V30 25 H -1.169024 -5.390916 0.841418 0
M  V30 26 H -1.080513 -6.780557 -0.325505 0
M  V30 27 H 2.584666 -4.003239 0.140045 0
M  V30 28 H 1.260061 -3.845221 1.317518 0
M  V30 29 H -0.353840 -3.335605 -0.455046 0
M  V30 30 H 0.877160 -3.584726 -1.729921 0
M  V30 31 H 0.779778 -1.476243 0.515153 0
M  V30 32 H 3.448354 -1.953040 -0.754369 0
M  V30 33 H 1.602827 2.227504 -2.070360 0
M  V30 34 H 0.009001 1.557893 -2.491787 0
M  V30 35 H 0.303710 0.886301 0.715942 0
M  V30 36 H 0.273383 0.571960 3.004427 0
M  V30 37 H -0.574500 1.127481 5.138616 0
M  V30 38 H -2.574310 4.562237 3.721463 0
M  V30 END ATOM
M  V30 BEGIN BOND
M  V30 1 1 1 2
M  V30 2 1 2 3
M  V30 3 1 3 4
M  V30 4 1 4 5
M  V30 5 1 5 6
M  V30 6 1 6 7
M  V30 7 2 7 8
M  V30 8 1 7 9
M  V30 9 1 9 10
M  V30 10 1 10 11
M  V30 11 2 11 12
M  V30 12 1 11 13
M  V30 13 1 13 14
M  V30 14 2 14 15
M  V30 15 1 15 16
M  V30 16 2 16 17
M  V30 17 1 17 18
M  V30 18 1 17 19
M  V30 19 2 19 20
M  V30 20 1 20 21
M  V30 21 1 9 22
M  V30 22 2 22 23
M  V30 23 1 22 5
M  V30 24 1 20 14
M  V30 25 1 1 24
M  V30 26 1 1 25
M  V30 27 1 1 26
M  V30 28 1 3 27
M  V30 29 1 3 28
M  V30 30 1 4 29
M  V30 31 1 4 30
M  V30 32 1 5 31
M  V30 33 1 6 32
M  V30 34 1 10 33
M  V30 35 1 10 34
M  V30 36 1 13 35
M  V30 37 1 15 36
M  V30 38 1 16 37
M  V30 39 1 19 38
M  V30 END BOND
M  V30 END CTAB
M  END
>  <Dataset>  (159) 
ChEMBL_Kinases

>  <Ligand_Instance>  (159) 
nan

>  <PDB_ID>  (159) 
nan

>  <Standardized_SMILES>  (159) 
CSCCC1NC(=O)N(CC(=O)Nc2ccc(Br)cc2Br)C1=O

>  <Name>  (159) 
nan

>  <Pocket>  (159) 
nan

>  <ATP_Site>  (159) 
nan

>  <Peripheral>  (159) 
nan

>  <Num_H_Atoms_ProtBoundConf>  (159) 
nan

>  <Num_Resolved_Atoms>  (159) 
nan

>  <Num_Not_Resolved_Atoms>  (159) 
nan

$$$$
CHEMBL1387514
     RDKit          3D

  0  0  0  0  0  0  0  0  0  0999 V3000
M  V30 BEGIN CTAB
M  V30 COUNTS 29 31 0 0 0
M  V30 BEGIN ATOM
M  V30 1 N 0.764147 -3.692665 5.338663 0
M  V30 2 C 1.087108 -3.215899 4.332050 0
M  V30 3 C 1.477949 -2.609722 3.060033 0
M  V30 4 S 0.961900 -0.864160 3.087854 0
M  V30 5 C 1.392114 -0.028697 1.579918 0
M  V30 6 N 2.611807 0.573597 1.502846 0
M  V30 7 C 2.948707 1.212310 0.357932 0
M  V30 8 N 4.037214 1.891376 -0.047327 0
M  V30 9 N 3.900711 2.345317 -1.278849 0
M  V30 10 C 2.684905 1.991536 -1.788765 0
M  V30 11 C 2.049609 1.276377 -0.793864 0
M  V30 12 C 0.821428 0.633359 -0.629358 0
M  V30 13 O -0.064314 0.667008 -1.694023 0
M  V30 14 N 0.540771 0.013565 0.533076 0
M  V30 15 C -0.723716 -0.646791 0.698530 0
M  V30 16 C -0.823811 -1.799018 -0.069916 0
M  V30 17 C -1.996673 -2.556385 -0.019457 0
M  V30 18 C -3.046972 -2.152581 0.794539 0
M  V30 19 C -2.917657 -1.003439 1.546148 0
M  V30 20 C -1.769061 -0.246270 1.507712 0
M  V30 21 Br -1.462618 1.352388 2.489854 0
M  V30 22 H 2.554583 -2.723123 2.900771 0
M  V30 23 H 0.934801 -3.126524 2.224198 0
M  V30 24 H 2.245837 2.193638 -2.757625 0
M  V30 25 H -0.559723 1.496295 -1.968150 0
M  V30 26 H -0.078712 -2.206477 -0.733520 0
M  V30 27 H -2.171216 -3.466429 -0.578371 0
M  V30 28 H -3.980222 -2.729963 0.852396 0
M  V30 29 H -3.696001 -0.631020 2.201401 0
M  V30 END ATOM
M  V30 BEGIN BOND
M  V30 1 3 1 2
M  V30 2 1 2 3
M  V30 3 1 3 4
M  V30 4 1 4 5
M  V30 5 2 5 6
M  V30 6 1 6 7
M  V30 7 2 7 8
M  V30 8 1 8 9
M  V30 9 2 9 10
M  V30 10 1 10 11
M  V30 11 2 11 12
M  V30 12 1 12 13
M  V30 13 1 12 14
M  V30 14 1 14 15
M  V30 15 2 15 16
M  V30 16 1 16 17
M  V30 17 2 17 18
M  V30 18 1 18 19
M  V30 19 2 19 20
M  V30 20 1 20 21
M  V30 21 1 14 5
M  V30 22 1 20 15
M  V30 23 1 11 7
M  V30 24 1 3 22
M  V30 25 1 3 23
M  V30 26 1 10 24
M  V30 27 1 13 25
M  V30 28 1 16 26
M  V30 29 1 17 27
M  V30 30 1 18 28
M  V30 31 1 19 29
M  V30 END BOND
M  V30 END CTAB
M  END
>  <Dataset>  (160) 
ChEMBL_Kinases

>  <Ligand_Instance>  (160) 
nan

>  <PDB_ID>  (160) 
nan

>  <Standardized_SMILES>  (160) 
N#CCSc1nc2nncc-2c(O)n1-c1ccccc1Br

>  <Name>  (160) 
nan

>  <Pocket>  (160) 
nan

>  <ATP_Site>  (160) 
nan

>  <Peripheral>  (160) 
nan

>  <Num_H_Atoms_ProtBoundConf>  (160) 
nan

>  <Num_Resolved_Atoms>  (160) 
nan

>  <Num_Not_Resolved_Atoms>  (160) 
nan

$$$$
CHEMBL1387577
     RDKit          3D

  0  0  0  0  0  0  0  0  0  0999 V3000
M  V30 BEGIN CTAB
M  V30 COUNTS 41 44 0 0 0
M  V30 BEGIN ATOM
M  V30 1 O 2.945925 -0.269255 1.914757 0
M  V30 2 C 2.315532 -0.439872 0.838881 0
M  V30 3 C 2.447309 -1.803380 0.339374 0
M  V30 4 C 1.659693 -2.899760 0.595363 0
M  V30 5 C 1.950189 -4.116217 0.022456 0
M  V30 6 C 3.033814 -4.288224 -0.825827 0
M  V30 7 C 3.816828 -3.179591 -1.074812 0
M  V30 8 C 3.544475 -1.933151 -0.506407 0
M  V30 9 Br 4.743127 -0.523447 -0.972416 0
M  V30 10 N 1.562076 0.576664 0.184839 0
M  V30 11 C 0.908294 0.201255 -1.033641 0
M  V30 12 C -0.159879 1.176816 -1.477582 0
M  V30 13 C -0.691163 1.981507 -0.309758 0
M  V30 14 C -1.267476 1.146949 0.747663 0
M  V30 15 N -0.929849 0.279897 1.457847 0
M  V30 16 C -1.628347 -0.356949 2.372087 0
M  V30 17 C -1.215928 -1.377752 3.202030 0
M  V30 18 C -2.098577 -1.922201 4.102056 0
M  V30 19 C -3.411000 -1.532343 4.264160 0
M  V30 20 C -3.865124 -0.514614 3.454532 0
M  V30 21 C -2.959693 0.032139 2.542797 0
M  V30 22 S -3.099328 1.366926 1.291818 0
M  V30 23 C 0.465445 2.766570 0.261452 0
M  V30 24 C 1.539476 1.878751 0.823429 0
M  V30 25 H 0.848244 -2.703795 1.250406 0
M  V30 26 H 1.237447 -4.889074 0.318852 0
M  V30 27 H 3.189178 -5.263625 -1.228119 0
M  V30 28 H 4.649089 -3.392564 -1.750194 0
M  V30 29 H 1.641115 0.055211 -1.871652 0
M  V30 30 H 0.452435 -0.792116 -0.886089 0
M  V30 31 H -1.037171 0.654813 -1.914577 0
M  V30 32 H 0.306582 1.877445 -2.191887 0
M  V30 33 H -1.420889 2.708278 -0.719197 0
M  V30 34 H -0.208760 -1.815285 3.213312 0
M  V30 35 H -1.783282 -2.738642 4.771876 0
M  V30 36 H -4.137418 -1.927689 4.953169 0
M  V30 37 H -4.842852 -0.070415 3.424516 0
M  V30 38 H 0.915140 3.337045 -0.577968 0
M  V30 39 H 0.121783 3.525217 1.001732 0
M  V30 40 H 1.448363 1.786197 1.915250 0
M  V30 41 H 2.568013 2.302233 0.630553 0
M  V30 END ATOM
M  V30 BEGIN BOND
M  V30 1 2 1 2
M  V30 2 1 2 3
M  V30 3 2 3 4
M  V30 4 1 4 5
M  V30 5 2 5 6
M  V30 6 1 6 7
M  V30 7 2 7 8
M  V30 8 1 8 9
M  V30 9 1 2 10
M  V30 10 1 10 11
M  V30 11 1 11 12
M  V30 12 1 12 13
M  V30 13 1 13 14
M  V30 14 2 14 15
M  V30 15 1 15 16
M  V30 16 2 16 17
M  V30 17 1 17 18
M  V30 18 2 18 19
M  V30 19 1 19 20
M  V30 20 2 20 21
M  V30 21 1 21 22
M  V30 22 1 13 23
M  V30 23 1 23 24
M  V30 24 1 8 3
M  V30 25 1 24 10
M  V30 26 1 22 14
M  V30 27 1 21 16
M  V30 28 1 4 25
M  V30 29 1 5 26
M  V30 30 1 6 27
M  V30 31 1 7 28
M  V30 32 1 11 29
M  V30 33 1 11 30
M  V30 34 1 12 31
M  V30 35 1 12 32
M  V30 36 1 13 33
M  V30 37 1 17 34
M  V30 38 1 18 35
M  V30 39 1 19 36
M  V30 40 1 20 37
M  V30 41 1 23 38
M  V30 42 1 23 39
M  V30 43 1 24 40
M  V30 44 1 24 41
M  V30 END BOND
M  V30 END CTAB
M  END
>  <Dataset>  (161) 
ChEMBL_Kinases

>  <Ligand_Instance>  (161) 
nan

>  <PDB_ID>  (161) 
nan

>  <Standardized_SMILES>  (161) 
O=C(c1ccccc1Br)N1CCC(c2nc3ccccc3s2)CC1

>  <Name>  (161) 
nan

>  <Pocket>  (161) 
nan

>  <ATP_Site>  (161) 
nan

>  <Peripheral>  (161) 
nan

>  <Num_H_Atoms_ProtBoundConf>  (161) 
nan

>  <Num_Resolved_Atoms>  (161) 
nan

>  <Num_Not_Resolved_Atoms>  (161) 
nan

$$$$
CHEMBL1387672
     RDKit          3D

  0  0  0  0  0  0  0  0  0  0999 V3000
M  V30 BEGIN CTAB
M  V30 COUNTS 67 72 0 0 0
M  V30 BEGIN ATOM
M  V30 1 C 0.335963 2.158098 -6.539656 0
M  V30 2 N 0.225131 0.735564 -6.290744 0
M  V30 3 C -0.976061 0.457608 -5.617374 0
M  V30 4 C -0.880345 -0.420064 -4.398618 0
M  V30 5 N 0.340609 -0.233244 -3.744907 0
M  V30 6 C 0.767608 0.298104 -2.506437 0
M  V30 7 N 2.097425 0.313807 -2.179109 0
M  V30 8 C 2.263822 0.895533 -0.986753 0
M  V30 9 C 1.004288 1.249739 -0.562382 0
M  V30 10 C 1.023603 1.885070 0.662588 0
M  V30 11 O -0.052698 2.253596 1.142449 0
M  V30 12 N 2.142366 2.118482 1.343215 0
M  V30 13 C 2.150869 2.795001 2.619441 0
M  V30 14 C 3.347979 1.722952 0.830391 0
M  V30 15 O 4.400636 1.949001 1.482547 0
M  V30 16 N 3.436403 1.094218 -0.362262 0
M  V30 17 C 4.703821 0.658540 -0.936312 0
M  V30 18 N 0.081159 0.879933 -1.497507 0
M  V30 19 C -1.312756 1.101155 -1.371801 0
M  V30 20 C -2.109502 0.049961 -0.695387 0
M  V30 21 O -3.020233 -0.250403 -1.500183 0
M  V30 22 C -2.334345 -0.814447 0.488791 0
M  V30 23 C -2.756975 -0.051165 1.710571 0
M  V30 24 C -2.892249 -0.993840 2.869228 0
M  V30 25 C -3.991470 -1.985719 2.561915 0
M  V30 26 C -3.592203 -2.769333 1.336318 0
M  V30 27 C -2.309302 -3.512683 1.649880 0
M  V30 28 C -1.217307 -2.523563 1.940643 0
M  V30 29 C -1.635514 -1.759391 3.194493 0
M  V30 30 C -1.017955 -1.512650 0.866241 0
M  V30 31 C -3.403705 -1.843956 0.191114 0
M  V30 32 C 1.386647 -0.737963 -4.671327 0
M  V30 33 C 1.452044 0.268553 -5.768209 0
M  V30 34 H 0.067032 2.652275 -5.568353 0
M  V30 35 H -0.401435 2.522839 -7.281895 0
M  V30 36 H 1.374033 2.495551 -6.739093 0
M  V30 37 H -1.655238 -0.083513 -6.351150 0
M  V30 38 H -1.523329 1.405543 -5.412743 0
M  V30 39 H -1.800037 -0.351755 -3.805911 0
M  V30 40 H -0.949687 -1.484984 -4.788770 0
M  V30 41 H 1.792617 3.843528 2.394667 0
M  V30 42 H 1.380460 2.337132 3.256281 0
M  V30 43 H 3.157454 2.844920 3.064326 0
M  V30 44 H 5.543166 1.211262 -0.460799 0
M  V30 45 H 4.867926 -0.406507 -0.713039 0
M  V30 46 H 4.764475 0.918758 -2.016896 0
M  V30 47 H -1.461289 2.002671 -0.681644 0
M  V30 48 H -1.788768 1.510233 -2.292626 0
M  V30 49 H -2.026554 0.699160 1.993894 0
M  V30 50 H -3.752861 0.419571 1.566887 0
M  V30 51 H -3.142938 -0.418598 3.796240 0
M  V30 52 H -4.203466 -2.611567 3.432685 0
M  V30 53 H -4.911225 -1.410646 2.298535 0
M  V30 54 H -4.405218 -3.488020 1.119321 0
M  V30 55 H -2.071122 -4.256654 0.877722 0
M  V30 56 H -2.514080 -4.064543 2.616244 0
M  V30 57 H -0.272273 -3.057520 2.105037 0
M  V30 58 H -0.842091 -1.096489 3.530220 0
M  V30 59 H -1.924430 -2.512816 3.956897 0
M  V30 60 H -0.563303 -1.954693 -0.052788 0
M  V30 61 H -0.347919 -0.717035 1.222156 0
M  V30 62 H -3.151413 -2.358887 -0.760571 0
M  V30 63 H -4.344840 -1.269747 0.061919 0
M  V30 64 H 2.371957 -0.717844 -4.152787 0
M  V30 65 H 1.133064 -1.758472 -4.952590 0
M  V30 66 H 2.053104 1.127266 -5.380383 0
M  V30 67 H 2.057352 -0.113392 -6.639143 0
M  V30 END ATOM
M  V30 BEGIN BOND
M  V30 1 1 1 2
M  V30 2 1 2 3
M  V30 3 1 3 4
M  V30 4 1 4 5
M  V30 5 1 5 6
M  V30 6 2 6 7
M  V30 7 1 7 8
M  V30 8 2 8 9
M  V30 9 1 9 10
M  V30 10 2 10 11
M  V30 11 1 10 12
M  V30 12 1 12 13
M  V30 13 1 12 14
M  V30 14 2 14 15
M  V30 15 1 14 16
M  V30 16 1 16 17
M  V30 17 1 9 18
M  V30 18 1 18 19
M  V30 19 1 19 20
M  V30 20 2 20 21
M  V30 21 1 20 22
M  V30 22 1 22 23
M  V30 23 1 23 24
M  V30 24 1 24 25
M  V30 25 1 25 26
M  V30 26 1 26 27
M  V30 27 1 27 28
M  V30 28 1 28 29
M  V30 29 1 28 30
M  V30 30 1 26 31
M  V30 31 1 5 32
M  V30 32 1 32 33
M  V30 33 1 33 2
M  V30 34 1 18 6
M  V30 35 1 30 22
M  V30 36 1 16 8
M  V30 37 1 31 22
M  V30 38 1 29 24
M  V30 39 1 1 34
M  V30 40 1 1 35
M  V30 41 1 1 36
M  V30 42 1 3 37
M  V30 43 1 3 38
M  V30 44 1 4 39
M  V30 45 1 4 40
M  V30 46 1 13 41
M  V30 47 1 13 42
M  V30 48 1 13 43
M  V30 49 1 17 44
M  V30 50 1 17 45
M  V30 51 1 17 46
M  V30 52 1 19 47
M  V30 53 1 19 48
M  V30 54 1 23 49
M  V30 55 1 23 50
M  V30 56 1 24 51
M  V30 57 1 25 52
M  V30 58 1 25 53
M  V30 59 1 26 54
M  V30 60 1 27 55
M  V30 61 1 27 56
M  V30 62 1 28 57
M  V30 63 1 29 58
M  V30 64 1 29 59
M  V30 65 1 30 60
M  V30 66 1 30 61
M  V30 67 1 31 62
M  V30 68 1 31 63
M  V30 69 1 32 64
M  V30 70 1 32 65
M  V30 71 1 33 66
M  V30 72 1 33 67
M  V30 END BOND
M  V30 END CTAB
M  END
>  <Dataset>  (162) 
ChEMBL_Kinases

>  <Ligand_Instance>  (162) 
nan

>  <PDB_ID>  (162) 
nan

>  <Standardized_SMILES>  (162) 
CN1CCN(c2nc3c(c(=O)n(C)c(=O)n3C)n2CC(=O)C23CC4CC(CC(C4)C2)C3)CC1

>  <Name>  (162) 
nan

>  <Pocket>  (162) 
nan

>  <ATP_Site>  (162) 
nan

>  <Peripheral>  (162) 
nan

>  <Num_H_Atoms_ProtBoundConf>  (162) 
nan

>  <Num_Resolved_Atoms>  (162) 
nan

>  <Num_Not_Resolved_Atoms>  (162) 
nan

$$$$
CHEMBL1387911
     RDKit          3D

  0  0  0  0  0  0  0  0  0  0999 V3000
M  V30 BEGIN CTAB
M  V30 COUNTS 62 66 0 0 0
M  V30 BEGIN ATOM
M  V30 1 C 1.809207 -0.844120 5.941449 0
M  V30 2 O 1.388015 -0.446335 4.692981 0
M  V30 3 C 1.923885 -0.130815 3.549289 0
M  V30 4 O 2.824023 -0.439736 4.432396 0
M  V30 5 C 2.505732 0.221190 2.275811 0
M  V30 6 N 3.801921 0.145514 2.087295 0
M  V30 7 C 3.955394 0.528051 0.785857 0
M  V30 8 C 5.031610 0.654065 -0.065867 0
M  V30 9 C 4.913415 1.048527 -1.358783 0
M  V30 10 C 3.681493 1.345242 -1.890017 0
M  V30 11 F 3.550974 1.741366 -3.168340 0
M  V30 12 C 2.582283 1.239750 -1.096265 0
M  V30 13 C 2.758760 0.835177 0.213118 0
M  V30 14 C 1.800804 0.648816 1.144651 0
M  V30 15 N 0.464482 0.844079 1.255730 0
M  V30 16 C -0.835198 0.921294 1.546966 0
M  V30 17 O -0.805370 0.207184 2.642236 0
M  V30 18 C -2.220012 1.290321 1.421399 0
M  V30 19 C -3.126067 0.403791 2.317928 0
M  V30 20 N -3.122190 -0.897230 1.854264 0
M  V30 21 C -3.779194 -1.181793 0.608707 0
M  V30 22 C -3.959647 -2.641051 0.351020 0
M  V30 23 N -2.776682 -3.451330 0.532444 0
M  V30 24 C -2.213136 -3.909216 -0.718807 0
M  V30 25 C -1.528199 -2.866548 -1.510281 0
M  V30 26 C -0.138167 -2.839062 -1.264556 0
M  V30 27 C 0.579688 -1.876333 -1.971811 0
M  V30 28 C 0.094557 -0.959013 -2.863531 0
M  V30 29 C -1.277708 -1.022556 -3.073806 0
M  V30 30 C -2.014399 -1.965788 -2.392981 0
M  V30 31 O -1.628886 -0.055187 -3.980017 0
M  V30 32 C -0.487132 0.640412 -4.390241 0
M  V30 33 O 0.561821 0.053878 -3.651265 0
M  V30 34 C -1.821597 -2.801620 1.404801 0
M  V30 35 C -2.639885 -2.032945 2.460416 0
M  V30 36 H 0.897918 -1.092410 6.566246 0
M  V30 37 H 2.409070 -0.068339 6.443289 0
M  V30 38 H 2.372328 -1.801982 5.888405 0
M  V30 39 H 4.677141 -0.110620 2.612472 0
M  V30 40 H 6.011990 0.432530 0.296259 0
M  V30 41 H 5.774809 1.124869 -1.990731 0
M  V30 42 H 1.586010 1.452794 -1.504550 0
M  V30 43 H 0.210450 1.465766 0.394490 0
M  V30 44 H -2.540294 1.164615 0.356703 0
M  V30 45 H -2.381572 2.365495 1.661973 0
M  V30 46 H -2.697137 0.450564 3.359861 0
M  V30 47 H -4.077402 0.937912 2.376591 0
M  V30 48 H -4.828829 -0.769668 0.733648 0
M  V30 49 H -3.390521 -0.615374 -0.266988 0
M  V30 50 H -4.752033 -3.084765 1.024445 0
M  V30 51 H -4.315037 -2.782032 -0.682361 0
M  V30 52 H -3.102659 -4.333073 -1.278302 0
M  V30 53 H -1.561928 -4.781497 -0.539339 0
M  V30 54 H 0.361617 -3.493090 -0.597963 0
M  V30 55 H 1.663741 -1.854000 -1.793808 0
M  V30 56 H -3.085595 -2.025864 -2.558170 0
M  V30 57 H -0.306122 0.561629 -5.490535 0
M  V30 58 H -0.584496 1.740182 -4.161505 0
M  V30 59 H -1.343845 -1.966580 0.804209 0
M  V30 60 H -1.050903 -3.430605 1.826466 0
M  V30 61 H -3.507876 -2.759579 2.654592 0
M  V30 62 H -2.094600 -1.957096 3.426122 0
M  V30 END ATOM
M  V30 BEGIN BOND
M  V30 1 1 1 2
M  V30 2 1 2 3
M  V30 3 2 3 4
M  V30 4 1 3 5
M  V30 5 1 5 6
M  V30 6 1 6 7
M  V30 7 2 7 8
M  V30 8 1 8 9
M  V30 9 2 9 10
M  V30 10 1 10 11
M  V30 11 1 10 12
M  V30 12 2 12 13
M  V30 13 1 13 14
M  V30 14 1 14 15
M  V30 15 1 15 16
M  V30 16 2 16 17
M  V30 17 1 16 18
M  V30 18 1 18 19
M  V30 19 1 19 20
M  V30 20 1 20 21
M  V30 21 1 21 22
M  V30 22 1 22 23
M  V30 23 1 23 24
M  V30 24 1 24 25
M  V30 25 2 25 26
M  V30 26 1 26 27
M  V30 27 2 27 28
M  V30 28 1 28 29
M  V30 29 2 29 30
M  V30 30 1 29 31
M  V30 31 1 31 32
M  V30 32 1 32 33
M  V30 33 1 23 34
M  V30 34 1 34 35
M  V30 35 2 14 5
M  V30 36 1 35 20
M  V30 37 1 13 7
M  V30 38 1 30 25
M  V30 39 1 33 28
M  V30 40 1 1 36
M  V30 41 1 1 37
M  V30 42 1 1 38
M  V30 43 1 6 39
M  V30 44 1 8 40
M  V30 45 1 9 41
M  V30 46 1 12 42
M  V30 47 1 15 43
M  V30 48 1 18 44
M  V30 49 1 18 45
M  V30 50 1 19 46
M  V30 51 1 19 47
M  V30 52 1 21 48
M  V30 53 1 21 49
M  V30 54 1 22 50
M  V30 55 1 22 51
M  V30 56 1 24 52
M  V30 57 1 24 53
M  V30 58 1 26 54
M  V30 59 1 27 55
M  V30 60 1 30 56
M  V30 61 1 32 57
M  V30 62 1 32 58
M  V30 63 1 34 59
M  V30 64 1 34 60
M  V30 65 1 35 61
M  V30 66 1 35 62
M  V30 END BOND
M  V30 END CTAB
M  END
>  <Dataset>  (163) 
ChEMBL_Kinases

>  <Ligand_Instance>  (163) 
nan

>  <PDB_ID>  (163) 
nan

>  <Standardized_SMILES>  (163) 
COC(=O)c1[nH]c2ccc(F)cc2c1NC(=O)CCN1CCN(Cc2ccc3c(c2)OCO3)CC1

>  <Name>  (163) 
nan

>  <Pocket>  (163) 
nan

>  <ATP_Site>  (163) 
nan

>  <Peripheral>  (163) 
nan

>  <Num_H_Atoms_ProtBoundConf>  (163) 
nan

>  <Num_Resolved_Atoms>  (163) 
nan

>  <Num_Not_Resolved_Atoms>  (163) 
nan

$$$$
CHEMBL1387914
     RDKit          3D

  0  0  0  0  0  0  0  0  0  0999 V3000
M  V30 BEGIN CTAB
M  V30 COUNTS 48 49 0 0 0
M  V30 BEGIN ATOM
M  V30 1 C 1.068785 -8.537825 -3.600859 0
M  V30 2 C 1.907345 -7.319733 -3.828674 0
M  V30 3 O 1.594262 -6.267347 -2.941185 0
M  V30 4 C 2.217754 -5.031251 -2.922569 0
M  V30 5 O 3.098939 -4.999660 -3.816240 0
M  V30 6 C 1.858146 -3.973263 -1.983108 0
M  V30 7 C 2.551246 -2.781283 -2.044613 0
M  V30 8 C 2.175019 -1.792327 -1.123779 0
M  V30 9 C 1.157031 -1.997831 -0.195401 0
M  V30 10 N 0.798810 -0.994183 0.724097 0
M  V30 11 C -0.113673 0.077361 0.696016 0
M  V30 12 O -0.711115 0.086920 -0.435833 0
M  V30 13 C -0.362613 1.037947 1.760506 0
M  V30 14 C 0.055615 1.231970 3.053517 0
M  V30 15 C 0.991537 0.296862 3.692261 0
M  V30 16 N -0.468950 2.314538 3.636210 0
M  V30 17 C -1.247827 2.823361 2.675314 0
M  V30 18 C -2.036025 4.022252 2.837209 0
M  V30 19 O -2.811897 4.945849 2.569424 0
M  V30 20 O -2.050527 4.738024 3.995238 0
M  V30 21 C -2.774056 5.915464 4.271491 0
M  V30 22 C -2.415510 6.281961 5.718108 0
M  V30 23 C -1.237292 2.106899 1.509222 0
M  V30 24 C -1.998071 2.415268 0.261531 0
M  V30 25 C 0.511149 -3.238421 -0.208399 0
M  V30 26 C 0.842049 -4.245319 -1.092395 0
M  V30 27 H 1.669517 -9.482886 -3.714039 0
M  V30 28 H 0.640881 -8.611240 -2.568135 0
M  V30 29 H 0.203777 -8.518007 -4.304752 0
M  V30 30 H 1.819202 -6.990391 -4.899593 0
M  V30 31 H 2.969038 -7.584922 -3.644640 0
M  V30 32 H 3.346959 -2.607282 -2.762722 0
M  V30 33 H 2.715844 -0.838363 -1.157916 0
M  V30 34 H 1.372563 -1.136653 1.579515 0
M  V30 35 H 2.013099 0.306623 3.326928 0
M  V30 36 H 0.504262 -0.721283 3.721917 0
M  V30 37 H 1.033080 0.554914 4.796693 0
M  V30 38 H -0.283176 2.636369 4.603831 0
M  V30 39 H -2.482562 6.773958 3.623471 0
M  V30 40 H -3.865100 5.803289 4.230649 0
M  V30 41 H -1.335877 6.572684 5.685017 0
M  V30 42 H -2.489958 5.419537 6.379805 0
M  V30 43 H -3.008459 7.154059 6.023047 0
M  V30 44 H -2.751657 3.190934 0.505765 0
M  V30 45 H -1.377054 2.801846 -0.547821 0
M  V30 46 H -2.575758 1.514538 -0.083021 0
M  V30 47 H -0.275353 -3.346608 0.536506 0
M  V30 48 H 0.300621 -5.174562 -1.042868 0
M  V30 END ATOM
M  V30 BEGIN BOND
M  V30 1 1 1 2
M  V30 2 1 2 3
M  V30 3 1 3 4
M  V30 4 2 4 5
M  V30 5 1 4 6
M  V30 6 2 6 7
M  V30 7 1 7 8
M  V30 8 2 8 9
M  V30 9 1 9 10
M  V30 10 1 10 11
M  V30 11 2 11 12
M  V30 12 1 11 13
M  V30 13 2 13 14
M  V30 14 1 14 15
M  V30 15 1 14 16
M  V30 16 1 16 17
M  V30 17 1 17 18
M  V30 18 2 18 19
M  V30 19 1 18 20
M  V30 20 1 20 21
M  V30 21 1 21 22
M  V30 22 2 17 23
M  V30 23 1 23 24
M  V30 24 1 9 25
M  V30 25 2 25 26
M  V30 26 1 26 6
M  V30 27 1 23 13
M  V30 28 1 1 27
M  V30 29 1 1 28
M  V30 30 1 1 29
M  V30 31 1 2 30
M  V30 32 1 2 31
M  V30 33 1 7 32
M  V30 34 1 8 33
M  V30 35 1 10 34
M  V30 36 1 15 35
M  V30 37 1 15 36
M  V30 38 1 15 37
M  V30 39 1 16 38
M  V30 40 1 21 39
M  V30 41 1 21 40
M  V30 42 1 22 41
M  V30 43 1 22 42
M  V30 44 1 22 43
M  V30 45 1 24 44
M  V30 46 1 24 45
M  V30 47 1 24 46
M  V30 48 1 25 47
M  V30 49 1 26 48
M  V30 END BOND
M  V30 END CTAB
M  END
>  <Dataset>  (164) 
ChEMBL_Kinases

>  <Ligand_Instance>  (164) 
nan

>  <PDB_ID>  (164) 
nan

>  <Standardized_SMILES>  (164) 
CCOC(=O)c1ccc(NC(=O)c2c(C)[nH]c(C(=O)OCC)c2C)cc1

>  <Name>  (164) 
nan

>  <Pocket>  (164) 
nan

>  <ATP_Site>  (164) 
nan

>  <Peripheral>  (164) 
nan

>  <Num_H_Atoms_ProtBoundConf>  (164) 
nan

>  <Num_Resolved_Atoms>  (164) 
nan

>  <Num_Not_Resolved_Atoms>  (164) 
nan

$$$$
CHEMBL1387918
     RDKit          3D

  0  0  0  0  0  0  0  0  0  0999 V3000
M  V30 BEGIN CTAB
M  V30 COUNTS 52 55 0 0 0
M  V30 BEGIN ATOM
M  V30 1 O -1.703498 -3.047342 2.497037 0
M  V30 2 C -1.458792 -2.490489 1.367855 0
M  V30 3 C -0.927596 -1.158067 1.630176 0
M  V30 4 N -0.562733 -0.389010 0.496733 0
M  V30 5 C 0.563540 -0.763614 -0.246113 0
M  V30 6 C 1.873368 -0.483929 0.521874 0
M  V30 7 C 1.745550 0.934061 1.039959 0
M  V30 8 N 1.192471 1.730170 0.008661 0
M  V30 9 S 2.195082 2.833177 -0.748373 0
M  V30 10 O 3.392355 2.119469 -1.329746 0
M  V30 11 O 1.487125 3.476933 -1.895359 0
M  V30 12 C 2.789298 4.016436 0.396929 0
M  V30 13 C 2.039647 5.182584 0.563394 0
M  V30 14 C 2.483537 6.143117 1.466685 0
M  V30 15 C 3.642936 5.994356 2.213370 0
M  V30 16 Br 4.222594 7.343921 3.449120 0
M  V30 17 C 4.370264 4.838405 2.037309 0
M  V30 18 C 3.939215 3.861941 1.133601 0
M  V30 19 C -0.186250 2.036367 0.094975 0
M  V30 20 C -1.085969 0.905205 0.427993 0
M  V30 21 N -1.749536 -3.261350 0.229534 0
M  V30 22 C -2.259220 -4.551506 0.096264 0
M  V30 23 C -2.446979 -5.052381 -1.173673 0
M  V30 24 C -2.939233 -6.308897 -1.438318 0
M  V30 25 C -3.269440 -7.128778 -0.383571 0
M  V30 26 C -3.106352 -6.689254 0.913775 0
M  V30 27 C -2.609477 -5.422659 1.100480 0
M  V30 28 O -3.516470 -7.715390 1.752046 0
M  V30 29 C -3.874340 -8.866630 1.013290 0
M  V30 30 O -3.776869 -8.418727 -0.318178 0
M  V30 31 H -1.748053 -0.597767 2.176382 0
M  V30 32 H -0.109422 -1.214174 2.393221 0
M  V30 33 H 0.609337 -1.814596 -0.530806 0
M  V30 34 H 0.603755 -0.148405 -1.169191 0
M  V30 35 H 2.704850 -0.493975 -0.206530 0
M  V30 36 H 1.993366 -1.237377 1.328241 0
M  V30 37 H 2.770874 1.268935 1.360628 0
M  V30 38 H 1.127892 0.991646 1.962873 0
M  V30 39 H 1.110894 5.353474 -0.003083 0
M  V30 40 H 1.877562 7.055737 1.582779 0
M  V30 41 H 5.285340 4.695436 2.610743 0
M  V30 42 H 4.494717 2.942629 0.976495 0
M  V30 43 H -0.298945 2.818428 0.894727 0
M  V30 44 H -0.489974 2.547346 -0.845010 0
M  V30 45 H -1.648142 1.097752 1.390048 0
M  V30 46 H -1.923964 0.895153 -0.332622 0
M  V30 47 H -1.531049 -2.701295 -0.622214 0
M  V30 48 H -2.201259 -4.443714 -2.037976 0
M  V30 49 H -3.061172 -6.640441 -2.443415 0
M  V30 50 H -2.500671 -5.127765 2.112020 0
M  V30 51 H -3.224380 -9.738339 1.230887 0
M  V30 52 H -4.941442 -9.073351 1.237761 0
M  V30 END ATOM
M  V30 BEGIN BOND
M  V30 1 2 1 2
M  V30 2 1 2 3
M  V30 3 1 3 4
M  V30 4 1 4 5
M  V30 5 1 5 6
M  V30 6 1 6 7
M  V30 7 1 7 8
M  V30 8 1 8 9
M  V30 9 2 9 10
M  V30 10 2 9 11
M  V30 11 1 9 12
M  V30 12 2 12 13
M  V30 13 1 13 14
M  V30 14 2 14 15
M  V30 15 1 15 16
M  V30 16 1 15 17
M  V30 17 2 17 18
M  V30 18 1 8 19
M  V30 19 1 19 20
M  V30 20 1 2 21
M  V30 21 1 21 22
M  V30 22 2 22 23
M  V30 23 1 23 24
M  V30 24 2 24 25
M  V30 25 1 25 26
M  V30 26 2 26 27
M  V30 27 1 26 28
M  V30 28 1 28 29
M  V30 29 1 29 30
M  V30 30 1 20 4
M  V30 31 1 27 22
M  V30 32 1 18 12
M  V30 33 1 30 25
M  V30 34 1 3 31
M  V30 35 1 3 32
M  V30 36 1 5 33
M  V30 37 1 5 34
M  V30 38 1 6 35
M  V30 39 1 6 36
M  V30 40 1 7 37
M  V30 41 1 7 38
M  V30 42 1 13 39
M  V30 43 1 14 40
M  V30 44 1 17 41
M  V30 45 1 18 42
M  V30 46 1 19 43
M  V30 47 1 19 44
M  V30 48 1 20 45
M  V30 49 1 20 46
M  V30 50 1 21 47
M  V30 51 1 23 48
M  V30 52 1 24 49
M  V30 53 1 27 50
M  V30 54 1 29 51
M  V30 55 1 29 52
M  V30 END BOND
M  V30 END CTAB
M  END
>  <Dataset>  (165) 
ChEMBL_Kinases

>  <Ligand_Instance>  (165) 
nan

>  <PDB_ID>  (165) 
nan

>  <Standardized_SMILES>  (165) 
O=C(CN1CCCN(S(=O)(=O)c2ccc(Br)cc2)CC1)Nc1ccc2c(c1)OCO2

>  <Name>  (165) 
nan

>  <Pocket>  (165) 
nan

>  <ATP_Site>  (165) 
nan

>  <Peripheral>  (165) 
nan

>  <Num_H_Atoms_ProtBoundConf>  (165) 
nan

>  <Num_Resolved_Atoms>  (165) 
nan

>  <Num_Not_Resolved_Atoms>  (165) 
nan

$$$$
CHEMBL1388703
     RDKit          3D

  0  0  0  0  0  0  0  0  0  0999 V3000
M  V30 BEGIN CTAB
M  V30 COUNTS 40 42 0 0 0
M  V30 BEGIN ATOM
M  V30 1 C 0.426023 -7.367374 1.153703 0
M  V30 2 C 1.215324 -7.142838 -0.088334 0
M  V30 3 O 2.031524 -5.995514 -0.078209 0
M  V30 4 C 1.614960 -4.700649 0.072090 0
M  V30 5 C 2.582693 -3.718371 0.053509 0
M  V30 6 C 2.248002 -2.392022 0.197906 0
M  V30 7 C 0.959135 -1.961404 0.366651 0
M  V30 8 N 0.707671 -0.578473 0.507129 0
M  V30 9 C -0.513844 0.112624 0.690477 0
M  V30 10 O -1.570903 -0.563717 0.743617 0
M  V30 11 C -0.635455 1.555454 0.822504 0
M  V30 12 C 0.422203 2.437683 0.786346 0
M  V30 13 C 0.306726 3.805653 0.911533 0
M  V30 14 C 1.396357 4.650232 0.868961 0
M  V30 15 C 1.262182 6.017086 0.995993 0
M  V30 16 C -0.012482 6.555437 1.172178 0
M  V30 17 C -1.125504 5.719651 1.217891 0
M  V30 18 C -0.944055 4.359901 1.086567 0
M  V30 19 C -2.034507 3.516688 1.129339 0
M  V30 20 C -1.863319 2.155162 0.998933 0
M  V30 21 O -2.999237 1.358040 1.050219 0
M  V30 22 C 0.026144 -2.967483 0.379664 0
M  V30 23 C 0.303108 -4.309871 0.239890 0
M  V30 24 H 0.522131 -6.521031 1.882708 0
M  V30 25 H 0.822380 -8.250557 1.689848 0
M  V30 26 H -0.651778 -7.545405 0.981191 0
M  V30 27 H 0.490919 -7.004048 -0.922894 0
M  V30 28 H 1.860489 -8.024763 -0.271127 0
M  V30 29 H 3.615319 -3.975415 -0.074401 0
M  V30 30 H 3.061849 -1.655588 0.174865 0
M  V30 31 H 1.515356 0.079230 0.478192 0
M  V30 32 H 1.415457 2.083313 0.654445 0
M  V30 33 H 2.373196 4.209354 0.731599 0
M  V30 34 H 2.099254 6.701759 0.966257 0
M  V30 35 H -0.223169 7.628500 1.282785 0
M  V30 36 H -2.141838 6.097153 1.354085 0
M  V30 37 H -3.020974 3.927632 1.265218 0
M  V30 38 H -3.859922 1.662087 1.472572 0
M  V30 39 H -1.007801 -2.741286 0.505156 0
M  V30 40 H -0.470134 -5.065273 0.256773 0
M  V30 END ATOM
M  V30 BEGIN BOND
M  V30 1 1 1 2
M  V30 2 1 2 3
M  V30 3 1 3 4
M  V30 4 2 4 5
M  V30 5 1 5 6
M  V30 6 2 6 7
M  V30 7 1 7 8
M  V30 8 1 8 9
M  V30 9 2 9 10
M  V30 10 1 9 11
M  V30 11 2 11 12
M  V30 12 1 12 13
M  V30 13 2 13 14
M  V30 14 1 14 15
M  V30 15 2 15 16
M  V30 16 1 16 17
M  V30 17 2 17 18
M  V30 18 1 18 19
M  V30 19 2 19 20
M  V30 20 1 20 21
M  V30 21 1 7 22
M  V30 22 2 22 23
M  V30 23 1 23 4
M  V30 24 1 20 11
M  V30 25 1 18 13
M  V30 26 1 1 24
M  V30 27 1 1 25
M  V30 28 1 1 26
M  V30 29 1 2 27
M  V30 30 1 2 28
M  V30 31 1 5 29
M  V30 32 1 6 30
M  V30 33 1 8 31
M  V30 34 1 12 32
M  V30 35 1 14 33
M  V30 36 1 15 34
M  V30 37 1 16 35
M  V30 38 1 17 36
M  V30 39 1 19 37
M  V30 40 1 21 38
M  V30 41 1 22 39
M  V30 42 1 23 40
M  V30 END BOND
M  V30 END CTAB
M  END
>  <Dataset>  (166) 
ChEMBL_Kinases

>  <Ligand_Instance>  (166) 
nan

>  <PDB_ID>  (166) 
nan

>  <Standardized_SMILES>  (166) 
CCOc1ccc(NC(=O)c2cc3ccccc3cc2O)cc1

>  <Name>  (166) 
nan

>  <Pocket>  (166) 
nan

>  <ATP_Site>  (166) 
nan

>  <Peripheral>  (166) 
nan

>  <Num_H_Atoms_ProtBoundConf>  (166) 
nan

>  <Num_Resolved_Atoms>  (166) 
nan

>  <Num_Not_Resolved_Atoms>  (166) 
nan

$$$$
CHEMBL1388099
     RDKit          3D

  0  0  0  0  0  0  0  0  0  0999 V3000
M  V30 BEGIN CTAB
M  V30 COUNTS 47 49 0 0 0
M  V30 BEGIN ATOM
M  V30 1 C 4.174694 -5.372436 -1.160916 0
M  V30 2 O 3.717185 -4.694529 -2.305539 0
M  V30 3 C 3.082184 -3.465972 -2.253915 0
M  V30 4 C 2.681153 -2.904233 -3.442400 0
M  V30 5 C 2.052888 -1.687802 -3.386168 0
M  V30 6 C 1.837783 -1.062619 -2.176888 0
M  V30 7 O 1.208360 0.154098 -2.131750 0
M  V30 8 C 0.790476 0.744641 -3.340507 0
M  V30 9 C 2.216862 -1.582044 -0.987515 0
M  V30 10 C 2.066738 -1.058023 0.357295 0
M  V30 11 C 1.523044 0.058320 0.771694 0
M  V30 12 C 1.429519 0.482211 2.165061 0
M  V30 13 O 1.905746 -0.277095 3.047815 0
M  V30 14 N 0.817903 1.716693 2.509906 0
M  V30 15 C 0.679087 2.214883 3.842710 0
M  V30 16 C -0.142505 1.268745 4.711726 0
M  V30 17 C -1.498871 1.071054 4.179521 0
M  V30 18 N -1.831293 0.092848 3.297563 0
M  V30 19 C -3.152251 0.183310 3.007969 0
M  V30 20 C -3.896969 -0.620280 2.153946 0
M  V30 21 C -5.241297 -0.323106 2.025021 0
M  V30 22 C -5.774543 0.738408 2.736614 0
M  V30 23 C -5.009716 1.532406 3.588406 0
M  V30 24 C -3.672835 1.244034 3.722403 0
M  V30 25 N -2.634196 1.758555 4.423482 0
M  V30 26 C 2.858641 -2.827597 -1.061821 0
M  V30 27 H 4.669852 -6.309441 -1.487645 0
M  V30 28 H 4.974385 -4.785108 -0.631906 0
M  V30 29 H 3.334563 -5.551555 -0.472084 0
M  V30 30 H 2.806426 -3.317384 -4.426373 0
M  V30 31 H 1.709626 -1.186877 -4.288951 0
M  V30 32 H 1.625912 0.841412 -4.085470 0
M  V30 33 H -0.032496 0.165129 -3.835370 0
M  V30 34 H 0.379223 1.763029 -3.199501 0
M  V30 35 H 2.439063 -1.621763 1.217856 0
M  V30 36 H 1.121372 0.696432 0.013832 0
M  V30 37 H 0.449449 2.281545 1.687171 0
M  V30 38 H 1.656336 2.370157 4.351252 0
M  V30 39 H 0.115388 3.161652 3.814812 0
M  V30 40 H 0.408311 0.307516 4.724810 0
M  V30 41 H -0.172628 1.627752 5.759575 0
M  V30 42 H -3.443198 -1.440431 1.615632 0
M  V30 43 H -5.887230 -0.917551 1.367178 0
M  V30 44 H -6.827043 1.019033 2.674445 0
M  V30 45 H -5.430492 2.361545 4.143054 0
M  V30 46 H -2.716041 2.575237 5.061126 0
M  V30 47 H 3.221521 -3.369068 -0.175556 0
M  V30 END ATOM
M  V30 BEGIN BOND
M  V30 1 1 1 2
M  V30 2 1 2 3
M  V30 3 2 3 4
M  V30 4 1 4 5
M  V30 5 2 5 6
M  V30 6 1 6 7
M  V30 7 1 7 8
M  V30 8 1 6 9
M  V30 9 1 9 10
M  V30 10 2 10 11
M  V30 11 1 11 12
M  V30 12 2 12 13
M  V30 13 1 12 14
M  V30 14 1 14 15
M  V30 15 1 15 16
M  V30 16 1 16 17
M  V30 17 2 17 18
M  V30 18 1 18 19
M  V30 19 2 19 20
M  V30 20 1 20 21
M  V30 21 2 21 22
M  V30 22 1 22 23
M  V30 23 2 23 24
M  V30 24 1 24 25
M  V30 25 2 9 26
M  V30 26 1 26 3
M  V30 27 1 25 17
M  V30 28 1 24 19
M  V30 29 1 1 27
M  V30 30 1 1 28
M  V30 31 1 1 29
M  V30 32 1 4 30
M  V30 33 1 5 31
M  V30 34 1 8 32
M  V30 35 1 8 33
M  V30 36 1 8 34
M  V30 37 1 10 35
M  V30 38 1 11 36
M  V30 39 1 14 37
M  V30 40 1 15 38
M  V30 41 1 15 39
M  V30 42 1 16 40
M  V30 43 1 16 41
M  V30 44 1 20 42
M  V30 45 1 21 43
M  V30 46 1 22 44
M  V30 47 1 23 45
M  V30 48 1 25 46
M  V30 49 1 26 47
M  V30 END BOND
M  V30 END CTAB
M  END
>  <Dataset>  (167) 
ChEMBL_Kinases

>  <Ligand_Instance>  (167) 
nan

>  <PDB_ID>  (167) 
nan

>  <Standardized_SMILES>  (167) 
COc1ccc(OC)c(/C=C/C(=O)NCCc2nc3ccccc3[nH]2)c1

>  <Name>  (167) 
nan

>  <Pocket>  (167) 
nan

>  <ATP_Site>  (167) 
nan

>  <Peripheral>  (167) 
nan

>  <Num_H_Atoms_ProtBoundConf>  (167) 
nan

>  <Num_Resolved_Atoms>  (167) 
nan

>  <Num_Not_Resolved_Atoms>  (167) 
nan

$$$$
CHEMBL1388123
     RDKit          3D

  0  0  0  0  0  0  0  0  0  0999 V3000
M  V30 BEGIN CTAB
M  V30 COUNTS 37 38 0 0 0
M  V30 BEGIN ATOM
M  V30 1 C 2.351805 -6.441777 -0.046968 0
M  V30 2 C 2.293838 -5.490142 1.130554 0
M  V30 3 C 1.765511 -6.213201 2.327938 0
M  V30 4 O 1.655488 -4.290968 0.821818 0
M  V30 5 C 2.261995 -3.051239 0.791899 0
M  V30 6 O 3.503289 -2.995245 1.067814 0
M  V30 7 C 1.479403 -1.875234 0.453352 0
M  V30 8 C 0.125869 -1.888094 0.145959 0
M  V30 9 C -0.557412 -0.751980 -0.164513 0
M  V30 10 C 0.098622 0.461567 -0.179614 0
M  V30 11 N -0.529542 1.721721 -0.494363 0
M  V30 12 C -1.034821 2.326160 0.667382 0
M  V30 13 O -0.884922 1.728949 1.767743 0
M  V30 14 C -1.727968 3.608080 0.695532 0
M  V30 15 C -2.171385 4.080893 1.913385 0
M  V30 16 N -2.824303 5.274192 1.989070 0
M  V30 17 C -3.040487 5.995842 0.885867 0
M  V30 18 C -2.625089 5.577801 -0.341037 0
M  V30 19 Br -2.940271 6.616852 -1.904000 0
M  V30 20 C -1.953246 4.356359 -0.441196 0
M  V30 21 C 1.447007 0.532944 0.118650 0
M  V30 22 C 2.104449 -0.649264 0.429485 0
M  V30 23 H 2.698544 -5.827093 -0.923675 0
M  V30 24 H 1.400444 -6.953751 -0.251585 0
M  V30 25 H 3.120950 -7.221926 0.127656 0
M  V30 26 H 3.368920 -5.224884 1.340030 0
M  V30 27 H 0.647248 -6.179477 2.407171 0
M  V30 28 H 2.246688 -5.876004 3.276061 0
M  V30 29 H 2.022425 -7.291795 2.221134 0
M  V30 30 H -0.378813 -2.850401 0.161484 0
M  V30 31 H -1.599340 -0.743466 -0.403642 0
M  V30 32 H -0.643137 2.195922 -1.403011 0
M  V30 33 H -2.024286 3.537783 2.843961 0
M  V30 34 H -3.571351 6.941885 1.030968 0
M  V30 35 H -1.618903 4.008625 -1.389792 0
M  V30 36 H 1.982955 1.488545 0.111179 0
M  V30 37 H 3.147472 -0.594603 0.660276 0
M  V30 END ATOM
M  V30 BEGIN BOND
M  V30 1 1 1 2
M  V30 2 1 2 3
M  V30 3 1 2 4
M  V30 4 1 4 5
M  V30 5 2 5 6
M  V30 6 1 5 7
M  V30 7 2 7 8
M  V30 8 1 8 9
M  V30 9 2 9 10
M  V30 10 1 10 11
M  V30 11 1 11 12
M  V30 12 2 12 13
M  V30 13 1 12 14
M  V30 14 2 14 15
M  V30 15 1 15 16
M  V30 16 2 16 17
M  V30 17 1 17 18
M  V30 18 1 18 19
M  V30 19 2 18 20
M  V30 20 1 10 21
M  V30 21 2 21 22
M  V30 22 1 22 7
M  V30 23 1 20 14
M  V30 24 1 1 23
M  V30 25 1 1 24
M  V30 26 1 1 25
M  V30 27 1 2 26
M  V30 28 1 3 27
M  V30 29 1 3 28
M  V30 30 1 3 29
M  V30 31 1 8 30
M  V30 32 1 9 31
M  V30 33 1 11 32
M  V30 34 1 15 33
M  V30 35 1 17 34
M  V30 36 1 20 35
M  V30 37 1 21 36
M  V30 38 1 22 37
M  V30 END BOND
M  V30 END CTAB
M  END
>  <Dataset>  (168) 
ChEMBL_Kinases

>  <Ligand_Instance>  (168) 
nan

>  <PDB_ID>  (168) 
nan

>  <Standardized_SMILES>  (168) 
CC(C)OC(=O)c1ccc(NC(=O)c2cncc(Br)c2)cc1

>  <Name>  (168) 
nan

>  <Pocket>  (168) 
nan

>  <ATP_Site>  (168) 
nan

>  <Peripheral>  (168) 
nan

>  <Num_H_Atoms_ProtBoundConf>  (168) 
nan

>  <Num_Resolved_Atoms>  (168) 
nan

>  <Num_Not_Resolved_Atoms>  (168) 
nan

$$$$
CHEMBL138827
     RDKit          3D

  0  0  0  0  0  0  0  0  0  0999 V3000
M  V30 BEGIN CTAB
M  V30 COUNTS 67 67 0 0 0
M  V30 BEGIN ATOM
M  V30 1 C 0.194316 -1.477908 4.158969 0
M  V30 2 C 1.674125 -1.315076 3.981737 0
M  V30 3 C 1.927063 -0.578892 2.652055 0
M  V30 4 C 3.386754 -0.378812 2.429359 0
M  V30 5 C 3.776957 0.339172 1.177615 0
M  V30 6 C 3.347086 -0.337650 -0.108979 0
M  V30 7 C 3.834353 0.453276 -1.303754 0
M  V30 8 C 3.338691 1.824488 -1.433682 0
M  V30 9 C 1.840710 1.998687 -1.683485 0
M  V30 10 C 1.429038 1.399670 -2.963483 0
M  V30 11 C 0.125513 1.514554 -3.572716 0
M  V30 12 C -1.190156 1.119006 -3.152679 0
M  V30 13 C -1.973064 1.604920 -2.025121 0
M  V30 14 C -1.546048 1.406400 -0.612003 0
M  V30 15 O -1.399823 0.027209 -0.398960 0
M  V30 16 C -1.053606 -0.663975 0.727604 0
M  V30 17 O -1.026408 0.522302 1.108852 0
M  V30 18 C -1.050135 -2.105010 0.402152 0
M  V30 19 C -2.361515 -2.788577 0.408387 0
M  V30 20 C -3.138010 -2.890470 1.664397 0 CFG=2
M  V30 21 C -3.465542 -1.542346 2.220795 0
M  V30 22 O -4.077631 -0.790105 1.223515 0
M  V30 23 C -2.540695 -3.843697 2.668443 0
M  V30 24 C -3.045399 -5.230778 2.272427 0
M  V30 25 C -4.284024 -4.896440 1.564108 0
M  V30 26 O -5.052242 -5.859251 1.324040 0
M  V30 27 O -4.367025 -3.553892 1.291927 0
M  V30 28 H -0.104509 -1.310540 5.223063 0
M  V30 29 H -0.375694 -0.792526 3.527280 0
M  V30 30 H -0.115846 -2.520544 3.923854 0
M  V30 31 H 2.126580 -2.323643 3.906215 0
M  V30 32 H 2.111235 -0.714407 4.795315 0
M  V30 33 H 1.502953 -1.292436 1.886243 0
M  V30 34 H 1.322937 0.325254 2.632456 0
M  V30 35 H 3.849738 -1.400431 2.360824 0
M  V30 36 H 3.871873 0.078694 3.337666 0
M  V30 37 H 3.275274 1.351213 1.239393 0
M  V30 38 H 4.853385 0.567868 1.189190 0
M  V30 39 H 2.277790 -0.503241 -0.063048 0
M  V30 40 H 3.857313 -1.320865 -0.142285 0
M  V30 41 H 3.594775 -0.107346 -2.241956 0
M  V30 42 H 4.942063 0.486799 -1.278268 0
M  V30 43 H 3.819589 2.287023 -2.319462 0
M  V30 44 H 3.574295 2.498287 -0.585001 0
M  V30 45 H 1.623600 3.061856 -1.646458 0
M  V30 46 H 1.288644 1.485241 -0.870373 0
M  V30 47 H 1.669143 0.277728 -2.896563 0
M  V30 48 H 2.190619 1.736861 -3.758379 0
M  V30 49 H 0.026956 2.594989 -4.059727 0
M  V30 50 H 0.265084 0.962679 -4.616451 0
M  V30 51 H -1.253057 -0.064700 -3.152768 0
M  V30 52 H -1.914404 1.258989 -4.072710 0
M  V30 53 H -3.052774 1.213823 -2.053552 0
M  V30 54 H -2.156852 2.719403 -2.217767 0
M  V30 55 H -0.713601 2.041558 -0.330865 0
M  V30 56 H -2.412429 1.733147 0.074194 0
M  V30 57 H -0.585919 -2.326262 -0.606763 0
M  V30 58 H -0.312466 -2.641256 1.096056 0
M  V30 59 H -3.007903 -2.253261 -0.337109 0
M  V30 60 H -2.283601 -3.846644 0.002927 0
M  V30 61 H -2.558395 -1.056341 2.586682 0
M  V30 62 H -4.220971 -1.647930 3.059154 0
M  V30 63 H -4.462170 0.063446 1.559879 0
M  V30 64 H -2.818558 -3.578783 3.706641 0
M  V30 65 H -1.450667 -3.876936 2.481592 0
M  V30 66 H -2.336557 -5.740947 1.576713 0
M  V30 67 H -3.199990 -5.882836 3.167421 0
M  V30 END ATOM
M  V30 BEGIN BOND
M  V30 1 1 1 2
M  V30 2 1 2 3
M  V30 3 1 3 4
M  V30 4 1 4 5
M  V30 5 1 5 6
M  V30 6 1 6 7
M  V30 7 1 7 8
M  V30 8 1 8 9
M  V30 9 1 9 10
M  V30 10 1 10 11
M  V30 11 1 11 12
M  V30 12 1 12 13
M  V30 13 1 13 14
M  V30 14 1 14 15
M  V30 15 1 15 16
M  V30 16 2 16 17
M  V30 17 1 16 18
M  V30 18 1 18 19
M  V30 19 1 20 19 CFG=3
M  V30 20 1 20 21
M  V30 21 1 21 22
M  V30 22 1 20 23
M  V30 23 1 23 24
M  V30 24 1 24 25
M  V30 25 2 25 26
M  V30 26 1 25 27
M  V30 27 1 27 20
M  V30 28 1 1 28
M  V30 29 1 1 29
M  V30 30 1 1 30
M  V30 31 1 2 31
M  V30 32 1 2 32
M  V30 33 1 3 33
M  V30 34 1 3 34
M  V30 35 1 4 35
M  V30 36 1 4 36
M  V30 37 1 5 37
M  V30 38 1 5 38
M  V30 39 1 6 39
M  V30 40 1 6 40
M  V30 41 1 7 41
M  V30 42 1 7 42
M  V30 43 1 8 43
M  V30 44 1 8 44
M  V30 45 1 9 45
M  V30 46 1 9 46
M  V30 47 1 10 47
M  V30 48 1 10 48
M  V30 49 1 11 49
M  V30 50 1 11 50
M  V30 51 1 12 51
M  V30 52 1 12 52
M  V30 53 1 13 53
M  V30 54 1 13 54
M  V30 55 1 14 55
M  V30 56 1 14 56
M  V30 57 1 18 57
M  V30 58 1 18 58
M  V30 59 1 19 59
M  V30 60 1 19 60
M  V30 61 1 21 61
M  V30 62 1 21 62
M  V30 63 1 22 63
M  V30 64 1 23 64
M  V30 65 1 23 65
M  V30 66 1 24 66
M  V30 67 1 24 67
M  V30 END BOND
M  V30 END CTAB
M  END
>  <Dataset>  (169) 
ChEMBL_Kinases

>  <Ligand_Instance>  (169) 
nan

>  <PDB_ID>  (169) 
nan

>  <Standardized_SMILES>  (169) 
CCCCCCCCCCCCCCOC(=O)CC[C@]1(CO)CCC(=O)O1

>  <Name>  (169) 
nan

>  <Pocket>  (169) 
nan

>  <ATP_Site>  (169) 
nan

>  <Peripheral>  (169) 
nan

>  <Num_H_Atoms_ProtBoundConf>  (169) 
nan

>  <Num_Resolved_Atoms>  (169) 
nan

>  <Num_Not_Resolved_Atoms>  (169) 
nan

$$$$
CHEMBL1388391
     RDKit          3D

  0  0  0  0  0  0  0  0  0  0999 V3000
M  V30 BEGIN CTAB
M  V30 COUNTS 37 38 0 0 0
M  V30 BEGIN ATOM
M  V30 1 O 0.238174 -0.484546 0.510237 0
M  V30 2 C 0.438033 -1.207656 1.514955 0
M  V30 3 C 1.269427 -2.413082 1.280279 0
M  V30 4 O 1.609625 -2.378836 -0.107467 0
M  V30 5 C 2.381879 -3.354392 -0.678457 0
M  V30 6 O 2.810994 -4.308769 0.013903 0
M  V30 7 C 2.724100 -3.303656 -2.114406 0
M  V30 8 C 3.511718 -4.322970 -2.637271 0
M  V30 9 C 3.778045 -4.192808 -3.976937 0
M  V30 10 C 3.349198 -3.186872 -4.796570 0
M  V30 11 C 2.571150 -2.198712 -4.234086 0
M  V30 12 O 2.076340 -1.121930 -4.974364 0
M  V30 13 C 2.248561 -2.249083 -2.874158 0
M  V30 14 N -0.119986 -0.840637 2.754908 0
M  V30 15 C -0.920432 0.272196 3.097672 0
M  V30 16 C -1.348631 0.411924 4.396223 0
M  V30 17 C -2.132049 1.480835 4.781159 0
M  V30 18 C -2.535897 2.479459 3.883871 0
M  V30 19 O -3.310250 3.435916 4.509333 0
M  V30 20 C -3.831852 4.538061 3.809825 0
M  V30 21 F -3.503282 5.741149 4.424012 0
M  V30 22 F -5.234634 4.512599 3.829576 0
M  V30 23 C -2.102488 2.331120 2.586443 0
M  V30 24 C -1.322944 1.250900 2.244039 0
M  V30 25 H 0.578135 -3.281241 1.400366 0
M  V30 26 H 2.132303 -2.504864 1.941553 0
M  V30 27 H 3.878170 -5.143139 -2.033396 0
M  V30 28 H 4.391116 -4.955716 -4.458664 0
M  V30 29 H 3.580369 -3.119579 -5.847515 0
M  V30 30 H 1.125014 -0.841248 -4.787056 0
M  V30 31 H 1.634067 -1.498936 -2.355720 0
M  V30 32 H 0.134326 -1.539422 3.491335 0
M  V30 33 H -1.047526 -0.354240 5.118112 0
M  V30 34 H -2.400028 1.463642 5.849972 0
M  V30 35 H -3.570527 4.566037 2.741359 0
M  V30 36 H -2.436978 3.120820 1.934857 0
M  V30 37 H -1.045592 1.241249 1.205050 0
M  V30 END ATOM
M  V30 BEGIN BOND
M  V30 1 2 1 2
M  V30 2 1 2 3
M  V30 3 1 3 4
M  V30 4 1 4 5
M  V30 5 2 5 6
M  V30 6 1 5 7
M  V30 7 2 7 8
M  V30 8 1 8 9
M  V30 9 2 9 10
M  V30 10 1 10 11
M  V30 11 1 11 12
M  V30 12 2 11 13
M  V30 13 1 2 14
M  V30 14 1 14 15
M  V30 15 2 15 16
M  V30 16 1 16 17
M  V30 17 2 17 18
M  V30 18 1 18 19
M  V30 19 1 19 20
M  V30 20 1 20 21
M  V30 21 1 20 22
M  V30 22 1 18 23
M  V30 23 2 23 24
M  V30 24 1 13 7
M  V30 25 1 24 15
M  V30 26 1 3 25
M  V30 27 1 3 26
M  V30 28 1 8 27
M  V30 29 1 9 28
M  V30 30 1 10 29
M  V30 31 1 12 30
M  V30 32 1 13 31
M  V30 33 1 14 32
M  V30 34 1 16 33
M  V30 35 1 17 34
M  V30 36 1 20 35
M  V30 37 1 23 36
M  V30 38 1 24 37
M  V30 END BOND
M  V30 END CTAB
M  END
>  <Dataset>  (170) 
ChEMBL_Kinases

>  <Ligand_Instance>  (170) 
nan

>  <PDB_ID>  (170) 
nan

>  <Standardized_SMILES>  (170) 
O=C(COC(=O)c1cccc(O)c1)Nc1ccc(OC(F)F)cc1

>  <Name>  (170) 
nan

>  <Pocket>  (170) 
nan

>  <ATP_Site>  (170) 
nan

>  <Peripheral>  (170) 
nan

>  <Num_H_Atoms_ProtBoundConf>  (170) 
nan

>  <Num_Resolved_Atoms>  (170) 
nan

>  <Num_Not_Resolved_Atoms>  (170) 
nan

$$$$
CHEMBL1388458
     RDKit          3D

  0  0  0  0  0  0  0  0  0  0999 V3000
M  V30 BEGIN CTAB
M  V30 COUNTS 58 61 0 0 0
M  V30 BEGIN ATOM
M  V30 1 C -3.220035 -1.503692 0.320903 0
M  V30 2 C -2.538425 -2.170956 1.496039 0
M  V30 3 N -1.192752 -2.608975 1.166818 0
M  V30 4 C -0.105944 -1.831783 1.331709 0
M  V30 5 C 1.178207 -2.239969 1.021194 0
M  V30 6 C 2.326522 -1.356199 1.219533 0
M  V30 7 O 3.062385 -1.216395 2.228941 0
M  V30 8 N 2.742817 -0.492154 0.166881 0
M  V30 9 C 3.842698 0.398355 0.265608 0
M  V30 10 C 3.465806 1.852425 0.081718 0
M  V30 11 N 2.034743 1.888002 -0.248526 0
M  V30 12 C 1.058793 2.581422 0.516712 0
M  V30 13 C 1.584455 3.511459 1.392181 0
M  V30 14 C 0.772348 4.287285 2.178022 0
M  V30 15 C -0.622900 4.180050 2.136214 0
M  V30 16 C -1.143097 3.251644 1.262434 0
M  V30 17 C -2.610514 3.050133 1.132582 0
M  V30 18 C -0.314936 2.477195 0.477739 0
M  V30 19 C -0.895738 1.485490 -0.431266 0
M  V30 20 C 1.944509 1.115290 -1.477110 0
M  V30 21 C 2.217331 -0.305406 -1.147001 0
M  V30 22 C 1.359589 -3.519055 0.511989 0
M  V30 23 O 2.504079 -3.958727 0.206303 0
M  V30 24 C 0.227560 -4.316525 0.344839 0
M  V30 25 C 0.383768 -5.608574 -0.166117 0
M  V30 26 C -0.713332 -6.447729 -0.353228 0
M  V30 27 C -1.962404 -5.936224 -0.007572 0
M  V30 28 C -3.186991 -6.772923 -0.178232 0
M  V30 29 N -2.108130 -4.691497 0.484083 0
M  V30 30 C -1.045739 -3.856968 0.673629 0
M  V30 31 H -4.029437 -2.140775 -0.106383 0
M  V30 32 H -2.510279 -1.326352 -0.529317 0
M  V30 33 H -3.678664 -0.529620 0.600062 0
M  V30 34 H -2.472927 -1.472963 2.375855 0
M  V30 35 H -3.173085 -3.011326 1.800626 0
M  V30 36 H -0.271294 -0.828890 1.733784 0
M  V30 37 H 4.627583 0.095703 -0.453536 0
M  V30 38 H 4.310743 0.223605 1.269809 0
M  V30 39 H 4.087696 2.227254 -0.786402 0
M  V30 40 H 3.760411 2.464320 0.918339 0
M  V30 41 H 2.584962 3.814486 1.633633 0
M  V30 42 H 1.042179 5.055351 2.907722 0
M  V30 43 H -1.345289 4.737307 2.706497 0
M  V30 44 H -2.968126 3.227318 0.085888 0
M  V30 45 H -3.118241 3.843630 1.739173 0
M  V30 46 H -2.956549 2.087124 1.558492 0
M  V30 47 H -0.438037 0.477356 -0.389826 0
M  V30 48 H -1.935795 1.263559 -0.002964 0
M  V30 49 H -1.152881 1.851785 -1.441414 0
M  V30 50 H 1.019584 1.258036 -2.053594 0
M  V30 51 H 2.731844 1.443191 -2.235460 0
M  V30 52 H 1.282805 -0.908986 -1.283075 0
M  V30 53 H 2.988730 -0.695364 -1.866229 0
M  V30 54 H 1.374290 -6.003233 -0.435992 0
M  V30 55 H -0.601390 -7.453817 -0.749890 0
M  V30 56 H -3.535106 -7.197082 0.784507 0
M  V30 57 H -2.928927 -7.611177 -0.851852 0
M  V30 58 H -3.994865 -6.173289 -0.648208 0
M  V30 END ATOM
M  V30 BEGIN BOND
M  V30 1 1 1 2
M  V30 2 1 2 3
M  V30 3 1 3 4
M  V30 4 2 4 5
M  V30 5 1 5 6
M  V30 6 2 6 7
M  V30 7 1 6 8
M  V30 8 1 8 9
M  V30 9 1 9 10
M  V30 10 1 10 11
M  V30 11 1 11 12
M  V30 12 2 12 13
M  V30 13 1 13 14
M  V30 14 2 14 15
M  V30 15 1 15 16
M  V30 16 1 16 17
M  V30 17 2 16 18
M  V30 18 1 18 19
M  V30 19 1 11 20
M  V30 20 1 20 21
M  V30 21 1 5 22
M  V30 22 2 22 23
M  V30 23 1 22 24
M  V30 24 2 24 25
M  V30 25 1 25 26
M  V30 26 2 26 27
M  V30 27 1 27 28
M  V30 28 1 27 29
M  V30 29 2 29 30
M  V30 30 1 30 3
M  V30 31 1 21 8
M  V30 32 1 30 24
M  V30 33 1 18 12
M  V30 34 1 1 31
M  V30 35 1 1 32
M  V30 36 1 1 33
M  V30 37 1 2 34
M  V30 38 1 2 35
M  V30 39 1 4 36
M  V30 40 1 9 37
M  V30 41 1 9 38
M  V30 42 1 10 39
M  V30 43 1 10 40
M  V30 44 1 13 41
M  V30 45 1 14 42
M  V30 46 1 15 43
M  V30 47 1 17 44
M  V30 48 1 17 45
M  V30 49 1 17 46
M  V30 50 1 19 47
M  V30 51 1 19 48
M  V30 52 1 19 49
M  V30 53 1 20 50
M  V30 54 1 20 51
M  V30 55 1 21 52
M  V30 56 1 21 53
M  V30 57 1 25 54
M  V30 58 1 26 55
M  V30 59 1 28 56
M  V30 60 1 28 57
M  V30 61 1 28 58
M  V30 END BOND
M  V30 END CTAB
M  END
>  <Dataset>  (171) 
ChEMBL_Kinases

>  <Ligand_Instance>  (171) 
nan

>  <PDB_ID>  (171) 
nan

>  <Standardized_SMILES>  (171) 
CCn1cc(C(=O)N2CCN(c3cccc(C)c3C)CC2)c(=O)c2ccc(C)nc21

>  <Name>  (171) 
nan

>  <Pocket>  (171) 
nan

>  <ATP_Site>  (171) 
nan

>  <Peripheral>  (171) 
nan

>  <Num_H_Atoms_ProtBoundConf>  (171) 
nan

>  <Num_Resolved_Atoms>  (171) 
nan

>  <Num_Not_Resolved_Atoms>  (171) 
nan

$$$$
CHEMBL1388584
     RDKit          3D

  0  0  0  0  0  0  0  0  0  0999 V3000
M  V30 BEGIN CTAB
M  V30 COUNTS 40 42 0 0 0
M  V30 BEGIN ATOM
M  V30 1 C 0.595032 0.198396 3.919728 0
M  V30 2 C 0.172573 0.751777 2.783084 0
M  V30 3 C -1.248388 1.017267 2.446535 0
M  V30 4 N -1.607600 0.283872 1.239927 0
M  V30 5 C -2.134915 -1.043377 1.232256 0
M  V30 6 O -2.365997 -1.806212 2.186905 0
M  V30 7 C -2.377033 -1.387376 -0.164551 0
M  V30 8 O -3.704565 -1.652815 -0.450886 0
M  V30 9 C -1.556972 -2.564666 -0.676175 0
M  V30 10 C -0.116745 -2.310346 -0.571622 0
M  V30 11 O 0.052882 -2.028044 0.657494 0
M  V30 12 C 0.933155 -2.346908 -1.565515 0
M  V30 13 C 0.694581 -2.634477 -2.892676 0
M  V30 14 C 1.702708 -2.655463 -3.830639 0
M  V30 15 C 3.000779 -2.381056 -3.443027 0
M  V30 16 Cl 4.357743 -2.374327 -4.582769 0
M  V30 17 C 3.198411 -2.098705 -2.111419 0
M  V30 18 C 2.214942 -2.069246 -1.145282 0
M  V30 19 C -1.921762 -0.177449 -0.917208 0
M  V30 20 C -1.964389 -0.104136 -2.289551 0
M  V30 21 C -1.515863 1.078363 -2.875053 0
M  V30 22 C -1.061808 2.092470 -2.039175 0
M  V30 23 C -1.043688 1.959554 -0.668588 0
M  V30 24 C -1.476952 0.811581 -0.078491 0
M  V30 25 H -0.499750 0.234563 4.026124 0
M  V30 26 H 1.668035 0.102325 3.949802 0
M  V30 27 H 0.786967 1.092524 1.933130 0
M  V30 28 H -1.345737 2.129899 2.279346 0
M  V30 29 H -1.956821 0.776955 3.253626 0
M  V30 30 H -3.803272 -2.485202 -0.988960 0
M  V30 31 H -1.881055 -3.480537 -0.152458 0
M  V30 32 H -1.808620 -2.705211 -1.742739 0
M  V30 33 H -0.328548 -2.857623 -3.235819 0
M  V30 34 H 1.506023 -2.879387 -4.879395 0
M  V30 35 H 4.216790 -1.882809 -1.791094 0
M  V30 36 H 2.445270 -1.842144 -0.110316 0
M  V30 37 H -2.311713 -0.871916 -2.967525 0
M  V30 38 H -1.534429 1.170083 -3.953398 0
M  V30 39 H -0.715322 3.014985 -2.508961 0
M  V30 40 H -0.696014 2.744714 -0.016684 0
M  V30 END ATOM
M  V30 BEGIN BOND
M  V30 1 2 1 2
M  V30 2 1 2 3
M  V30 3 1 3 4
M  V30 4 1 4 5
M  V30 5 2 5 6
M  V30 6 1 5 7
M  V30 7 1 7 8
M  V30 8 1 7 9
M  V30 9 1 9 10
M  V30 10 2 10 11
M  V30 11 1 10 12
M  V30 12 2 12 13
M  V30 13 1 13 14
M  V30 14 2 14 15
M  V30 15 1 15 16
M  V30 16 1 15 17
M  V30 17 2 17 18
M  V30 18 1 7 19
M  V30 19 2 19 20
M  V30 20 1 20 21
M  V30 21 2 21 22
M  V30 22 1 22 23
M  V30 23 2 23 24
M  V30 24 1 24 4
M  V30 25 1 18 12
M  V30 26 1 24 19
M  V30 27 1 1 25
M  V30 28 1 1 26
M  V30 29 1 2 27
M  V30 30 1 3 28
M  V30 31 1 3 29
M  V30 32 1 8 30
M  V30 33 1 9 31
M  V30 34 1 9 32
M  V30 35 1 13 33
M  V30 36 1 14 34
M  V30 37 1 17 35
M  V30 38 1 18 36
M  V30 39 1 20 37
M  V30 40 1 21 38
M  V30 41 1 22 39
M  V30 42 1 23 40
M  V30 END BOND
M  V30 END CTAB
M  END
>  <Dataset>  (172) 
ChEMBL_Kinases

>  <Ligand_Instance>  (172) 
nan

>  <PDB_ID>  (172) 
nan

>  <Standardized_SMILES>  (172) 
C=CCN1C(=O)C(O)(CC(=O)c2ccc(Cl)cc2)c2ccccc21

>  <Name>  (172) 
nan

>  <Pocket>  (172) 
nan

>  <ATP_Site>  (172) 
nan

>  <Peripheral>  (172) 
nan

>  <Num_H_Atoms_ProtBoundConf>  (172) 
nan

>  <Num_Resolved_Atoms>  (172) 
nan

>  <Num_Not_Resolved_Atoms>  (172) 
nan

$$$$
CHEMBL1388683
     RDKit          3D

  0  0  0  0  0  0  0  0  0  0999 V3000
M  V30 BEGIN CTAB
M  V30 COUNTS 45 47 0 0 0
M  V30 BEGIN ATOM
M  V30 1 C -0.323879 -6.240035 2.602219 0
M  V30 2 O -0.814691 -5.507439 1.485144 0
M  V30 3 C -0.120318 -4.424812 0.965362 0
M  V30 4 C 1.093529 -3.977262 1.488850 0
M  V30 5 C 1.669650 -2.889286 0.869557 0
M  V30 6 C 1.105363 -2.246972 -0.216582 0
M  V30 7 N 1.791724 -1.117658 -0.789038 0
M  V30 8 C 1.359558 0.077207 -0.150580 0
M  V30 9 O 0.499441 -0.030846 0.757493 0
M  V30 10 C 1.857397 1.403913 -0.491790 0
M  V30 11 C 2.793642 1.619312 -1.466127 0
M  V30 12 C 3.244559 2.895342 -1.764340 0
M  V30 13 C 2.709209 3.947793 -1.035675 0
M  V30 14 C 1.759652 3.762962 -0.042577 0
M  V30 15 C 1.343350 2.467387 0.215599 0
M  V30 16 N 0.355408 2.322372 1.255712 0
M  V30 17 C 0.448752 2.119331 2.678349 0
M  V30 18 O 1.637403 2.057272 3.086676 0
M  V30 19 C -0.853711 2.030783 3.329450 0
M  V30 20 C -2.174012 2.097128 2.893437 0
M  V30 21 C -2.909089 1.934771 4.050015 0
M  V30 22 C -2.038179 1.780955 5.110339 0
M  V30 23 O -0.830176 1.846050 4.625993 0
M  V30 24 C -0.091299 -2.697930 -0.722999 0
M  V30 25 O -0.578446 -2.005733 -1.797113 0
M  V30 26 C -1.758186 -2.243356 -2.501465 0
M  V30 27 C -0.688691 -3.787834 -0.118748 0
M  V30 28 H -0.953156 -7.115194 2.770196 0
M  V30 29 H 0.746662 -6.511120 2.427774 0
M  V30 30 H -0.376102 -5.629759 3.544867 0
M  V30 31 H 1.504010 -4.501918 2.335845 0
M  V30 32 H 2.612217 -2.576668 1.310649 0
M  V30 33 H 2.505310 -1.059649 -1.546993 0
M  V30 34 H 3.205221 0.794723 -2.028585 0
M  V30 35 H 3.984409 3.020017 -2.540944 0
M  V30 36 H 3.105883 4.933152 -1.318026 0
M  V30 37 H 1.413512 4.655194 0.459462 0
M  V30 38 H -0.526285 2.405559 0.692021 0
M  V30 39 H -2.369464 2.248175 1.837301 0
M  V30 40 H -4.005146 1.948892 3.975648 0
M  V30 41 H -2.503494 1.644614 6.078137 0
M  V30 42 H -2.345960 -1.281261 -2.461669 0
M  V30 43 H -1.601557 -2.426276 -3.584278 0
M  V30 44 H -2.426748 -2.985419 -2.019621 0
M  V30 45 H -1.628436 -4.129484 -0.528801 0
M  V30 END ATOM
M  V30 BEGIN BOND
M  V30 1 1 1 2
M  V30 2 1 2 3
M  V30 3 2 3 4
M  V30 4 1 4 5
M  V30 5 2 5 6
M  V30 6 1 6 7
M  V30 7 1 7 8
M  V30 8 2 8 9
M  V30 9 1 8 10
M  V30 10 2 10 11
M  V30 11 1 11 12
M  V30 12 2 12 13
M  V30 13 1 13 14
M  V30 14 2 14 15
M  V30 15 1 15 16
M  V30 16 1 16 17
M  V30 17 2 17 18
M  V30 18 1 17 19
M  V30 19 2 19 20
M  V30 20 1 20 21
M  V30 21 2 21 22
M  V30 22 1 22 23
M  V30 23 1 6 24
M  V30 24 1 24 25
M  V30 25 1 25 26
M  V30 26 2 24 27
M  V30 27 1 27 3
M  V30 28 1 15 10
M  V30 29 1 23 19
M  V30 30 1 1 28
M  V30 31 1 1 29
M  V30 32 1 1 30
M  V30 33 1 4 31
M  V30 34 1 5 32
M  V30 35 1 7 33
M  V30 36 1 11 34
M  V30 37 1 12 35
M  V30 38 1 13 36
M  V30 39 1 14 37
M  V30 40 1 16 38
M  V30 41 1 20 39
M  V30 42 1 21 40
M  V30 43 1 22 41
M  V30 44 1 26 42
M  V30 45 1 26 43
M  V30 46 1 26 44
M  V30 47 1 27 45
M  V30 END BOND
M  V30 END CTAB
M  END
>  <Dataset>  (173) 
ChEMBL_Kinases

>  <Ligand_Instance>  (173) 
nan

>  <PDB_ID>  (173) 
nan

>  <Standardized_SMILES>  (173) 
COc1ccc(NC(=O)c2ccccc2NC(=O)c2ccco2)c(OC)c1

>  <Name>  (173) 
nan

>  <Pocket>  (173) 
nan

>  <ATP_Site>  (173) 
nan

>  <Peripheral>  (173) 
nan

>  <Num_H_Atoms_ProtBoundConf>  (173) 
nan

>  <Num_Resolved_Atoms>  (173) 
nan

>  <Num_Not_Resolved_Atoms>  (173) 
nan

$$$$
CHEMBL1388701
     RDKit          3D

  0  0  0  0  0  0  0  0  0  0999 V3000
M  V30 BEGIN CTAB
M  V30 COUNTS 34 36 0 0 0
M  V30 BEGIN ATOM
M  V30 1 C -3.420247 -3.764411 2.483512 0
M  V30 2 C -2.345571 -3.095825 1.689611 0
M  V30 3 C -1.079286 -3.640445 1.926763 0
M  V30 4 C -0.001471 -3.088456 1.236943 0
M  V30 5 C -0.246834 -2.039695 0.362242 0
M  V30 6 N 0.886334 -1.528746 -0.305164 0
M  V30 7 C 1.017994 -0.430620 -1.189020 0
M  V30 8 N 0.911081 -0.740353 -2.485144 0
M  V30 9 C 0.992597 0.083714 -3.506322 0
M  V30 10 N 1.204612 1.358471 -3.194270 0
M  V30 11 C 1.320371 1.721938 -1.880006 0
M  V30 12 S 1.607991 3.370463 -1.096414 0
M  V30 13 C 1.590652 2.793184 0.521435 0
M  V30 14 C 1.770126 3.614737 1.740769 0
M  V30 15 C 1.376862 1.418691 0.449010 0
M  V30 16 C 1.310036 0.612280 1.707690 0
M  V30 17 C 1.237096 0.865646 -0.790621 0
M  V30 18 C -1.483755 -1.497265 0.120329 0
M  V30 19 C -2.540292 -2.044860 0.802741 0
M  V30 20 H -3.330041 -3.488508 3.575568 0
M  V30 21 H -4.431668 -3.447232 2.194008 0
M  V30 22 H -3.380822 -4.853814 2.453789 0
M  V30 23 H -0.883971 -4.454926 2.607261 0
M  V30 24 H 0.992400 -3.488983 1.399716 0
M  V30 25 H 1.849716 -1.915834 -0.243625 0
M  V30 26 H 0.917515 -0.090088 -4.555575 0
M  V30 27 H 2.735714 3.372065 2.205257 0
M  V30 28 H 0.974735 3.307487 2.451203 0
M  V30 29 H 1.706287 4.678542 1.459389 0
M  V30 30 H 1.816231 -0.384754 1.553723 0
M  V30 31 H 1.835441 1.165761 2.533630 0
M  V30 32 H 0.275228 0.491268 2.088359 0
M  V30 33 H -1.640823 -0.682498 -0.567283 0
M  V30 34 H -3.545843 -1.720419 0.708740 0
M  V30 END ATOM
M  V30 BEGIN BOND
M  V30 1 1 1 2
M  V30 2 2 2 3
M  V30 3 1 3 4
M  V30 4 2 4 5
M  V30 5 1 5 6
M  V30 6 1 6 7
M  V30 7 2 7 8
M  V30 8 1 8 9
M  V30 9 2 9 10
M  V30 10 1 10 11
M  V30 11 1 11 12
M  V30 12 1 12 13
M  V30 13 1 13 14
M  V30 14 2 13 15
M  V30 15 1 15 16
M  V30 16 1 15 17
M  V30 17 1 5 18
M  V30 18 2 18 19
M  V30 19 1 19 2
M  V30 20 1 17 7
M  V30 21 2 17 11
M  V30 22 1 1 20
M  V30 23 1 1 21
M  V30 24 1 1 22
M  V30 25 1 3 23
M  V30 26 1 4 24
M  V30 27 1 6 25
M  V30 28 1 9 26
M  V30 29 1 14 27
M  V30 30 1 14 28
M  V30 31 1 14 29
M  V30 32 1 16 30
M  V30 33 1 16 31
M  V30 34 1 16 32
M  V30 35 1 18 33
M  V30 36 1 19 34
M  V30 END BOND
M  V30 END CTAB
M  END
>  <Dataset>  (174) 
ChEMBL_Kinases

>  <Ligand_Instance>  (174) 
nan

>  <PDB_ID>  (174) 
nan

>  <Standardized_SMILES>  (174) 
Cc1ccc(Nc2ncnc3sc(C)c(C)c23)cc1

>  <Name>  (174) 
nan

>  <Pocket>  (174) 
nan

>  <ATP_Site>  (174) 
nan

>  <Peripheral>  (174) 
nan

>  <Num_H_Atoms_ProtBoundConf>  (174) 
nan

>  <Num_Resolved_Atoms>  (174) 
nan

>  <Num_Not_Resolved_Atoms>  (174) 
nan

$$$$
CHEMBL1387932
     RDKit          3D

  0  0  0  0  0  0  0  0  0  0999 V3000
M  V30 BEGIN CTAB
M  V30 COUNTS 49 51 0 0 0
M  V30 BEGIN ATOM
M  V30 1 C 4.486505 -0.761602 -1.514025 0
M  V30 2 C 4.360330 -0.451833 -0.065019 0
M  V30 3 C 5.491998 -0.109329 0.643942 0
M  V30 4 C 5.339205 0.171642 1.985568 0
M  V30 5 C 6.507691 0.545571 2.806688 0
M  V30 6 C 4.105782 0.113540 2.597437 0
M  V30 7 C 2.959930 -0.225841 1.912184 0
M  V30 8 N 1.731351 -0.262003 2.617558 0
M  V30 9 C 0.449616 -0.575772 2.138935 0
M  V30 10 O 0.281515 -0.873597 0.946672 0
M  V30 11 C -0.774477 -0.580888 2.978048 0
M  V30 12 C -1.988222 -0.964024 2.145115 0
M  V30 13 N -1.693825 -2.294654 1.636412 0
M  V30 14 S -2.964325 -2.914471 0.655338 0
M  V30 15 O -2.518539 -4.251046 0.138460 0
M  V30 16 O -4.259878 -3.034174 1.407121 0
M  V30 17 C -3.195463 -1.887340 -0.740259 0
M  V30 18 C -2.512442 -2.096219 -1.936972 0
M  V30 19 C -2.749675 -1.238091 -2.999903 0
M  V30 20 C -3.634319 -0.184063 -2.924573 0
M  V30 21 C -4.302386 0.011039 -1.736746 0
M  V30 22 C -4.084450 -0.836388 -0.649048 0
M  V30 23 O -5.060954 1.061247 -1.947675 0
M  V30 24 C -4.892912 1.504889 -3.173799 0
M  V30 25 O -5.469580 2.505945 -3.715619 0
M  V30 26 N -3.990678 0.742269 -3.838544 0
M  V30 27 C -3.517849 0.886667 -5.210545 0
M  V30 28 C 3.160396 -0.497106 0.579652 0
M  V30 29 H 3.558444 -1.293851 -1.808752 0
M  V30 30 H 5.306667 -1.490279 -1.684333 0
M  V30 31 H 4.620844 0.162814 -2.097704 0
M  V30 32 H 6.454117 -0.067123 0.152973 0
M  V30 33 H 6.204639 1.146946 3.687005 0
M  V30 34 H 7.025394 -0.361435 3.155892 0
M  V30 35 H 7.181739 1.164494 2.163643 0
M  V30 36 H 4.036045 0.342688 3.652906 0
M  V30 37 H 1.723788 -0.032134 3.634216 0
M  V30 38 H -0.914712 0.370815 3.525720 0
M  V30 39 H -0.638118 -1.419577 3.707252 0
M  V30 40 H -2.850540 -0.948805 2.819771 0
M  V30 41 H -2.081038 -0.224667 1.322369 0
M  V30 42 H -1.510339 -2.913513 2.454616 0
M  V30 43 H -1.820173 -2.926492 -1.985710 0
M  V30 44 H -2.225529 -1.389658 -3.934700 0
M  V30 45 H -4.627624 -0.662603 0.288112 0
M  V30 46 H -4.212860 1.568572 -5.747077 0
M  V30 47 H -2.493567 1.354554 -5.147719 0
M  V30 48 H -3.409918 -0.086051 -5.707557 0
M  V30 49 H 2.322050 -0.769807 -0.028981 0
M  V30 END ATOM
M  V30 BEGIN BOND
M  V30 1 1 1 2
M  V30 2 2 2 3
M  V30 3 1 3 4
M  V30 4 1 4 5
M  V30 5 2 4 6
M  V30 6 1 6 7
M  V30 7 1 7 8
M  V30 8 1 8 9
M  V30 9 2 9 10
M  V30 10 1 9 11
M  V30 11 1 11 12
M  V30 12 1 12 13
M  V30 13 1 13 14
M  V30 14 2 14 15
M  V30 15 2 14 16
M  V30 16 1 14 17
M  V30 17 2 17 18
M  V30 18 1 18 19
M  V30 19 2 19 20
M  V30 20 1 20 21
M  V30 21 2 21 22
M  V30 22 1 21 23
M  V30 23 1 23 24
M  V30 24 2 24 25
M  V30 25 1 24 26
M  V30 26 1 26 27
M  V30 27 2 7 28
M  V30 28 1 28 2
M  V30 29 1 22 17
M  V30 30 1 26 20
M  V30 31 1 1 29
M  V30 32 1 1 30
M  V30 33 1 1 31
M  V30 34 1 3 32
M  V30 35 1 5 33
M  V30 36 1 5 34
M  V30 37 1 5 35
M  V30 38 1 6 36
M  V30 39 1 8 37
M  V30 40 1 11 38
M  V30 41 1 11 39
M  V30 42 1 12 40
M  V30 43 1 12 41
M  V30 44 1 13 42
M  V30 45 1 18 43
M  V30 46 1 19 44
M  V30 47 1 22 45
M  V30 48 1 27 46
M  V30 49 1 27 47
M  V30 50 1 27 48
M  V30 51 1 28 49
M  V30 END BOND
M  V30 END CTAB
M  END
>  <Dataset>  (175) 
ChEMBL_Kinases

>  <Ligand_Instance>  (175) 
nan

>  <PDB_ID>  (175) 
nan

>  <Standardized_SMILES>  (175) 
Cc1cc(C)cc(NC(=O)CCNS(=O)(=O)c2ccc3c(c2)oc(=O)n3C)c1

>  <Name>  (175) 
nan

>  <Pocket>  (175) 
nan

>  <ATP_Site>  (175) 
nan

>  <Peripheral>  (175) 
nan

>  <Num_H_Atoms_ProtBoundConf>  (175) 
nan

>  <Num_Resolved_Atoms>  (175) 
nan

>  <Num_Not_Resolved_Atoms>  (175) 
nan

$$$$
CHEMBL110739
     RDKit          3D

  0  0  0  0  0  0  0  0  0  0999 V3000
M  V30 BEGIN CTAB
M  V30 COUNTS 55 58 0 0 0
M  V30 BEGIN ATOM
M  V30 1 C -0.661582 -2.824300 -0.519750 0
M  V30 2 C -0.436549 -1.481358 -1.117079 0 CFG=2
M  V30 3 C 1.020338 -1.072572 -1.097188 0
M  V30 4 C 1.527569 -0.741186 0.253640 0 CFG=2
M  V30 5 O 1.897552 -1.908323 0.880645 0
M  V30 6 C 0.652069 0.171896 1.047821 0 CFG=1
M  V30 7 C -0.785608 -0.361489 0.987354 0 CFG=1
M  V30 8 C -1.688353 0.438867 1.894964 0
M  V30 9 C -1.218441 0.063207 3.297495 0
M  V30 10 C 0.120325 0.673480 3.434851 0
M  V30 11 C 0.356816 1.379755 4.526743 0
M  V30 12 C 1.636612 2.036608 4.789074 0
M  V30 13 O 1.997147 2.444902 5.904698 0
M  V30 14 C 2.527038 2.204931 3.624557 0
M  V30 15 C 1.887328 1.832268 2.327094 0
M  V30 16 C 1.135711 0.495094 2.394963 0 CFG=2
M  V30 17 C 2.178675 -0.488274 2.933645 0
M  V30 18 C -1.152579 -0.345721 -0.425804 0 CFG=2
M  V30 19 C -2.566983 -0.557926 -0.826068 0
M  V30 20 C -2.359916 -0.641624 -2.350241 0
M  V30 21 C -1.040220 -1.426060 -2.479685 0 CFG=2
M  V30 22 C -1.367367 -2.744995 -3.074516 0
M  V30 23 O -0.796943 -3.050032 -4.136744 0
M  V30 24 C -1.839039 -4.075070 -3.471774 0
M  V30 25 O -1.252952 -4.524004 -4.653022 0
M  V30 26 H -0.223431 -3.600209 -1.215724 0
M  V30 27 H -0.107396 -3.016511 0.434902 0
M  V30 28 H -1.699065 -3.096275 -0.355356 0
M  V30 29 H 1.595103 -1.936507 -1.495754 0
M  V30 30 H 1.172069 -0.237540 -1.829802 0
M  V30 31 H 2.490954 -0.171910 0.089498 0
M  V30 32 H 2.769088 -2.225797 0.516292 0
M  V30 33 H 0.583113 1.111353 0.420644 0
M  V30 34 H -0.753566 -1.381160 1.412093 0
M  V30 35 H -1.604878 1.527467 1.773502 0
M  V30 36 H -2.708438 0.095668 1.717813 0
M  V30 37 H -1.142098 -1.045931 3.299025 0
M  V30 38 H -1.966441 0.467995 3.987528 0
M  V30 39 H -0.433732 1.490393 5.285867 0
M  V30 40 H 2.719675 3.315870 3.561378 0
M  V30 41 H 3.529227 1.749332 3.761477 0
M  V30 42 H 2.683741 1.746435 1.555946 0
M  V30 43 H 1.138877 2.590545 2.018384 0
M  V30 44 H 3.095297 -0.516291 2.323123 0
M  V30 45 H 1.743615 -1.478050 3.171094 0
M  V30 46 H 2.530811 -0.105216 3.930693 0
M  V30 47 H -0.816095 0.602008 -0.893383 0
M  V30 48 H -3.032966 -1.480917 -0.480939 0
M  V30 49 H -3.248486 0.284154 -0.627968 0
M  V30 50 H -2.134038 0.386761 -2.698729 0
M  V30 51 H -3.189358 -1.134001 -2.859285 0
M  V30 52 H -0.334052 -0.890868 -3.133326 0
M  V30 53 H -1.640780 -4.817476 -2.675148 0
M  V30 54 H -2.955975 -4.090663 -3.645569 0
M  V30 55 H -1.886339 -4.581670 -5.386703 0
M  V30 END ATOM
M  V30 BEGIN BOND
M  V30 1 1 2 1 CFG=1
M  V30 2 1 2 3
M  V30 3 1 3 4
M  V30 4 1 4 5
M  V30 5 1 4 6
M  V30 6 1 6 7
M  V30 7 1 7 8
M  V30 8 1 8 9
M  V30 9 1 9 10
M  V30 10 2 10 11
M  V30 11 1 11 12
M  V30 12 2 12 13
M  V30 13 1 12 14
M  V30 14 1 14 15
M  V30 15 1 15 16
M  V30 16 1 16 17 CFG=1
M  V30 17 1 7 18
M  V30 18 1 18 19
M  V30 19 1 19 20
M  V30 20 1 20 21
M  V30 21 1 21 22
M  V30 22 2 22 23
M  V30 23 1 22 24
M  V30 24 1 24 25
M  V30 25 1 18 2
M  V30 26 1 21 2
M  V30 27 1 16 6
M  V30 28 1 16 10
M  V30 29 1 1 26
M  V30 30 1 1 27
M  V30 31 1 1 28
M  V30 32 1 3 29
M  V30 33 1 3 30
M  V30 34 1 4 31 CFG=3
M  V30 35 1 5 32
M  V30 36 1 6 33 CFG=3
M  V30 37 1 7 34 CFG=1
M  V30 38 1 8 35
M  V30 39 1 8 36
M  V30 40 1 9 37
M  V30 41 1 9 38
M  V30 42 1 11 39
M  V30 43 1 14 40
M  V30 44 1 14 41
M  V30 45 1 15 42
M  V30 46 1 15 43
M  V30 47 1 17 44
M  V30 48 1 17 45
M  V30 49 1 17 46
M  V30 50 1 18 47 CFG=3
M  V30 51 1 19 48
M  V30 52 1 19 49
M  V30 53 1 20 50
M  V30 54 1 20 51
M  V30 55 1 21 52 CFG=3
M  V30 56 1 24 53
M  V30 57 1 24 54
M  V30 58 1 25 55
M  V30 END BOND
M  V30 END CTAB
M  END
>  <Dataset>  (176) 
ChEMBL_Kinases

>  <Ligand_Instance>  (176) 
nan

>  <PDB_ID>  (176) 
nan

>  <Standardized_SMILES>  (176) 
C[C@]12C[C@H](O)[C@H]3[C@@H](CCC4=CC(=O)CC[C@@]43C)[C@@H]1CC[C@@H]2C(=O)CO

>  <Name>  (176) 
CORTICOSTERONE

>  <Pocket>  (176) 
nan

>  <ATP_Site>  (176) 
nan

>  <Peripheral>  (176) 
nan

>  <Num_H_Atoms_ProtBoundConf>  (176) 
nan

>  <Num_Resolved_Atoms>  (176) 
nan

>  <Num_Not_Resolved_Atoms>  (176) 
nan

$$$$
CHEMBL110691
     RDKit          3D

  0  0  0  0  0  0  0  0  0  0999 V3000
M  V30 BEGIN CTAB
M  V30 COUNTS 57 60 0 0 0
M  V30 BEGIN ATOM
M  V30 1 C 2.036201 -4.669193 1.521963 0
M  V30 2 C 2.646297 -3.541858 0.766862 0
M  V30 3 O 3.900199 -3.468452 0.632475 0
M  V30 4 O 1.864325 -2.549413 0.194694 0
M  V30 5 C 2.387884 -1.449388 -0.537090 0 CFG=2
M  V30 6 C 3.152061 -1.883449 -1.712503 0
M  V30 7 C 3.897573 -1.184035 -2.779551 0
M  V30 8 O 3.213007 -3.102446 -1.889427 0
M  V30 9 C 3.171286 -0.477718 0.310761 0
M  V30 10 C 2.190416 0.634990 0.714841 0
M  V30 11 C 0.906735 -0.053880 0.469789 0 CFG=1
M  V30 12 C -0.357858 0.676283 0.550698 0 CFG=2
M  V30 13 C -0.515586 1.521979 1.754327 0
M  V30 14 C -1.509991 1.464747 2.654731 0
M  V30 15 Cl -1.625016 2.503695 4.056489 0
M  V30 16 C -2.537726 0.456782 2.407785 0
M  V30 17 C -3.218984 -0.021822 3.448113 0
M  V30 18 C -4.248254 -1.028680 3.217376 0
M  V30 19 O -4.532426 -1.787439 4.199566 0
M  V30 20 C -4.853486 -1.054983 1.850931 0
M  V30 21 C -3.710440 -1.106272 0.874359 0
M  V30 22 C -2.752180 0.029370 0.977255 0 CFG=1
M  V30 23 C -3.240951 1.203657 0.177425 0
M  V30 24 C -1.425091 -0.414560 0.499392 0 CFG=1
M  V30 25 C -1.373598 -0.959780 -0.902281 0
M  V30 26 C -0.035032 -1.582576 -1.151250 0
M  V30 27 C 1.133408 -0.662870 -0.878940 0 CFG=2
M  V30 28 C 1.291455 0.296553 -1.994852 0
M  V30 29 H 2.475270 -4.810902 2.533256 0
M  V30 30 H 0.964194 -4.407145 1.701985 0
M  V30 31 H 2.013669 -5.618766 0.950195 0
M  V30 32 H 3.433452 -1.422964 -3.779542 0
M  V30 33 H 3.913886 -0.089110 -2.698295 0
M  V30 34 H 4.940852 -1.605487 -2.886314 0
M  V30 35 H 4.011366 -0.015724 -0.230607 0
M  V30 36 H 3.563131 -0.892458 1.241182 0
M  V30 37 H 2.266008 0.860732 1.813491 0
M  V30 38 H 2.370740 1.568104 0.189888 0
M  V30 39 H 0.861591 -0.914387 1.192534 0
M  V30 40 H -0.520022 1.276003 -0.368053 0
M  V30 41 H 0.253677 2.258037 1.916319 0
M  V30 42 H -3.005584 0.335660 4.440569 0
M  V30 43 H -5.458319 -0.152443 1.761719 0
M  V30 44 H -5.406369 -2.008525 1.761334 0
M  V30 45 H -4.159519 -1.101148 -0.154343 0
M  V30 46 H -3.202190 -2.099849 1.036573 0
M  V30 47 H -2.667505 1.406530 -0.728190 0
M  V30 48 H -3.274089 2.142125 0.784202 0
M  V30 49 H -4.309132 1.031094 -0.116851 0
M  V30 50 H -1.092641 -1.248281 1.169836 0
M  V30 51 H -2.123463 -1.767254 -1.017544 0
M  V30 52 H -1.574540 -0.214229 -1.683294 0
M  V30 53 H 0.060129 -2.448810 -0.469452 0
M  V30 54 H 0.023695 -1.980408 -2.188205 0
M  V30 55 H 0.305280 0.778574 -2.159630 0
M  V30 56 H 1.532826 -0.256826 -2.906808 0
M  V30 57 H 2.011394 1.094863 -1.848806 0
M  V30 END ATOM
M  V30 BEGIN BOND
M  V30 1 1 1 2
M  V30 2 2 2 3
M  V30 3 1 2 4
M  V30 4 1 5 4 CFG=1
M  V30 5 1 5 6
M  V30 6 1 6 7
M  V30 7 2 6 8
M  V30 8 1 5 9
M  V30 9 1 9 10
M  V30 10 1 10 11
M  V30 11 1 11 12
M  V30 12 1 12 13
M  V30 13 2 13 14
M  V30 14 1 14 15
M  V30 15 1 14 16
M  V30 16 2 16 17
M  V30 17 1 17 18
M  V30 18 2 18 19
M  V30 19 1 18 20
M  V30 20 1 20 21
M  V30 21 1 21 22
M  V30 22 1 22 23 CFG=3
M  V30 23 1 22 24
M  V30 24 1 24 25
M  V30 25 1 25 26
M  V30 26 1 26 27
M  V30 27 1 27 28 CFG=3
M  V30 28 1 27 5
M  V30 29 1 27 11
M  V30 30 1 24 12
M  V30 31 1 22 16
M  V30 32 1 1 29
M  V30 33 1 1 30
M  V30 34 1 1 31
M  V30 35 1 7 32
M  V30 36 1 7 33
M  V30 37 1 7 34
M  V30 38 1 9 35
M  V30 39 1 9 36
M  V30 40 1 10 37
M  V30 41 1 10 38
M  V30 42 1 11 39 CFG=1
M  V30 43 1 12 40 CFG=3
M  V30 44 1 13 41
M  V30 45 1 17 42
M  V30 46 1 20 43
M  V30 47 1 20 44
M  V30 48 1 21 45
M  V30 49 1 21 46
M  V30 50 1 23 47
M  V30 51 1 23 48
M  V30 52 1 23 49
M  V30 53 1 24 50 CFG=1
M  V30 54 1 25 51
M  V30 55 1 25 52
M  V30 56 1 26 53
M  V30 57 1 26 54
M  V30 58 1 28 55
M  V30 59 1 28 56
M  V30 60 1 28 57
M  V30 END BOND
M  V30 END CTAB
M  END
>  <Dataset>  (177) 
ChEMBL_Kinases

>  <Ligand_Instance>  (177) 
nan

>  <PDB_ID>  (177) 
nan

>  <Standardized_SMILES>  (177) 
CC(=O)O[C@]1(C(C)=O)CC[C@H]2[C@@H]3C=C(Cl)C4=CC(=O)CC[C@]4(C)[C@H]3CC[C@@]21C

>  <Name>  (177) 
CHLORMADINONE ACETATE

>  <Pocket>  (177) 
nan

>  <ATP_Site>  (177) 
nan

>  <Peripheral>  (177) 
nan

>  <Num_H_Atoms_ProtBoundConf>  (177) 
nan

>  <Num_Resolved_Atoms>  (177) 
nan

>  <Num_Not_Resolved_Atoms>  (177) 
nan

$$$$
CHEMBL110381
     RDKit          3D

  0  0  0  0  0  0  0  0  0  0999 V3000
M  V30 BEGIN CTAB
M  V30 COUNTS 23 25 0 0 0
M  V30 BEGIN ATOM
M  V30 1 O 3.527495 1.432210 1.360157 0
M  V30 2 C 2.396847 0.640494 1.194617 0
M  V30 3 N 2.398037 -0.696350 1.432190 0
M  V30 4 C 1.295879 -1.447338 1.267135 0
M  V30 5 N 1.359975 -2.773101 1.519758 0
M  V30 6 C 0.295774 -3.577454 1.374433 0
M  V30 7 C -0.914477 -3.061622 0.955294 0
M  V30 8 C -1.045995 -1.712337 0.680249 0
M  V30 9 C 0.082282 -0.944508 0.849400 0
M  V30 10 C 0.041444 0.405969 0.598676 0
M  V30 11 C -1.128302 0.997043 0.177148 0
M  V30 12 C -1.161035 2.368570 -0.075125 0
M  V30 13 C 0.016765 3.099834 0.113908 0
M  V30 14 C 1.199649 2.530062 0.535218 0
M  V30 15 C 1.187115 1.153799 0.776071 0
M  V30 16 H 4.315758 1.067261 1.858893 0
M  V30 17 H 0.390059 -4.623274 1.585544 0
M  V30 18 H -1.747000 -3.759478 0.853772 0
M  V30 19 H -1.988183 -1.383846 0.366902 0
M  V30 20 H -2.051581 0.520601 0.011778 0
M  V30 21 H -2.038350 2.926934 -0.411699 0
M  V30 22 H 0.006235 4.162121 -0.077483 0
M  V30 23 H 2.076254 3.151248 0.662275 0
M  V30 END ATOM
M  V30 BEGIN BOND
M  V30 1 1 1 2
M  V30 2 2 2 3
M  V30 3 1 3 4
M  V30 4 2 4 5
M  V30 5 1 5 6
M  V30 6 2 6 7
M  V30 7 1 7 8
M  V30 8 2 8 9
M  V30 9 1 9 10
M  V30 10 2 10 11
M  V30 11 1 11 12
M  V30 12 2 12 13
M  V30 13 1 13 14
M  V30 14 2 14 15
M  V30 15 1 15 2
M  V30 16 1 9 4
M  V30 17 1 15 10
M  V30 18 1 1 16
M  V30 19 1 6 17
M  V30 20 1 7 18
M  V30 21 1 8 19
M  V30 22 1 11 20
M  V30 23 1 12 21
M  V30 24 1 13 22
M  V30 25 1 14 23
M  V30 END BOND
M  V30 END CTAB
M  END
>  <Dataset>  (178) 
ChEMBL_Kinases

>  <Ligand_Instance>  (178) 
nan

>  <PDB_ID>  (178) 
nan

>  <Standardized_SMILES>  (178) 
Oc1nc2ncccc2c2ccccc12

>  <Name>  (178) 
nan

>  <Pocket>  (178) 
nan

>  <ATP_Site>  (178) 
nan

>  <Peripheral>  (178) 
nan

>  <Num_H_Atoms_ProtBoundConf>  (178) 
nan

>  <Num_Resolved_Atoms>  (178) 
nan

>  <Num_Not_Resolved_Atoms>  (178) 
nan

$$$$
CHEMBL110256
     RDKit          3D

  0  0  0  0  0  0  0  0  0  0999 V3000
M  V30 BEGIN CTAB
M  V30 COUNTS 60 61 0 0 0
M  V30 BEGIN ATOM
M  V30 1 C 0.657498 -1.912367 6.135369 0
M  V30 2 C 1.998764 -2.339207 5.586442 0
M  V30 3 C 2.690931 -1.233671 4.850929 0
M  V30 4 C 1.855026 -0.744671 3.661621 0
M  V30 5 C 2.647327 0.339598 3.025908 0
M  V30 6 C 2.157186 1.035358 1.834856 0
M  V30 7 C 0.938458 1.855222 1.932982 0
M  V30 8 C -0.337857 1.193637 2.305239 0
M  V30 9 C -0.656893 0.109984 1.286054 0
M  V30 10 C -0.808122 0.770183 -0.022887 0
M  V30 11 C -0.269982 0.591175 -1.198022 0
M  V30 12 C -0.429848 1.265518 -2.507561 0
M  V30 13 C 0.442198 0.456498 -3.411245 0
M  V30 14 C 1.028045 1.337295 -4.460271 0
M  V30 15 O 0.024075 1.862155 -5.252157 0
M  V30 16 C -0.410351 -0.655709 -3.977756 0
M  V30 17 O -1.054243 -1.347649 -2.925469 0
M  V30 18 C -1.897882 -2.417163 -3.175310 0
M  V30 19 O -1.979165 -2.641910 -4.414545 0
M  V30 20 C -2.579158 -3.156113 -2.131665 0
M  V30 21 C -2.487091 -2.907637 -0.790979 0
M  V30 22 C -3.159395 -3.645467 0.152165 0
M  V30 23 C -3.983187 -4.701797 -0.210125 0
M  V30 24 C -4.077871 -4.954745 -1.563157 0
M  V30 25 C -3.394613 -4.204916 -2.521731 0
M  V30 26 O 1.399501 -0.121537 -2.557303 0
M  V30 27 C 0.687981 -0.487938 -1.396338 0
M  V30 28 O 0.817707 -1.518663 -0.655915 0
M  V30 29 H 0.670140 -0.869079 6.510932 0
M  V30 30 H -0.135379 -2.028165 5.352372 0
M  V30 31 H 0.352755 -2.623431 6.947423 0
M  V30 32 H 2.632809 -2.584695 6.463282 0
M  V30 33 H 1.869540 -3.193362 4.898135 0
M  V30 34 H 2.886906 -0.385598 5.519834 0
M  V30 35 H 3.657155 -1.568296 4.426699 0
M  V30 36 H 0.836045 -0.585709 3.926613 0
M  V30 37 H 1.848080 -1.608687 2.918967 0
M  V30 38 H 3.695124 -0.051640 2.748024 0
M  V30 39 H 2.955812 1.122302 3.815699 0
M  V30 40 H 2.961339 1.771873 1.440989 0
M  V30 41 H 2.057271 0.326851 0.950647 0
M  V30 42 H 0.780351 2.411075 0.937295 0
M  V30 43 H 1.106396 2.740567 2.630550 0
M  V30 44 H -0.515545 0.948036 3.338348 0
M  V30 45 H -1.198298 1.973402 2.108294 0
M  V30 46 H 0.187909 -0.599977 1.326896 0
M  V30 47 H -1.561804 -0.463946 1.580768 0
M  V30 48 H -1.545007 1.582509 0.061161 0
M  V30 49 H -1.494740 1.294572 -2.852537 0
M  V30 50 H -0.063775 2.304675 -2.367737 0
M  V30 51 H 1.499201 2.204661 -3.933445 0
M  V30 52 H 1.765357 0.769489 -5.060455 0
M  V30 53 H -0.476919 2.511853 -4.702083 0
M  V30 54 H 0.225204 -1.313798 -4.575684 0
M  V30 55 H -1.224094 -0.264690 -4.629891 0
M  V30 56 H -1.866114 -2.106429 -0.468319 0
M  V30 57 H -3.026432 -3.374972 1.207600 0
M  V30 58 H -4.487420 -5.249320 0.555382 0
M  V30 59 H -4.719114 -5.779044 -1.865620 0
M  V30 60 H -3.535122 -4.481452 -3.544399 0
M  V30 END ATOM
M  V30 BEGIN BOND
M  V30 1 1 1 2
M  V30 2 1 2 3
M  V30 3 1 3 4
M  V30 4 1 4 5
M  V30 5 1 5 6
M  V30 6 1 6 7
M  V30 7 1 7 8
M  V30 8 1 8 9
M  V30 9 1 9 10
M  V30 10 2 10 11
M  V30 11 1 11 12
M  V30 12 1 12 13
M  V30 13 1 13 14
M  V30 14 1 14 15
M  V30 15 1 13 16
M  V30 16 1 16 17
M  V30 17 1 17 18
M  V30 18 2 18 19
M  V30 19 1 18 20
M  V30 20 2 20 21
M  V30 21 1 21 22
M  V30 22 2 22 23
M  V30 23 1 23 24
M  V30 24 2 24 25
M  V30 25 1 13 26
M  V30 26 1 26 27
M  V30 27 2 27 28
M  V30 28 1 27 11
M  V30 29 1 25 20
M  V30 30 1 1 29
M  V30 31 1 1 30
M  V30 32 1 1 31
M  V30 33 1 2 32
M  V30 34 1 2 33
M  V30 35 1 3 34
M  V30 36 1 3 35
M  V30 37 1 4 36
M  V30 38 1 4 37
M  V30 39 1 5 38
M  V30 40 1 5 39
M  V30 41 1 6 40
M  V30 42 1 6 41
M  V30 43 1 7 42
M  V30 44 1 7 43
M  V30 45 1 8 44
M  V30 46 1 8 45
M  V30 47 1 9 46
M  V30 48 1 9 47
M  V30 49 1 10 48
M  V30 50 1 12 49
M  V30 51 1 12 50
M  V30 52 1 14 51
M  V30 53 1 14 52
M  V30 54 1 15 53
M  V30 55 1 16 54
M  V30 56 1 16 55
M  V30 57 1 21 56
M  V30 58 1 22 57
M  V30 59 1 23 58
M  V30 60 1 24 59
M  V30 61 1 25 60
M  V30 END BOND
M  V30 END CTAB
M  END
>  <Dataset>  (179) 
ChEMBL_Kinases

>  <Ligand_Instance>  (179) 
nan

>  <PDB_ID>  (179) 
nan

>  <Standardized_SMILES>  (179) 
CCCCCCCCC/C=C1/CC(CO)(COC(=O)c2ccccc2)OC1=O

>  <Name>  (179) 
nan

>  <Pocket>  (179) 
nan

>  <ATP_Site>  (179) 
nan

>  <Peripheral>  (179) 
nan

>  <Num_H_Atoms_ProtBoundConf>  (179) 
nan

>  <Num_Resolved_Atoms>  (179) 
nan

>  <Num_Not_Resolved_Atoms>  (179) 
nan

$$$$
CHEMBL109997
     RDKit          3D

  0  0  0  0  0  0  0  0  0  0999 V3000
M  V30 BEGIN CTAB
M  V30 COUNTS 60 61 0 0 0
M  V30 BEGIN ATOM
M  V30 1 C -0.890643 -2.157303 5.347501 0
M  V30 2 C -0.116215 -2.299855 4.057181 0
M  V30 3 C 1.074457 -1.368597 4.010139 0
M  V30 4 C 1.867927 -1.494619 2.721221 0
M  V30 5 C 3.050532 -0.543634 2.718075 0
M  V30 6 C 3.853548 -0.637816 1.469681 0
M  V30 7 C 3.138385 -0.332893 0.198687 0
M  V30 8 C 2.573489 1.071376 0.161913 0
M  V30 9 C 1.889861 1.267484 -1.132433 0
M  V30 10 C 0.636014 1.556089 -1.438353 0
M  V30 11 C -0.056944 1.753705 -2.713866 0
M  V30 12 C -1.517326 1.880035 -2.313482 0
M  V30 13 C -1.953123 3.325958 -2.571863 0
M  V30 14 O -3.261479 3.514208 -2.141103 0
M  V30 15 C -2.387532 0.924258 -3.082929 0
M  V30 16 O -2.047389 -0.406759 -2.953102 0
M  V30 17 C -2.062732 -1.174831 -1.819072 0
M  V30 18 O -2.403790 -0.782516 -0.682763 0
M  V30 19 C -1.622569 -2.578567 -2.048839 0
M  V30 20 C -1.650730 -3.383117 -0.801994 0
M  V30 21 C -0.512182 -3.416788 -0.015943 0
M  V30 22 C -0.583515 -4.174758 1.129586 0
M  V30 23 C -1.717512 -4.850879 1.462212 0
M  V30 24 C -2.856428 -4.819956 0.680264 0
M  V30 25 C -2.803985 -4.065808 -0.471444 0
M  V30 26 O -1.592297 1.608674 -0.954730 0
M  V30 27 C -0.321873 1.729981 -0.359611 0
M  V30 28 O -0.133079 1.942600 0.848691 0
M  V30 29 H -0.252942 -1.958472 6.209856 0
M  V30 30 H -1.634479 -1.340547 5.304310 0
M  V30 31 H -1.465600 -3.088921 5.496004 0
M  V30 32 H 0.210352 -3.357447 4.012490 0
M  V30 33 H -0.776378 -2.098178 3.212622 0
M  V30 34 H 0.805918 -0.331062 4.234711 0
M  V30 35 H 1.768002 -1.688533 4.824875 0
M  V30 36 H 1.169419 -1.315118 1.886040 0
M  V30 37 H 2.252716 -2.531305 2.635842 0
M  V30 38 H 2.741661 0.477961 3.000466 0
M  V30 39 H 3.706714 -0.888234 3.545076 0
M  V30 40 H 4.731580 0.022004 1.570587 0
M  V30 41 H 4.229114 -1.674709 1.391737 0
M  V30 42 H 3.902305 -0.368729 -0.606697 0
M  V30 43 H 2.387141 -1.098833 -0.066380 0
M  V30 44 H 3.479708 1.746996 0.119336 0
M  V30 45 H 2.030931 1.346663 1.052177 0
M  V30 46 H 2.558244 1.148188 -2.002331 0
M  V30 47 H 0.278692 2.654413 -3.268522 0
M  V30 48 H 0.013101 0.843064 -3.374097 0
M  V30 49 H -1.837966 3.529611 -3.642401 0
M  V30 50 H -1.315844 4.016875 -1.983668 0
M  V30 51 H -3.316828 3.777611 -1.191753 0
M  V30 52 H -2.502081 1.215418 -4.145505 0
M  V30 53 H -3.431471 1.050547 -2.650272 0
M  V30 54 H -0.597269 -2.549439 -2.468059 0
M  V30 55 H -2.276074 -3.059534 -2.822302 0
M  V30 56 H 0.384414 -2.874783 -0.290602 0
M  V30 57 H 0.278609 -4.235388 1.780010 0
M  V30 58 H -1.734585 -5.439020 2.375793 0
M  V30 59 H -3.757500 -5.343981 0.923849 0
M  V30 60 H -3.665802 -4.017752 -1.101943 0
M  V30 END ATOM
M  V30 BEGIN BOND
M  V30 1 1 1 2
M  V30 2 1 2 3
M  V30 3 1 3 4
M  V30 4 1 4 5
M  V30 5 1 5 6
M  V30 6 1 6 7
M  V30 7 1 7 8
M  V30 8 1 8 9
M  V30 9 2 9 10
M  V30 10 1 10 11
M  V30 11 1 11 12
M  V30 12 1 12 13
M  V30 13 1 13 14
M  V30 14 1 12 15
M  V30 15 1 15 16
M  V30 16 1 16 17
M  V30 17 2 17 18
M  V30 18 1 17 19
M  V30 19 1 19 20
M  V30 20 2 20 21
M  V30 21 1 21 22
M  V30 22 2 22 23
M  V30 23 1 23 24
M  V30 24 2 24 25
M  V30 25 1 12 26
M  V30 26 1 26 27
M  V30 27 2 27 28
M  V30 28 1 27 10
M  V30 29 1 25 20
M  V30 30 1 1 29
M  V30 31 1 1 30
M  V30 32 1 1 31
M  V30 33 1 2 32
M  V30 34 1 2 33
M  V30 35 1 3 34
M  V30 36 1 3 35
M  V30 37 1 4 36
M  V30 38 1 4 37
M  V30 39 1 5 38
M  V30 40 1 5 39
M  V30 41 1 6 40
M  V30 42 1 6 41
M  V30 43 1 7 42
M  V30 44 1 7 43
M  V30 45 1 8 44
M  V30 46 1 8 45
M  V30 47 1 9 46
M  V30 48 1 11 47
M  V30 49 1 11 48
M  V30 50 1 13 49
M  V30 51 1 13 50
M  V30 52 1 14 51
M  V30 53 1 15 52
M  V30 54 1 15 53
M  V30 55 1 19 54
M  V30 56 1 19 55
M  V30 57 1 21 56
M  V30 58 1 22 57
M  V30 59 1 23 58
M  V30 60 1 24 59
M  V30 61 1 25 60
M  V30 END BOND
M  V30 END CTAB
M  END
>  <Dataset>  (180) 
ChEMBL_Kinases

>  <Ligand_Instance>  (180) 
nan

>  <PDB_ID>  (180) 
nan

>  <Standardized_SMILES>  (180) 
CCCCCCCC/C=C1/CC(CO)(COC(=O)Cc2ccccc2)OC1=O

>  <Name>  (180) 
nan

>  <Pocket>  (180) 
nan

>  <ATP_Site>  (180) 
nan

>  <Peripheral>  (180) 
nan

>  <Num_H_Atoms_ProtBoundConf>  (180) 
nan

>  <Num_Resolved_Atoms>  (180) 
nan

>  <Num_Not_Resolved_Atoms>  (180) 
nan

$$$$
CHEMBL109944
     RDKit          3D

  0  0  0  0  0  0  0  0  0  0999 V3000
M  V30 BEGIN CTAB
M  V30 COUNTS 47 50 0 0 0
M  V30 BEGIN ATOM
M  V30 1 C -0.050271 -1.789803 5.454455 0
M  V30 2 O 1.082631 -1.594816 4.665071 0
M  V30 3 C 0.911791 -2.259517 3.448992 0
M  V30 4 C 2.135547 -2.064750 2.587242 0
M  V30 5 C 1.950536 -2.791876 1.252830 0
M  V30 6 N 0.769882 -2.258021 0.559957 0
M  V30 7 C 0.834605 -1.205836 -0.268346 0
M  V30 8 C -0.456723 -0.948475 -0.752049 0
M  V30 9 C -0.738734 0.141546 -1.672132 0
M  V30 10 C -0.219098 1.367577 -1.479840 0
M  V30 11 C 0.649743 2.006113 -0.496759 0
M  V30 12 C 1.709377 2.788509 -0.889409 0
M  V30 13 C 2.575572 3.447235 -0.024742 0
M  V30 14 C 2.325201 3.282177 1.340844 0
M  V30 15 C 1.281465 2.512383 1.779183 0
M  V30 16 C 0.442194 1.874318 0.863977 0
M  V30 17 O -0.594708 1.115370 1.380875 0
M  V30 18 C -0.699558 2.222092 -2.586914 0
M  V30 19 O -0.488004 3.455882 -2.849899 0
M  V30 20 N -1.528251 1.470377 -3.457238 0
M  V30 21 C -1.551030 0.171199 -2.884032 0
M  V30 22 O -2.183226 -0.828455 -3.348040 0
M  V30 23 C -1.211339 -1.898626 -0.153272 0
M  V30 24 C -2.569390 -2.117756 -0.266066 0
M  V30 25 C -3.148176 -3.151831 0.439708 0
M  V30 26 C -2.378649 -3.966961 1.256284 0
M  V30 27 N -1.056454 -3.742317 1.357472 0
M  V30 28 C -0.485191 -2.732967 0.670675 0
M  V30 29 H 0.083170 -1.259904 6.420018 0
M  V30 30 H -0.921058 -1.357784 4.932126 0
M  V30 31 H -0.241994 -2.875541 5.614825 0
M  V30 32 H 0.064112 -1.744470 2.933677 0
M  V30 33 H 0.621800 -3.294886 3.607917 0
M  V30 34 H 3.038172 -2.487636 3.043193 0
M  V30 35 H 2.217111 -0.988479 2.328532 0
M  V30 36 H 2.853905 -2.712147 0.637947 0
M  V30 37 H 1.759136 -3.843178 1.485946 0
M  V30 38 H 1.720092 -0.641123 -0.533041 0
M  V30 39 H 1.921357 2.931512 -1.945894 0
M  V30 40 H 3.395556 4.053209 -0.365050 0
M  V30 41 H 2.996154 3.792477 2.035310 0
M  V30 42 H 1.112495 2.403493 2.858577 0
M  V30 43 H -1.174816 1.506365 2.114575 0
M  V30 44 H -2.030830 1.736736 -4.323120 0
M  V30 45 H -3.184711 -1.499318 -0.891586 0
M  V30 46 H -4.187395 -3.359285 0.386288 0
M  V30 47 H -2.761913 -4.807085 1.852530 0
M  V30 END ATOM
M  V30 BEGIN BOND
M  V30 1 1 1 2
M  V30 2 1 2 3
M  V30 3 1 3 4
M  V30 4 1 4 5
M  V30 5 1 5 6
M  V30 6 1 6 7
M  V30 7 2 7 8
M  V30 8 1 8 9
M  V30 9 2 9 10
M  V30 10 1 10 11
M  V30 11 2 11 12
M  V30 12 1 12 13
M  V30 13 2 13 14
M  V30 14 1 14 15
M  V30 15 2 15 16
M  V30 16 1 16 17
M  V30 17 1 10 18
M  V30 18 2 18 19
M  V30 19 1 18 20
M  V30 20 1 20 21
M  V30 21 2 21 22
M  V30 22 1 8 23
M  V30 23 2 23 24
M  V30 24 1 24 25
M  V30 25 2 25 26
M  V30 26 1 26 27
M  V30 27 2 27 28
M  V30 28 1 28 6
M  V30 29 1 21 9
M  V30 30 1 28 23
M  V30 31 1 16 11
M  V30 32 1 1 29
M  V30 33 1 1 30
M  V30 34 1 1 31
M  V30 35 1 3 32
M  V30 36 1 3 33
M  V30 37 1 4 34
M  V30 38 1 4 35
M  V30 39 1 5 36
M  V30 40 1 5 37
M  V30 41 1 7 38
M  V30 42 1 12 39
M  V30 43 1 13 40
M  V30 44 1 14 41
M  V30 45 1 15 42
M  V30 46 1 17 43
M  V30 47 1 20 44
M  V30 48 1 24 45
M  V30 49 1 25 46
M  V30 50 1 26 47
M  V30 END BOND
M  V30 END CTAB
M  END
>  <Dataset>  (181) 
ChEMBL_Kinases

>  <Ligand_Instance>  (181) 
nan

>  <PDB_ID>  (181) 
nan

>  <Standardized_SMILES>  (181) 
COCCCn1cc(C2=C(c3ccccc3O)C(=O)NC2=O)c2cccnc21

>  <Name>  (181) 
nan

>  <Pocket>  (181) 
nan

>  <ATP_Site>  (181) 
nan

>  <Peripheral>  (181) 
nan

>  <Num_H_Atoms_ProtBoundConf>  (181) 
nan

>  <Num_Resolved_Atoms>  (181) 
nan

>  <Num_Not_Resolved_Atoms>  (181) 
nan

$$$$
CHEMBL1099298
     RDKit          3D

  0  0  0  0  0  0  0  0  0  0999 V3000
M  V30 BEGIN CTAB
M  V30 COUNTS 61 64 0 0 0
M  V30 BEGIN ATOM
M  V30 1 C 3.470868 0.430961 -1.677111 0
M  V30 2 C 3.222972 0.169848 -0.230065 0
M  V30 3 N 1.997813 0.752646 0.255497 0
M  V30 4 C 1.785967 1.980141 0.735192 0
M  V30 5 C 2.587036 3.176001 0.925474 0
M  V30 6 N 2.111352 4.280556 1.490240 0
M  V30 7 O 3.006984 5.182227 1.567438 0
M  V30 8 N 4.139287 4.756670 1.065923 0
M  V30 9 C 3.879393 3.490447 0.658625 0
M  V30 10 N 4.896152 2.771871 0.057485 0
M  V30 11 N 0.489812 1.949307 1.082834 0
M  V30 12 C -0.082072 0.778526 0.837054 0
M  V30 13 C -1.358192 0.301424 1.024336 0
M  V30 14 C -2.309562 1.210057 1.599313 0
M  V30 15 C -3.127139 1.963612 2.077445 0
M  V30 16 C -4.130080 2.881361 2.667258 0
M  V30 17 C -4.652920 2.354137 3.995000 0
M  V30 18 C -3.496339 4.226574 2.838046 0
M  V30 19 O -5.205023 2.925687 1.787009 0
M  V30 20 N -1.640474 -0.964257 0.665455 0
M  V30 21 C -0.727072 -1.800309 0.125207 0
M  V30 22 O -1.140133 -3.062658 -0.196638 0
M  V30 23 C -0.407387 -4.100016 -0.758712 0 CFG=2
M  V30 24 C -1.016375 -4.629569 -2.040338 0
M  V30 25 C -1.093518 -3.512195 -3.064062 0
M  V30 26 N 0.211843 -2.980989 -3.367402 0
M  V30 27 C -0.382091 -5.235664 0.231874 0
M  V30 28 C 0.795887 -5.911190 0.506255 0
M  V30 29 C 0.814236 -6.952663 1.415153 0
M  V30 30 C -0.336478 -7.332826 2.059957 0
M  V30 31 C -1.507086 -6.648669 1.776151 0
M  V30 32 C -1.557825 -5.600019 0.869581 0
M  V30 33 C 0.543685 -1.298455 -0.051894 0
M  V30 34 C 0.894057 -0.013220 0.294935 0
M  V30 35 H 4.536750 0.181823 -1.892895 0
M  V30 36 H 2.864610 -0.318926 -2.265121 0
M  V30 37 H 3.283674 1.459392 -2.016208 0
M  V30 38 H 3.170555 -0.969394 -0.133045 0
M  V30 39 H 4.124453 0.389341 0.359587 0
M  V30 40 H 5.676916 2.130418 -0.144185 0
M  V30 41 H 5.147224 2.892441 -0.965341 0
M  V30 42 H -4.016231 2.715320 4.828764 0
M  V30 43 H -5.698686 2.708818 4.087412 0
M  V30 44 H -4.559330 1.259400 3.982372 0
M  V30 45 H -3.355890 4.716319 1.856790 0
M  V30 46 H -4.167295 4.819759 3.501388 0
M  V30 47 H -2.535898 4.100100 3.380148 0
M  V30 48 H -5.322008 2.039902 1.361610 0
M  V30 49 H 0.634847 -3.766038 -0.927590 0
M  V30 50 H -1.986236 -5.070615 -1.823256 0
M  V30 51 H -0.336296 -5.404198 -2.447102 0
M  V30 52 H -1.554593 -3.859661 -4.008563 0
M  V30 53 H -1.780516 -2.746091 -2.645611 0
M  V30 54 H 0.120410 -1.940473 -3.544420 0
M  V30 55 H 0.659695 -3.378682 -4.214372 0
M  V30 56 H 1.699592 -5.603141 -0.008817 0
M  V30 57 H 1.702177 -7.498778 1.654407 0
M  V30 58 H -0.411365 -8.133278 2.782288 0
M  V30 59 H -2.439094 -6.943232 2.286729 0
M  V30 60 H -2.471543 -5.062586 0.644463 0
M  V30 61 H 1.308687 -1.917910 -0.476512 0
M  V30 END ATOM
M  V30 BEGIN BOND
M  V30 1 1 1 2
M  V30 2 1 2 3
M  V30 3 1 3 4
M  V30 4 1 4 5
M  V30 5 2 5 6
M  V30 6 1 6 7
M  V30 7 1 7 8
M  V30 8 2 8 9
M  V30 9 1 9 10
M  V30 10 2 4 11
M  V30 11 1 11 12
M  V30 12 2 12 13
M  V30 13 1 13 14
M  V30 14 3 14 15
M  V30 15 1 15 16
M  V30 16 1 16 17
M  V30 17 1 16 18
M  V30 18 1 16 19
M  V30 19 1 13 20
M  V30 20 2 20 21
M  V30 21 1 21 22
M  V30 22 1 22 23
M  V30 23 1 23 24
M  V30 24 1 24 25
M  V30 25 1 25 26
M  V30 26 1 23 27
M  V30 27 2 27 28
M  V30 28 1 28 29
M  V30 29 2 29 30
M  V30 30 1 30 31
M  V30 31 2 31 32
M  V30 32 1 21 33
M  V30 33 2 33 34
M  V30 34 1 34 3
M  V30 35 1 9 5
M  V30 36 1 34 12
M  V30 37 1 32 27
M  V30 38 1 1 35
M  V30 39 1 1 36
M  V30 40 1 1 37
M  V30 41 1 2 38
M  V30 42 1 2 39
M  V30 43 1 10 40
M  V30 44 1 10 41
M  V30 45 1 17 42
M  V30 46 1 17 43
M  V30 47 1 17 44
M  V30 48 1 18 45
M  V30 49 1 18 46
M  V30 50 1 18 47
M  V30 51 1 19 48
M  V30 52 1 23 49 CFG=3
M  V30 53 1 24 50
M  V30 54 1 24 51
M  V30 55 1 25 52
M  V30 56 1 25 53
M  V30 57 1 26 54
M  V30 58 1 26 55
M  V30 59 1 28 56
M  V30 60 1 29 57
M  V30 61 1 30 58
M  V30 62 1 31 59
M  V30 63 1 32 60
M  V30 64 1 33 61
M  V30 END BOND
M  V30 END CTAB
M  END
>  <Dataset>  (182) 
ChEMBL_Kinases

>  <Ligand_Instance>  (182) 
nan

>  <PDB_ID>  (182) 
nan

>  <Standardized_SMILES>  (182) 
CCn1c(-c2nonc2N)nc2c(C#CC(C)(C)O)nc(O[C@H](CCN)c3ccccc3)cc21

>  <Name>  (182) 
nan

>  <Pocket>  (182) 
nan

>  <ATP_Site>  (182) 
nan

>  <Peripheral>  (182) 
nan

>  <Num_H_Atoms_ProtBoundConf>  (182) 
nan

>  <Num_Resolved_Atoms>  (182) 
nan

>  <Num_Not_Resolved_Atoms>  (182) 
nan

$$$$
CHEMBL1099297
     RDKit          3D

  0  0  0  0  0  0  0  0  0  0999 V3000
M  V30 BEGIN CTAB
M  V30 COUNTS 61 64 0 0 0
M  V30 BEGIN ATOM
M  V30 1 C 3.219710 -1.919304 3.693091 0
M  V30 2 C 1.738853 -2.025587 3.828818 0
M  V30 3 N 0.976026 -0.977726 3.229347 0
M  V30 4 C 0.609764 0.195412 3.732740 0
M  V30 5 C 0.863365 0.852861 5.008132 0
M  V30 6 N 0.384538 2.059579 5.353397 0
M  V30 7 O 0.718860 2.455795 6.526576 0
M  V30 8 N 1.462333 1.530050 7.069925 0
M  V30 9 C 1.550968 0.547031 6.139666 0
M  V30 10 N 2.303729 -0.578876 6.456018 0
M  V30 11 N -0.138534 0.830115 2.816010 0
M  V30 12 C -0.249599 0.086531 1.750061 0
M  V30 13 C -0.916247 0.292962 0.560929 0
M  V30 14 C -1.607749 1.538432 0.397164 0
M  V30 15 C -2.188992 2.578499 0.239258 0
M  V30 16 C -2.885502 3.855508 0.024548 0
M  V30 17 C -4.244786 3.890106 0.677844 0
M  V30 18 C -1.963357 4.948007 0.525212 0
M  V30 19 O -3.132844 4.007498 -1.358064 0
M  V30 20 N -0.845454 -0.691677 -0.350196 0
M  V30 21 C -0.174852 -1.863804 -0.193857 0
M  V30 22 O -0.373600 -2.515972 -1.312161 0
M  V30 23 C -0.192085 -3.552337 -2.120197 0 CFG=1
M  V30 24 C -1.376103 -4.012633 -2.938914 0
M  V30 25 C -2.493975 -4.412642 -2.044271 0
M  V30 26 N -3.649089 -4.844319 -2.847639 0
M  V30 27 C 0.953447 -3.215452 -3.067072 0
M  V30 28 C 0.894180 -3.357250 -4.430570 0
M  V30 29 C 2.033173 -3.011468 -5.146039 0
M  V30 30 C 3.146926 -2.549937 -4.453023 0
M  V30 31 C 3.203421 -2.408995 -3.085148 0
M  V30 32 C 2.063388 -2.755027 -2.371643 0
M  V30 33 C 0.471068 -2.020446 1.003113 0
M  V30 34 C 0.444535 -1.063508 1.978531 0
M  V30 35 H 3.625523 -0.903388 3.878589 0
M  V30 36 H 3.592817 -2.353881 2.746846 0
M  V30 37 H 3.656047 -2.559795 4.513375 0
M  V30 38 H 1.409725 -2.364905 4.818287 0
M  V30 39 H 1.494914 -2.972638 3.202930 0
M  V30 40 H 3.342909 -0.467495 6.616480 0
M  V30 41 H 2.820408 -1.433746 6.686917 0
M  V30 42 H -4.727414 4.856475 0.389785 0
M  V30 43 H -4.803487 3.011104 0.251206 0
M  V30 44 H -4.197366 3.857889 1.771770 0
M  V30 45 H -1.842856 5.687784 -0.306805 0
M  V30 46 H -2.420371 5.520028 1.382706 0
M  V30 47 H -1.010036 4.552468 0.875787 0
M  V30 48 H -3.810820 3.293058 -1.584479 0
M  V30 49 H 0.214526 -4.453889 -1.586884 0
M  V30 50 H -1.019185 -4.901744 -3.516201 0
M  V30 51 H -1.724368 -3.223514 -3.626041 0
M  V30 52 H -2.214881 -5.312205 -1.427517 0
M  V30 53 H -2.774246 -3.634685 -1.302893 0
M  V30 54 H -4.486028 -4.894447 -2.194627 0
M  V30 55 H -3.896637 -4.052670 -3.513094 0
M  V30 56 H -0.026996 -3.725023 -4.852300 0
M  V30 57 H 1.979375 -3.126722 -6.213156 0
M  V30 58 H 3.982995 -2.308858 -5.094902 0
M  V30 59 H 4.087274 -2.045586 -2.581975 0
M  V30 60 H 2.123342 -2.641836 -1.290242 0
M  V30 61 H 0.991501 -2.953822 1.100280 0
M  V30 END ATOM
M  V30 BEGIN BOND
M  V30 1 1 1 2
M  V30 2 1 2 3
M  V30 3 1 3 4
M  V30 4 1 4 5
M  V30 5 2 5 6
M  V30 6 1 6 7
M  V30 7 1 7 8
M  V30 8 2 8 9
M  V30 9 1 9 10
M  V30 10 2 4 11
M  V30 11 1 11 12
M  V30 12 2 12 13
M  V30 13 1 13 14
M  V30 14 3 14 15
M  V30 15 1 15 16
M  V30 16 1 16 17
M  V30 17 1 16 18
M  V30 18 1 16 19
M  V30 19 1 13 20
M  V30 20 2 20 21
M  V30 21 1 21 22
M  V30 22 1 22 23
M  V30 23 1 23 24
M  V30 24 1 24 25
M  V30 25 1 25 26
M  V30 26 1 23 27
M  V30 27 2 27 28
M  V30 28 1 28 29
M  V30 29 2 29 30
M  V30 30 1 30 31
M  V30 31 2 31 32
M  V30 32 1 21 33
M  V30 33 2 33 34
M  V30 34 1 34 3
M  V30 35 1 9 5
M  V30 36 1 34 12
M  V30 37 1 32 27
M  V30 38 1 1 35
M  V30 39 1 1 36
M  V30 40 1 1 37
M  V30 41 1 2 38
M  V30 42 1 2 39
M  V30 43 1 10 40
M  V30 44 1 10 41
M  V30 45 1 17 42
M  V30 46 1 17 43
M  V30 47 1 17 44
M  V30 48 1 18 45
M  V30 49 1 18 46
M  V30 50 1 18 47
M  V30 51 1 19 48
M  V30 52 1 23 49 CFG=1
M  V30 53 1 24 50
M  V30 54 1 24 51
M  V30 55 1 25 52
M  V30 56 1 25 53
M  V30 57 1 26 54
M  V30 58 1 26 55
M  V30 59 1 28 56
M  V30 60 1 29 57
M  V30 61 1 30 58
M  V30 62 1 31 59
M  V30 63 1 32 60
M  V30 64 1 33 61
M  V30 END BOND
M  V30 END CTAB
M  END
>  <Dataset>  (183) 
ChEMBL_Kinases

>  <Ligand_Instance>  (183) 
nan

>  <PDB_ID>  (183) 
nan

>  <Standardized_SMILES>  (183) 
CCn1c(-c2nonc2N)nc2c(C#CC(C)(C)O)nc(O[C@@H](CCN)c3ccccc3)cc21

>  <Name>  (183) 
nan

>  <Pocket>  (183) 
nan

>  <ATP_Site>  (183) 
nan

>  <Peripheral>  (183) 
nan

>  <Num_H_Atoms_ProtBoundConf>  (183) 
nan

>  <Num_Resolved_Atoms>  (183) 
nan

>  <Num_Not_Resolved_Atoms>  (183) 
nan

$$$$
CHEMBL1099296
     RDKit          3D

  0  0  0  0  0  0  0  0  0  0999 V3000
M  V30 BEGIN CTAB
M  V30 COUNTS 58 61 0 0 0
M  V30 BEGIN ATOM
M  V30 1 C 3.836345 -0.655092 -1.510275 0
M  V30 2 C 2.794642 0.405101 -1.701000 0
M  V30 3 N 2.080225 0.786540 -0.532208 0
M  V30 4 C 2.388544 1.714569 0.373950 0
M  V30 5 C 3.498029 2.620518 0.558763 0
M  V30 6 N 3.563878 3.524750 1.556103 0
M  V30 7 O 4.621353 4.249286 1.531135 0
M  V30 8 N 5.355632 3.888703 0.510200 0
M  V30 9 C 4.669453 2.884620 -0.093521 0
M  V30 10 N 5.200640 2.267673 -1.211090 0
M  V30 11 N 1.359417 1.692669 1.234223 0
M  V30 12 C 0.443573 0.811650 0.914829 0
M  V30 13 C -0.757713 0.413483 1.451851 0
M  V30 14 C -1.150691 1.096411 2.652155 0
M  V30 15 C -1.503563 1.676444 3.661881 0
M  V30 16 C -1.932526 2.364866 4.896290 0
M  V30 17 C -0.948774 1.980681 5.969478 0
M  V30 18 C -3.317271 1.912935 5.329608 0
M  V30 19 O -1.923227 3.730574 4.632165 0
M  V30 20 N -1.478055 -0.546262 0.865295 0
M  V30 21 C -1.086404 -1.181444 -0.273829 0
M  V30 22 O -1.935557 -2.150858 -0.761167 0
M  V30 23 C -1.750363 -2.929454 -1.902682 0 CFG=2
M  V30 24 C -2.851562 -2.794832 -2.932669 0
M  V30 25 N -4.142984 -3.166732 -2.451480 0
M  V30 26 C -1.720639 -4.358462 -1.426127 0
M  V30 27 C -2.623228 -4.824909 -0.495390 0
M  V30 28 C -2.544055 -6.158400 -0.097268 0
M  V30 29 C -1.591972 -7.016368 -0.607696 0
M  V30 30 C -0.680001 -6.558524 -1.543309 0
M  V30 31 C -0.792817 -5.245292 -1.905798 0
M  V30 32 C 0.115822 -0.778909 -0.806175 0
M  V30 33 C 0.885466 0.206083 -0.230453 0
M  V30 34 H 4.210936 -0.615888 -0.466241 0
M  V30 35 H 3.467673 -1.686731 -1.698606 0
M  V30 36 H 4.715245 -0.516919 -2.177060 0
M  V30 37 H 3.184576 1.213400 -2.336090 0
M  V30 38 H 2.048869 -0.091465 -2.437098 0
M  V30 39 H 6.126195 1.901165 -1.498767 0
M  V30 40 H 6.139136 1.906971 -1.477151 0
M  V30 41 H 0.086791 1.827572 5.576413 0
M  V30 42 H -0.927417 2.793945 6.723817 0
M  V30 43 H -1.229817 0.995605 6.401096 0
M  V30 44 H -3.599843 0.944114 4.856456 0
M  V30 45 H -4.106532 2.632266 5.029059 0
M  V30 46 H -3.373309 1.769778 6.424029 0
M  V30 47 H -2.462701 3.859839 3.802535 0
M  V30 48 H -0.800311 -2.655402 -2.379422 0
M  V30 49 H -2.595460 -3.497519 -3.765018 0
M  V30 50 H -2.896097 -1.790187 -3.372944 0
M  V30 51 H -4.421762 -2.650934 -1.592383 0
M  V30 52 H -4.210118 -4.180868 -2.319309 0
M  V30 53 H -3.381643 -4.181253 -0.072701 0
M  V30 54 H -3.248829 -6.547044 0.637900 0
M  V30 55 H -1.532270 -8.045587 -0.299207 0
M  V30 56 H 0.089834 -7.173177 -1.983569 0
M  V30 57 H -0.090404 -4.861199 -2.637420 0
M  V30 58 H 0.470251 -1.250351 -1.706841 0
M  V30 END ATOM
M  V30 BEGIN BOND
M  V30 1 1 1 2
M  V30 2 1 2 3
M  V30 3 1 3 4
M  V30 4 1 4 5
M  V30 5 2 5 6
M  V30 6 1 6 7
M  V30 7 1 7 8
M  V30 8 2 8 9
M  V30 9 1 9 10
M  V30 10 2 4 11
M  V30 11 1 11 12
M  V30 12 2 12 13
M  V30 13 1 13 14
M  V30 14 3 14 15
M  V30 15 1 15 16
M  V30 16 1 16 17
M  V30 17 1 16 18
M  V30 18 1 16 19
M  V30 19 1 13 20
M  V30 20 2 20 21
M  V30 21 1 21 22
M  V30 22 1 22 23
M  V30 23 1 23 24
M  V30 24 1 24 25
M  V30 25 1 23 26
M  V30 26 2 26 27
M  V30 27 1 27 28
M  V30 28 2 28 29
M  V30 29 1 29 30
M  V30 30 2 30 31
M  V30 31 1 21 32
M  V30 32 2 32 33
M  V30 33 1 33 3
M  V30 34 1 9 5
M  V30 35 1 33 12
M  V30 36 1 31 26
M  V30 37 1 1 34
M  V30 38 1 1 35
M  V30 39 1 1 36
M  V30 40 1 2 37
M  V30 41 1 2 38
M  V30 42 1 10 39
M  V30 43 1 10 40
M  V30 44 1 17 41
M  V30 45 1 17 42
M  V30 46 1 17 43
M  V30 47 1 18 44
M  V30 48 1 18 45
M  V30 49 1 18 46
M  V30 50 1 19 47
M  V30 51 1 23 48 CFG=3
M  V30 52 1 24 49
M  V30 53 1 24 50
M  V30 54 1 25 51
M  V30 55 1 25 52
M  V30 56 1 27 53
M  V30 57 1 28 54
M  V30 58 1 29 55
M  V30 59 1 30 56
M  V30 60 1 31 57
M  V30 61 1 32 58
M  V30 END BOND
M  V30 END CTAB
M  END
>  <Dataset>  (184) 
ChEMBL_Kinases

>  <Ligand_Instance>  (184) 
nan

>  <PDB_ID>  (184) 
nan

>  <Standardized_SMILES>  (184) 
CCn1c(-c2nonc2N)nc2c(C#CC(C)(C)O)nc(O[C@H](CN)c3ccccc3)cc21

>  <Name>  (184) 
nan

>  <Pocket>  (184) 
nan

>  <ATP_Site>  (184) 
nan

>  <Peripheral>  (184) 
nan

>  <Num_H_Atoms_ProtBoundConf>  (184) 
nan

>  <Num_Resolved_Atoms>  (184) 
nan

>  <Num_Not_Resolved_Atoms>  (184) 
nan

$$$$
CHEMBL1099290
     RDKit          3D

  0  0  0  0  0  0  0  0  0  0999 V3000
M  V30 BEGIN CTAB
M  V30 COUNTS 50 52 0 0 0
M  V30 BEGIN ATOM
M  V30 1 C 1.735623 -4.084519 -1.849100 0
M  V30 2 C 1.724763 -2.655561 -2.341128 0
M  V30 3 N 1.492622 -1.743767 -1.236309 0
M  V30 4 C 2.460160 -1.196052 -0.481872 0
M  V30 5 C 3.893402 -1.416832 -0.636472 0
M  V30 6 N 4.540053 -2.184750 -1.529961 0
M  V30 7 O 5.835101 -2.090741 -1.307891 0
M  V30 8 N 6.054172 -1.290984 -0.304168 0
M  V30 9 C 4.869474 -0.841891 0.152223 0
M  V30 10 N 4.718075 0.054916 1.245187 0
M  V30 11 N 1.929513 -0.396465 0.460166 0
M  V30 12 C 0.594826 -0.426702 0.313453 0
M  V30 13 C -0.519509 0.125549 0.902769 0
M  V30 14 C -0.290321 1.013974 2.016614 0
M  V30 15 C -0.078221 1.762730 2.947433 0
M  V30 16 C 0.202612 2.660478 4.071073 0
M  V30 17 C 1.591021 2.437329 4.653651 0
M  V30 18 C 0.160198 4.060879 3.509852 0
M  V30 19 O -0.726866 2.537116 5.080595 0
M  V30 20 N -1.780709 -0.130067 0.484287 0
M  V30 21 C -2.037372 -0.952536 -0.550514 0
M  V30 22 C -3.404750 -1.260986 -1.042824 0
M  V30 23 N -3.982240 -2.417135 -0.380810 0
M  V30 24 C -5.314865 -2.596773 -0.966989 0
M  V30 25 C -4.157067 -2.200743 1.031084 0
M  V30 26 C -0.963903 -1.541900 -1.188927 0
M  V30 27 C 0.320513 -1.280485 -0.761392 0
M  V30 28 H 2.586687 -4.274826 -1.166934 0
M  V30 29 H 0.815169 -4.229975 -1.243681 0
M  V30 30 H 1.671860 -4.798161 -2.673670 0
M  V30 31 H 0.855537 -2.578001 -3.033178 0
M  V30 32 H 2.610949 -2.383558 -2.912491 0
M  V30 33 H 4.894364 1.026581 0.875250 0
M  V30 34 H 4.892611 1.026653 0.883288 0
M  V30 35 H 2.277782 3.280926 4.432838 0
M  V30 36 H 2.016729 1.571072 4.105291 0
M  V30 37 H 1.557691 2.157737 5.715386 0
M  V30 38 H -0.857888 4.401682 3.306202 0
M  V30 39 H 0.866546 4.170509 2.675157 0
M  V30 40 H 0.563060 4.735602 4.314547 0
M  V30 41 H -0.510790 1.690754 5.567919 0
M  V30 42 H -4.090793 -0.402955 -0.785822 0
M  V30 43 H -3.465565 -1.348691 -2.143007 0
M  V30 44 H -5.875344 -1.665191 -0.864975 0
M  V30 45 H -5.199771 -2.859510 -2.046711 0
M  V30 46 H -5.836688 -3.406729 -0.426752 0
M  V30 47 H -3.833446 -1.188908 1.354364 0
M  V30 48 H -5.198810 -2.364614 1.346678 0
M  V30 49 H -3.552488 -2.936591 1.626557 0
M  V30 50 H -1.152188 -2.209329 -2.027021 0
M  V30 END ATOM
M  V30 BEGIN BOND
M  V30 1 1 1 2
M  V30 2 1 2 3
M  V30 3 1 3 4
M  V30 4 1 4 5
M  V30 5 2 5 6
M  V30 6 1 6 7
M  V30 7 1 7 8
M  V30 8 2 8 9
M  V30 9 1 9 10
M  V30 10 2 4 11
M  V30 11 1 11 12
M  V30 12 2 12 13
M  V30 13 1 13 14
M  V30 14 3 14 15
M  V30 15 1 15 16
M  V30 16 1 16 17
M  V30 17 1 16 18
M  V30 18 1 16 19
M  V30 19 1 13 20
M  V30 20 2 20 21
M  V30 21 1 21 22
M  V30 22 1 22 23
M  V30 23 1 23 24
M  V30 24 1 23 25
M  V30 25 1 21 26
M  V30 26 2 26 27
M  V30 27 1 27 3
M  V30 28 1 9 5
M  V30 29 1 27 12
M  V30 30 1 1 28
M  V30 31 1 1 29
M  V30 32 1 1 30
M  V30 33 1 2 31
M  V30 34 1 2 32
M  V30 35 1 10 33
M  V30 36 1 10 34
M  V30 37 1 17 35
M  V30 38 1 17 36
M  V30 39 1 17 37
M  V30 40 1 18 38
M  V30 41 1 18 39
M  V30 42 1 18 40
M  V30 43 1 19 41
M  V30 44 1 22 42
M  V30 45 1 22 43
M  V30 46 1 24 44
M  V30 47 1 24 45
M  V30 48 1 24 46
M  V30 49 1 25 47
M  V30 50 1 25 48
M  V30 51 1 25 49
M  V30 52 1 26 50
M  V30 END BOND
M  V30 END CTAB
M  END
>  <Dataset>  (185) 
ChEMBL_Kinases

>  <Ligand_Instance>  (185) 
nan

>  <PDB_ID>  (185) 
nan

>  <Standardized_SMILES>  (185) 
CCn1c(-c2nonc2N)nc2c(C#CC(C)(C)O)nc(CN(C)C)cc21

>  <Name>  (185) 
nan

>  <Pocket>  (185) 
nan

>  <ATP_Site>  (185) 
nan

>  <Peripheral>  (185) 
nan

>  <Num_H_Atoms_ProtBoundConf>  (185) 
nan

>  <Num_Resolved_Atoms>  (185) 
nan

>  <Num_Not_Resolved_Atoms>  (185) 
nan

$$$$
CHEMBL1099281
     RDKit          3D

  0  0  0  0  0  0  0  0  0  0999 V3000
M  V30 BEGIN CTAB
M  V30 COUNTS 51 53 0 0 0
M  V30 BEGIN ATOM
M  V30 1 C 1.393686 -3.129014 -2.907798 0
M  V30 2 C 1.322272 -1.597506 -2.931475 0
M  V30 3 N 1.416326 -1.135457 -1.553156 0
M  V30 4 C 2.542883 -0.831195 -0.880573 0
M  V30 5 C 3.907294 -0.888118 -1.354193 0
M  V30 6 N 4.397069 -1.241936 -2.533697 0
M  V30 7 O 5.678026 -1.133404 -2.487884 0
M  V30 8 N 6.079010 -0.720815 -1.327084 0
M  V30 9 C 4.988180 -0.550742 -0.571255 0
M  V30 10 N 5.079562 -0.098699 0.777370 0
M  V30 11 N 2.153105 -0.453178 0.350134 0
M  V30 12 C 0.817955 -0.519350 0.444551 0
M  V30 13 C -0.082521 -0.251590 1.454153 0
M  V30 14 C 0.433062 0.202349 2.714835 0
M  V30 15 C 0.888672 0.587473 3.773031 0
M  V30 16 C 1.431815 1.075222 5.048581 0
M  V30 17 C 0.273310 1.600755 5.852893 0
M  V30 18 C 2.463006 2.147562 4.744105 0
M  V30 19 O 2.034171 0.033212 5.771108 0
M  V30 20 N -1.414435 -0.402766 1.290457 0
M  V30 21 C -1.921400 -0.833560 0.097933 0
M  V30 22 O -3.240172 -1.031107 -0.209082 0
M  V30 23 C -4.348563 -0.840626 0.612436 0
M  V30 24 C -5.583096 -1.206256 -0.222141 0 CFG=2
M  V30 25 C -5.470081 -2.665402 -0.614014 0
M  V30 26 N -5.666635 -0.352183 -1.396984 0
M  V30 27 C -1.042247 -1.106222 -0.921801 0
M  V30 28 C 0.330409 -0.957258 -0.773804 0
M  V30 29 H 0.430860 -3.458109 -2.424151 0
M  V30 30 H 2.198382 -3.484147 -2.244777 0
M  V30 31 H 1.433223 -3.561738 -3.907237 0
M  V30 32 H 2.212006 -1.249424 -3.477321 0
M  V30 33 H 0.368169 -1.301795 -3.401542 0
M  V30 34 H 5.352540 -0.527223 1.686387 0
M  V30 35 H 4.878422 0.834043 1.189579 0
M  V30 36 H 0.607869 2.575239 6.307740 0
M  V30 37 H 0.054670 0.927569 6.732166 0
M  V30 38 H -0.644255 1.748982 5.248831 0
M  V30 39 H 3.499365 1.712593 4.697059 0
M  V30 40 H 2.205290 2.614333 3.780437 0
M  V30 41 H 2.380711 2.884496 5.573851 0
M  V30 42 H 1.668619 -0.848704 5.482109 0
M  V30 43 H -4.457399 0.179387 1.030482 0
M  V30 44 H -4.298796 -1.576697 1.443100 0
M  V30 45 H -6.506370 -1.100944 0.381257 0
M  V30 46 H -4.393031 -2.863628 -0.846698 0
M  V30 47 H -5.684801 -3.262916 0.295535 0
M  V30 48 H -6.115294 -2.915421 -1.477276 0
M  V30 49 H -5.646608 -0.952064 -2.250705 0
M  V30 50 H -4.811054 0.256694 -1.422513 0
M  V30 51 H -1.345479 -1.457421 -1.918298 0
M  V30 END ATOM
M  V30 BEGIN BOND
M  V30 1 1 1 2
M  V30 2 1 2 3
M  V30 3 1 3 4
M  V30 4 1 4 5
M  V30 5 2 5 6
M  V30 6 1 6 7
M  V30 7 1 7 8
M  V30 8 2 8 9
M  V30 9 1 9 10
M  V30 10 2 4 11
M  V30 11 1 11 12
M  V30 12 2 12 13
M  V30 13 1 13 14
M  V30 14 3 14 15
M  V30 15 1 15 16
M  V30 16 1 16 17
M  V30 17 1 16 18
M  V30 18 1 16 19
M  V30 19 1 13 20
M  V30 20 2 20 21
M  V30 21 1 21 22
M  V30 22 1 22 23
M  V30 23 1 23 24
M  V30 24 1 24 25
M  V30 25 1 24 26
M  V30 26 1 21 27
M  V30 27 2 27 28
M  V30 28 1 28 3
M  V30 29 1 9 5
M  V30 30 1 28 12
M  V30 31 1 1 29
M  V30 32 1 1 30
M  V30 33 1 1 31
M  V30 34 1 2 32
M  V30 35 1 2 33
M  V30 36 1 10 34
M  V30 37 1 10 35
M  V30 38 1 17 36
M  V30 39 1 17 37
M  V30 40 1 17 38
M  V30 41 1 18 39
M  V30 42 1 18 40
M  V30 43 1 18 41
M  V30 44 1 19 42
M  V30 45 1 23 43
M  V30 46 1 23 44
M  V30 47 1 24 45 CFG=1
M  V30 48 1 25 46
M  V30 49 1 25 47
M  V30 50 1 25 48
M  V30 51 1 26 49
M  V30 52 1 26 50
M  V30 53 1 27 51
M  V30 END BOND
M  V30 END CTAB
M  END
>  <Dataset>  (186) 
ChEMBL_Kinases

>  <Ligand_Instance>  (186) 
nan

>  <PDB_ID>  (186) 
nan

>  <Standardized_SMILES>  (186) 
CCn1c(-c2nonc2N)nc2c(C#CC(C)(C)O)nc(OC[C@H](C)N)cc21

>  <Name>  (186) 
nan

>  <Pocket>  (186) 
nan

>  <ATP_Site>  (186) 
nan

>  <Peripheral>  (186) 
nan

>  <Num_H_Atoms_ProtBoundConf>  (186) 
nan

>  <Num_Resolved_Atoms>  (186) 
nan

>  <Num_Not_Resolved_Atoms>  (186) 
nan

$$$$
CHEMBL1099276
     RDKit          3D

  0  0  0  0  0  0  0  0  0  0999 V3000
M  V30 BEGIN CTAB
M  V30 COUNTS 58 61 0 0 0
M  V30 BEGIN ATOM
M  V30 1 C 3.578888 -2.881745 1.531821 0
M  V30 2 C 3.353373 -1.665629 0.670501 0
M  V30 3 N 2.365448 -0.754235 1.168373 0
M  V30 4 C 2.546708 0.258346 2.017223 0
M  V30 5 C 3.674447 0.798396 2.748967 0
M  V30 6 N 3.615653 1.883756 3.539080 0
M  V30 7 O 4.746654 2.188569 4.071156 0
M  V30 8 N 5.654721 1.337064 3.684652 0
M  V30 9 C 4.999795 0.485573 2.875870 0
M  V30 10 N 5.705500 -0.571788 2.304986 0
M  V30 11 N 1.338227 0.825708 2.139163 0
M  V30 12 C 0.433292 0.199401 1.402173 0
M  V30 13 C -0.909007 0.407717 1.206335 0
M  V30 14 C -1.514091 1.504886 1.909058 0
M  V30 15 C -2.022494 2.435438 2.484092 0
M  V30 16 C -2.631062 3.575062 3.207506 0
M  V30 17 C -1.547312 4.184990 4.036857 0
M  V30 18 C -3.754719 3.105527 4.104700 0
M  V30 19 O -3.140811 4.474946 2.266834 0
M  V30 20 N -1.596797 -0.404940 0.381160 0
M  V30 21 C -0.999229 -1.425369 -0.263021 0
M  V30 22 O -1.730962 -2.223664 -1.088653 0
M  V30 23 C -1.314588 -3.316286 -1.838377 0 CFG=1
M  V30 24 C -2.134403 -4.518144 -1.355472 0
M  V30 25 N -1.915076 -4.767409 0.046111 0
M  V30 26 C -1.714883 -3.068338 -3.264430 0
M  V30 27 C -0.848286 -3.304303 -4.309555 0
M  V30 28 C -1.158003 -3.096107 -5.637747 0
M  V30 29 C -2.442442 -2.613545 -5.913519 0
M  V30 30 C -3.315731 -2.375921 -4.858076 0
M  V30 31 C -2.981871 -2.592781 -3.530287 0
M  V30 32 C 0.346972 -1.651719 -0.080360 0
M  V30 33 C 1.063649 -0.831218 0.758734 0
M  V30 34 H 3.396522 -2.575419 2.602341 0
M  V30 35 H 2.859705 -3.692775 1.322578 0
M  V30 36 H 4.616419 -3.258136 1.473500 0
M  V30 37 H 4.270905 -1.214993 0.292865 0
M  V30 38 H 2.921766 -2.128594 -0.300107 0
M  V30 39 H 6.190009 -0.289993 1.425778 0
M  V30 40 H 6.221130 -0.344354 1.404341 0
M  V30 41 H -1.749958 5.278902 4.148204 0
M  V30 42 H -1.474903 3.683983 5.037990 0
M  V30 43 H -0.536816 4.110231 3.579765 0
M  V30 44 H -3.607836 2.048976 4.428260 0
M  V30 45 H -4.745810 3.176397 3.616855 0
M  V30 46 H -3.829522 3.694914 5.049207 0
M  V30 47 H -4.030303 4.802972 2.508476 0
M  V30 48 H -0.261601 -3.591678 -1.773054 0
M  V30 49 H -1.864125 -5.437285 -1.904620 0
M  V30 50 H -3.223005 -4.351343 -1.517061 0
M  V30 51 H -2.037340 -3.937064 0.643983 0
M  V30 52 H -1.070451 -5.333120 0.217596 0
M  V30 53 H 0.146745 -3.680376 -4.065119 0
M  V30 54 H -0.418175 -3.308220 -6.383448 0
M  V30 55 H -2.716672 -2.439681 -6.945596 0
M  V30 56 H -4.306753 -2.000190 -5.117649 0
M  V30 57 H -3.658977 -2.408187 -2.716791 0
M  V30 58 H 0.902092 -2.445055 -0.556886 0
M  V30 END ATOM
M  V30 BEGIN BOND
M  V30 1 1 1 2
M  V30 2 1 2 3
M  V30 3 1 3 4
M  V30 4 1 4 5
M  V30 5 2 5 6
M  V30 6 1 6 7
M  V30 7 1 7 8
M  V30 8 2 8 9
M  V30 9 1 9 10
M  V30 10 2 4 11
M  V30 11 1 11 12
M  V30 12 2 12 13
M  V30 13 1 13 14
M  V30 14 3 14 15
M  V30 15 1 15 16
M  V30 16 1 16 17
M  V30 17 1 16 18
M  V30 18 1 16 19
M  V30 19 1 13 20
M  V30 20 2 20 21
M  V30 21 1 21 22
M  V30 22 1 22 23
M  V30 23 1 23 24
M  V30 24 1 24 25
M  V30 25 1 23 26
M  V30 26 2 26 27
M  V30 27 1 27 28
M  V30 28 2 28 29
M  V30 29 1 29 30
M  V30 30 2 30 31
M  V30 31 1 21 32
M  V30 32 2 32 33
M  V30 33 1 33 3
M  V30 34 1 9 5
M  V30 35 1 33 12
M  V30 36 1 31 26
M  V30 37 1 1 34
M  V30 38 1 1 35
M  V30 39 1 1 36
M  V30 40 1 2 37
M  V30 41 1 2 38
M  V30 42 1 10 39
M  V30 43 1 10 40
M  V30 44 1 17 41
M  V30 45 1 17 42
M  V30 46 1 17 43
M  V30 47 1 18 44
M  V30 48 1 18 45
M  V30 49 1 18 46
M  V30 50 1 19 47
M  V30 51 1 23 48 CFG=3
M  V30 52 1 24 49
M  V30 53 1 24 50
M  V30 54 1 25 51
M  V30 55 1 25 52
M  V30 56 1 27 53
M  V30 57 1 28 54
M  V30 58 1 29 55
M  V30 59 1 30 56
M  V30 60 1 31 57
M  V30 61 1 32 58
M  V30 END BOND
M  V30 END CTAB
M  END
>  <Dataset>  (187) 
ChEMBL_Kinases

>  <Ligand_Instance>  (187) 
nan

>  <PDB_ID>  (187) 
nan

>  <Standardized_SMILES>  (187) 
CCn1c(-c2nonc2N)nc2c(C#CC(C)(C)O)nc(O[C@@H](CN)c3ccccc3)cc21

>  <Name>  (187) 
nan

>  <Pocket>  (187) 
nan

>  <ATP_Site>  (187) 
nan

>  <Peripheral>  (187) 
nan

>  <Num_H_Atoms_ProtBoundConf>  (187) 
nan

>  <Num_Resolved_Atoms>  (187) 
nan

>  <Num_Not_Resolved_Atoms>  (187) 
nan

$$$$
CHEMBL1098944
     RDKit          3D

  0  0  0  0  0  0  0  0  0  0999 V3000
M  V30 BEGIN CTAB
M  V30 COUNTS 51 53 0 0 0
M  V30 BEGIN ATOM
M  V30 1 C 1.856090 -1.830621 -3.835966 0
M  V30 2 C 1.697830 -0.383099 -3.383569 0
M  V30 3 N 1.583839 -0.308472 -1.939409 0
M  V30 4 C 2.563896 -0.175483 -1.028588 0
M  V30 5 C 3.992067 -0.074609 -1.299927 0
M  V30 6 N 4.631045 -0.091216 -2.483473 0
M  V30 7 O 5.921306 0.027026 -2.262383 0
M  V30 8 N 6.178262 0.120805 -1.010180 0
M  V30 9 C 4.984399 0.061464 -0.353463 0
M  V30 10 N 4.891640 0.135154 1.044504 0
M  V30 11 N 2.038333 -0.146435 0.209257 0
M  V30 12 C 0.683483 -0.263112 0.105495 0
M  V30 13 C -0.326739 -0.290987 1.044770 0
M  V30 14 C -0.020486 -0.184608 2.444664 0
M  V30 15 C 0.250076 -0.079909 3.616487 0
M  V30 16 C 0.604929 0.055707 5.046832 0
M  V30 17 C -0.533756 0.807070 5.698921 0
M  V30 18 C 1.929521 0.761322 5.167232 0
M  V30 19 O 0.731920 -1.189437 5.649977 0
M  V30 20 N -1.594242 -0.418730 0.627710 0
M  V30 21 C -1.933380 -0.521824 -0.669178 0
M  V30 22 O -3.186762 -0.655327 -1.205172 0
M  V30 23 C -4.364682 -0.707014 -0.440223 0
M  V30 24 C -4.337128 -1.881206 0.517473 0 CFG=1
M  V30 25 C -5.608159 -1.979093 1.318772 0
M  V30 26 N -4.214830 -3.082053 -0.280404 0
M  V30 27 C -0.920348 -0.493649 -1.607234 0
M  V30 28 C 0.420925 -0.364250 -1.265313 0
M  V30 29 H 1.365365 -2.458453 -3.035949 0
M  V30 30 H 2.916864 -2.111286 -3.833043 0
M  V30 31 H 1.310420 -2.035940 -4.764423 0
M  V30 32 H 2.600491 0.153119 -3.700479 0
M  V30 33 H 0.798763 0.064653 -3.869230 0
M  V30 34 H 4.042562 -0.306791 1.482570 0
M  V30 35 H 5.614482 0.597928 1.629344 0
M  V30 36 H -0.444146 1.916300 5.544018 0
M  V30 37 H -0.499387 0.603684 6.774723 0
M  V30 38 H -1.464000 0.392599 5.260760 0
M  V30 39 H 2.736796 0.030856 5.358570 0
M  V30 40 H 2.172381 1.288021 4.199977 0
M  V30 41 H 1.846301 1.546029 5.963889 0
M  V30 42 H 0.961129 -1.909020 5.014542 0
M  V30 43 H -5.271496 -0.727714 -1.075337 0
M  V30 44 H -4.439904 0.200759 0.198017 0
M  V30 45 H -3.500268 -1.752948 1.231439 0
M  V30 46 H -5.562359 -2.964560 1.853081 0
M  V30 47 H -5.715885 -1.192345 2.077484 0
M  V30 48 H -6.503302 -2.028226 0.640321 0
M  V30 49 H -3.685824 -3.794034 0.270005 0
M  V30 50 H -3.857120 -2.916071 -1.233865 0
M  V30 51 H -1.093207 -0.570681 -2.689368 0
M  V30 END ATOM
M  V30 BEGIN BOND
M  V30 1 1 1 2
M  V30 2 1 2 3
M  V30 3 1 3 4
M  V30 4 1 4 5
M  V30 5 2 5 6
M  V30 6 1 6 7
M  V30 7 1 7 8
M  V30 8 2 8 9
M  V30 9 1 9 10
M  V30 10 2 4 11
M  V30 11 1 11 12
M  V30 12 2 12 13
M  V30 13 1 13 14
M  V30 14 3 14 15
M  V30 15 1 15 16
M  V30 16 1 16 17
M  V30 17 1 16 18
M  V30 18 1 16 19
M  V30 19 1 13 20
M  V30 20 2 20 21
M  V30 21 1 21 22
M  V30 22 1 22 23
M  V30 23 1 23 24
M  V30 24 1 24 25
M  V30 25 1 24 26
M  V30 26 1 21 27
M  V30 27 2 27 28
M  V30 28 1 28 3
M  V30 29 1 9 5
M  V30 30 1 28 12
M  V30 31 1 1 29
M  V30 32 1 1 30
M  V30 33 1 1 31
M  V30 34 1 2 32
M  V30 35 1 2 33
M  V30 36 1 10 34
M  V30 37 1 10 35
M  V30 38 1 17 36
M  V30 39 1 17 37
M  V30 40 1 17 38
M  V30 41 1 18 39
M  V30 42 1 18 40
M  V30 43 1 18 41
M  V30 44 1 19 42
M  V30 45 1 23 43
M  V30 46 1 23 44
M  V30 47 1 24 45 CFG=1
M  V30 48 1 25 46
M  V30 49 1 25 47
M  V30 50 1 25 48
M  V30 51 1 26 49
M  V30 52 1 26 50
M  V30 53 1 27 51
M  V30 END BOND
M  V30 END CTAB
M  END
>  <Dataset>  (188) 
ChEMBL_Kinases

>  <Ligand_Instance>  (188) 
nan

>  <PDB_ID>  (188) 
nan

>  <Standardized_SMILES>  (188) 
CCn1c(-c2nonc2N)nc2c(C#CC(C)(C)O)nc(OC[C@@H](C)N)cc21

>  <Name>  (188) 
nan

>  <Pocket>  (188) 
nan

>  <ATP_Site>  (188) 
nan

>  <Peripheral>  (188) 
nan

>  <Num_H_Atoms_ProtBoundConf>  (188) 
nan

>  <Num_Resolved_Atoms>  (188) 
nan

>  <Num_Not_Resolved_Atoms>  (188) 
nan

$$$$
CHEMBL1098943
     RDKit          3D

  0  0  0  0  0  0  0  0  0  0999 V3000
M  V30 BEGIN CTAB
M  V30 COUNTS 51 53 0 0 0
M  V30 BEGIN ATOM
M  V30 1 C 2.384792 -1.791936 -3.758318 0
M  V30 2 C 2.114158 -0.348049 -3.401154 0
M  V30 3 N 1.889586 -0.243194 -1.960699 0
M  V30 4 C 2.779186 -0.026945 -0.974511 0
M  V30 5 C 4.215014 0.154880 -1.154661 0
M  V30 6 N 4.931742 0.147002 -2.292321 0
M  V30 7 O 6.191284 0.347029 -2.022806 0
M  V30 8 N 6.320061 0.487544 -0.721256 0
M  V30 9 C 5.112518 0.374652 -0.142762 0
M  V30 10 N 4.832472 0.465316 1.229569 0
M  V30 11 N 2.168322 0.001586 0.223912 0
M  V30 12 C 0.832721 -0.201284 0.033558 0
M  V30 13 C -0.301195 -0.284571 0.814365 0
M  V30 14 C -0.142625 -0.128864 2.233301 0
M  V30 15 C 0.005088 0.012996 3.425067 0
M  V30 16 C 0.189245 0.204906 4.880537 0
M  V30 17 C -1.079501 0.637283 5.553058 0
M  V30 18 C 1.276306 1.221455 5.101038 0
M  V30 19 O 0.621783 -0.988808 5.476264 0
M  V30 20 N -1.514414 -0.503247 0.277084 0
M  V30 21 C -1.705989 -0.654593 -1.045249 0
M  V30 22 O -2.913862 -0.882102 -1.684504 0
M  V30 23 C -4.141139 -0.987020 -0.994510 0
M  V30 24 C -4.114070 -2.125755 -0.008772 0
M  V30 25 N -5.372596 -2.239357 0.703506 0
M  V30 26 C -5.264705 -3.345131 1.619693 0
M  V30 27 C -0.591491 -0.578764 -1.876763 0
M  V30 28 C 0.676007 -0.353122 -1.345372 0
M  V30 29 H 3.480985 -1.945561 -3.717226 0
M  V30 30 H 2.083801 -1.945650 -4.821685 0
M  V30 31 H 1.850492 -2.491296 -3.086509 0
M  V30 32 H 1.243135 0.057968 -3.952980 0
M  V30 33 H 2.988342 0.245777 -3.662880 0
M  V30 34 H 5.061325 -0.370176 1.805654 0
M  V30 35 H 4.417161 1.283310 1.741498 0
M  V30 36 H -1.365130 -0.071898 6.374055 0
M  V30 37 H -1.947101 0.684631 4.881614 0
M  V30 38 H -0.994064 1.657549 6.022573 0
M  V30 39 H 2.264882 0.684203 5.160716 0
M  V30 40 H 1.289664 1.945427 4.279872 0
M  V30 41 H 1.161104 1.691334 6.110545 0
M  V30 42 H 0.304645 -1.018462 6.424854 0
M  V30 43 H -4.220487 -0.045973 -0.381350 0
M  V30 44 H -5.006341 -1.000451 -1.652768 0
M  V30 45 H -3.344033 -1.940376 0.764852 0
M  V30 46 H -3.835423 -3.051696 -0.541000 0
M  V30 47 H -6.184351 -2.281694 0.069983 0
M  V30 48 H -6.251853 -3.816790 1.817803 0
M  V30 49 H -4.912783 -2.986041 2.606893 0
M  V30 50 H -4.540360 -4.087268 1.255028 0
M  V30 51 H -0.694605 -0.695481 -2.962174 0
M  V30 END ATOM
M  V30 BEGIN BOND
M  V30 1 1 1 2
M  V30 2 1 2 3
M  V30 3 1 3 4
M  V30 4 1 4 5
M  V30 5 2 5 6
M  V30 6 1 6 7
M  V30 7 1 7 8
M  V30 8 2 8 9
M  V30 9 1 9 10
M  V30 10 2 4 11
M  V30 11 1 11 12
M  V30 12 2 12 13
M  V30 13 1 13 14
M  V30 14 3 14 15
M  V30 15 1 15 16
M  V30 16 1 16 17
M  V30 17 1 16 18
M  V30 18 1 16 19
M  V30 19 1 13 20
M  V30 20 2 20 21
M  V30 21 1 21 22
M  V30 22 1 22 23
M  V30 23 1 23 24
M  V30 24 1 24 25
M  V30 25 1 25 26
M  V30 26 1 21 27
M  V30 27 2 27 28
M  V30 28 1 28 3
M  V30 29 1 9 5
M  V30 30 1 28 12
M  V30 31 1 1 29
M  V30 32 1 1 30
M  V30 33 1 1 31
M  V30 34 1 2 32
M  V30 35 1 2 33
M  V30 36 1 10 34
M  V30 37 1 10 35
M  V30 38 1 17 36
M  V30 39 1 17 37
M  V30 40 1 17 38
M  V30 41 1 18 39
M  V30 42 1 18 40
M  V30 43 1 18 41
M  V30 44 1 19 42
M  V30 45 1 23 43
M  V30 46 1 23 44
M  V30 47 1 24 45
M  V30 48 1 24 46
M  V30 49 1 25 47
M  V30 50 1 26 48
M  V30 51 1 26 49
M  V30 52 1 26 50
M  V30 53 1 27 51
M  V30 END BOND
M  V30 END CTAB
M  END
>  <Dataset>  (189) 
ChEMBL_Kinases

>  <Ligand_Instance>  (189) 
nan

>  <PDB_ID>  (189) 
nan

>  <Standardized_SMILES>  (189) 
CCn1c(-c2nonc2N)nc2c(C#CC(C)(C)O)nc(OCCNC)cc21

>  <Name>  (189) 
nan

>  <Pocket>  (189) 
nan

>  <ATP_Site>  (189) 
nan

>  <Peripheral>  (189) 
nan

>  <Num_H_Atoms_ProtBoundConf>  (189) 
nan

>  <Num_Resolved_Atoms>  (189) 
nan

>  <Num_Not_Resolved_Atoms>  (189) 
nan

$$$$
CHEMBL1098939
     RDKit          3D

  0  0  0  0  0  0  0  0  0  0999 V3000
M  V30 BEGIN CTAB
M  V30 COUNTS 61 64 0 0 0
M  V30 BEGIN ATOM
M  V30 1 C 4.523904 1.054575 -1.253435 0
M  V30 2 C 4.039400 0.460694 0.025435 0
M  V30 3 N 2.738642 0.906390 0.393402 0
M  V30 4 C 2.390256 1.982603 1.093602 0
M  V30 5 C 3.112953 3.086430 1.690204 0
M  V30 6 N 2.531300 4.055958 2.414843 0
M  V30 7 O 3.335921 4.934059 2.882698 0
M  V30 8 N 4.539523 4.608301 2.496049 0
M  V30 9 C 4.421656 3.469173 1.757349 0
M  V30 10 N 5.561399 2.903178 1.193724 0
M  V30 11 N 1.058234 1.902996 1.196885 0
M  V30 12 C 0.599318 0.836516 0.592518 0
M  V30 13 C -0.695915 0.390638 0.464814 0
M  V30 14 C -1.764556 1.149003 1.053097 0
M  V30 15 C -2.667415 1.799926 1.534542 0
M  V30 16 C -3.757233 2.616963 2.122286 0
M  V30 17 C -4.425582 1.883845 3.258248 0
M  V30 18 C -3.114920 3.904676 2.583597 0
M  V30 19 O -4.726151 2.885416 1.158262 0
M  V30 20 N -0.903483 -0.761451 -0.221183 0
M  V30 21 C 0.103587 -1.472668 -0.773413 0
M  V30 22 O -0.101096 -2.648313 -1.474233 0
M  V30 23 C -1.423445 -3.102986 -1.604136 0
M  V30 24 C -1.481863 -4.394011 -2.392226 0 CFG=1
M  V30 25 N -0.928926 -4.146849 -3.709769 0
M  V30 26 C -0.709486 -5.493512 -1.697668 0
M  V30 27 C -1.247636 -5.774778 -0.347022 0
M  V30 28 C -0.770511 -5.103893 0.763079 0
M  V30 29 C -1.303033 -5.399451 2.003733 0
M  V30 30 C -2.293581 -6.343116 2.156665 0
M  V30 31 C -2.797113 -7.038808 1.052658 0
M  V30 32 C -2.242186 -6.721053 -0.186974 0
M  V30 33 C 1.412793 -1.010795 -0.637459 0
M  V30 34 C 1.655048 0.150452 0.050257 0
M  V30 35 H 5.640478 1.059373 -1.301703 0
M  V30 36 H 4.166885 0.508361 -2.157314 0
M  V30 37 H 4.159444 2.106568 -1.407841 0
M  V30 38 H 4.024934 -0.680176 -0.168761 0
M  V30 39 H 4.763915 0.551287 0.820650 0
M  V30 40 H 6.238055 2.826196 0.405320 0
M  V30 41 H 6.239218 2.817897 0.418363 0
M  V30 42 H -5.329797 2.464910 3.521322 0
M  V30 43 H -3.746723 1.676065 4.097057 0
M  V30 44 H -4.695954 0.868311 2.850649 0
M  V30 45 H -3.132190 4.591040 1.727544 0
M  V30 46 H -3.639481 4.342149 3.467021 0
M  V30 47 H -2.072852 3.727219 2.910465 0
M  V30 48 H -5.483963 2.257979 1.269887 0
M  V30 49 H -1.802145 -3.312626 -0.576205 0
M  V30 50 H -2.119046 -2.342031 -2.011065 0
M  V30 51 H -2.536779 -4.704371 -2.532972 0
M  V30 52 H -1.276035 -4.800495 -4.429573 0
M  V30 53 H -1.056635 -3.134954 -3.943687 0
M  V30 54 H 0.346328 -5.202504 -1.639770 0
M  V30 55 H -0.775580 -6.442851 -2.260439 0
M  V30 56 H 0.006196 -4.354291 0.696094 0
M  V30 57 H -0.960431 -4.896840 2.914579 0
M  V30 58 H -2.754588 -6.624244 3.092903 0
M  V30 59 H -3.578705 -7.787503 1.151007 0
M  V30 60 H -2.611695 -7.246935 -1.081331 0
M  V30 61 H 2.289530 -1.498259 -1.037194 0
M  V30 END ATOM
M  V30 BEGIN BOND
M  V30 1 1 1 2
M  V30 2 1 2 3
M  V30 3 1 3 4
M  V30 4 1 4 5
M  V30 5 2 5 6
M  V30 6 1 6 7
M  V30 7 1 7 8
M  V30 8 2 8 9
M  V30 9 1 9 10
M  V30 10 2 4 11
M  V30 11 1 11 12
M  V30 12 2 12 13
M  V30 13 1 13 14
M  V30 14 3 14 15
M  V30 15 1 15 16
M  V30 16 1 16 17
M  V30 17 1 16 18
M  V30 18 1 16 19
M  V30 19 1 13 20
M  V30 20 2 20 21
M  V30 21 1 21 22
M  V30 22 1 22 23
M  V30 23 1 23 24
M  V30 24 1 24 25
M  V30 25 1 24 26
M  V30 26 1 26 27
M  V30 27 2 27 28
M  V30 28 1 28 29
M  V30 29 2 29 30
M  V30 30 1 30 31
M  V30 31 2 31 32
M  V30 32 1 21 33
M  V30 33 2 33 34
M  V30 34 1 34 3
M  V30 35 1 9 5
M  V30 36 1 34 12
M  V30 37 1 32 27
M  V30 38 1 1 35
M  V30 39 1 1 36
M  V30 40 1 1 37
M  V30 41 1 2 38
M  V30 42 1 2 39
M  V30 43 1 10 40
M  V30 44 1 10 41
M  V30 45 1 17 42
M  V30 46 1 17 43
M  V30 47 1 17 44
M  V30 48 1 18 45
M  V30 49 1 18 46
M  V30 50 1 18 47
M  V30 51 1 19 48
M  V30 52 1 23 49
M  V30 53 1 23 50
M  V30 54 1 24 51 CFG=3
M  V30 55 1 25 52
M  V30 56 1 25 53
M  V30 57 1 26 54
M  V30 58 1 26 55
M  V30 59 1 28 56
M  V30 60 1 29 57
M  V30 61 1 30 58
M  V30 62 1 31 59
M  V30 63 1 32 60
M  V30 64 1 33 61
M  V30 END BOND
M  V30 END CTAB
M  END
>  <Dataset>  (190) 
ChEMBL_Kinases

>  <Ligand_Instance>  (190) 
nan

>  <PDB_ID>  (190) 
nan

>  <Standardized_SMILES>  (190) 
CCn1c(-c2nonc2N)nc2c(C#CC(C)(C)O)nc(OC[C@@H](N)Cc3ccccc3)cc21

>  <Name>  (190) 
nan

>  <Pocket>  (190) 
nan

>  <ATP_Site>  (190) 
nan

>  <Peripheral>  (190) 
nan

>  <Num_H_Atoms_ProtBoundConf>  (190) 
nan

>  <Num_Resolved_Atoms>  (190) 
nan

>  <Num_Not_Resolved_Atoms>  (190) 
nan

$$$$
CHEMBL1328827
     RDKit          3D

  0  0  0  0  0  0  0  0  0  0999 V3000
M  V30 BEGIN CTAB
M  V30 COUNTS 49 54 0 0 0
M  V30 BEGIN ATOM
M  V30 1 C 2.620497 -3.711940 4.508906 0
M  V30 2 C 2.489681 -5.019747 4.106858 0
M  V30 3 C 2.146919 -5.404458 2.827807 0
M  V30 4 C 1.927154 -4.395611 1.914508 0
M  V30 5 C 2.056749 -3.079164 2.311366 0
M  V30 6 C 2.401976 -2.696350 3.600080 0
M  V30 7 O 1.799053 -2.290592 1.270062 0
M  V30 8 C 1.509601 -3.014781 0.219546 0
M  V30 9 C 1.176223 -2.631012 -1.080896 0
M  V30 10 N 1.119165 -1.241456 -1.400450 0
M  V30 11 C 2.281060 -0.364381 -1.262321 0
M  V30 12 C 1.863641 1.044668 -1.012998 0
M  V30 13 N 0.579577 1.189400 -0.417338 0
M  V30 14 C 0.290499 2.398312 0.247977 0
M  V30 15 C -1.089743 2.347068 0.796614 0
M  V30 16 C -1.268209 1.842069 2.088502 0
M  V30 17 C -2.470022 1.723238 2.750846 0
M  V30 18 C -3.567175 2.159174 2.022404 0
M  V30 19 C -3.475017 2.668002 0.747832 0
M  V30 20 C -2.244771 2.748230 0.171175 0
M  V30 21 O -4.740041 3.010916 0.299188 0
M  V30 22 C -5.689639 2.664794 1.294273 0
M  V30 23 O -4.913989 2.186007 2.372949 0
M  V30 24 C -0.500348 0.556088 -1.089541 0
M  V30 25 C -0.134508 -0.643776 -1.886964 0
M  V30 26 N 0.925308 -3.628387 -1.964435 0
M  V30 27 C 0.997487 -4.928026 -1.592770 0
M  V30 28 N 1.322062 -5.305907 -0.326404 0
M  V30 29 C 1.577243 -4.347301 0.576387 0
M  V30 30 H 2.898130 -3.488613 5.551094 0
M  V30 31 H 2.666542 -5.806882 4.839838 0
M  V30 32 H 2.042919 -6.432632 2.507537 0
M  V30 33 H 2.499700 -1.659110 3.895862 0
M  V30 34 H 2.830139 -0.421454 -2.223590 0
M  V30 35 H 2.981543 -0.700487 -0.474202 0
M  V30 36 H 2.582822 1.631752 -0.396040 0
M  V30 37 H 1.837837 1.579562 -1.989620 0
M  V30 38 H 0.404110 3.311949 -0.374967 0
M  V30 39 H 0.983460 2.514598 1.101328 0
M  V30 40 H -0.378915 1.509011 2.629400 0
M  V30 41 H -2.499762 1.320099 3.747332 0
M  V30 42 H -2.127685 3.142374 -0.828248 0
M  V30 43 H -6.337746 3.507899 1.596380 0
M  V30 44 H -6.355374 1.862764 0.877592 0
M  V30 45 H -1.290361 0.311151 -0.347841 0
M  V30 46 H -0.941412 1.306052 -1.807639 0
M  V30 47 H -0.937220 -1.420087 -1.791463 0
M  V30 48 H -0.030035 -0.398701 -2.965286 0
M  V30 49 H 0.773775 -5.611773 -2.395032 0
M  V30 END ATOM
M  V30 BEGIN BOND
M  V30 1 2 1 2
M  V30 2 1 2 3
M  V30 3 2 3 4
M  V30 4 1 4 5
M  V30 5 2 5 6
M  V30 6 1 5 7
M  V30 7 1 7 8
M  V30 8 2 8 9
M  V30 9 1 9 10
M  V30 10 1 10 11
M  V30 11 1 11 12
M  V30 12 1 12 13
M  V30 13 1 13 14
M  V30 14 1 14 15
M  V30 15 2 15 16
M  V30 16 1 16 17
M  V30 17 2 17 18
M  V30 18 1 18 19
M  V30 19 2 19 20
M  V30 20 1 19 21
M  V30 21 1 21 22
M  V30 22 1 22 23
M  V30 23 1 13 24
M  V30 24 1 24 25
M  V30 25 1 9 26
M  V30 26 2 26 27
M  V30 27 1 27 28
M  V30 28 2 28 29
M  V30 29 1 6 1
M  V30 30 1 29 8
M  V30 31 1 29 4
M  V30 32 1 25 10
M  V30 33 1 20 15
M  V30 34 1 23 18
M  V30 35 1 1 30
M  V30 36 1 2 31
M  V30 37 1 3 32
M  V30 38 1 6 33
M  V30 39 1 11 34
M  V30 40 1 11 35
M  V30 41 1 12 36
M  V30 42 1 12 37
M  V30 43 1 14 38
M  V30 44 1 14 39
M  V30 45 1 16 40
M  V30 46 1 17 41
M  V30 47 1 20 42
M  V30 48 1 22 43
M  V30 49 1 22 44
M  V30 50 1 24 45
M  V30 51 1 24 46
M  V30 52 1 25 47
M  V30 53 1 25 48
M  V30 54 1 27 49
M  V30 END BOND
M  V30 END CTAB
M  END
>  <Dataset>  (191) 
ChEMBL_Kinases

>  <Ligand_Instance>  (191) 
nan

>  <PDB_ID>  (191) 
nan

>  <Standardized_SMILES>  (191) 
c1ccc2c(c1)oc1c(N3CCN(Cc4ccc5c(c4)OCO5)CC3)ncnc12

>  <Name>  (191) 
nan

>  <Pocket>  (191) 
nan

>  <ATP_Site>  (191) 
nan

>  <Peripheral>  (191) 
nan

>  <Num_H_Atoms_ProtBoundConf>  (191) 
nan

>  <Num_Resolved_Atoms>  (191) 
nan

>  <Num_Not_Resolved_Atoms>  (191) 
nan

$$$$
CHEMBL1098822
     RDKit          3D

  0  0  0  0  0  0  0  0  0  0999 V3000
M  V30 BEGIN CTAB
M  V30 COUNTS 43 47 0 0 0
M  V30 BEGIN ATOM
M  V30 1 O -0.696230 -2.012014 -1.933937 0
M  V30 2 C -0.094264 -1.071290 -1.343530 0
M  V30 3 C 0.664218 -0.116072 -1.982295 0
M  V30 4 C 1.254517 0.843352 -1.181398 0
M  V30 5 N 1.125395 0.885595 0.158343 0
M  V30 6 C 1.730551 1.853684 0.886380 0
M  V30 7 C 2.517984 2.833365 0.151147 0
M  V30 8 C 3.844781 2.406878 0.028580 0
M  V30 9 C 4.777746 3.196469 -0.643094 0
M  V30 10 C 4.385103 4.419884 -1.196461 0
M  V30 11 F 5.269219 5.219255 -1.860450 0
M  V30 12 C 3.069992 4.810180 -1.057542 0
M  V30 13 C 2.138072 4.037478 -0.395219 0
M  V30 14 F 0.836857 4.325608 -0.205077 0
M  V30 15 C 1.590627 1.886906 2.262747 0
M  V30 16 C 0.825460 0.919443 2.884156 0
M  V30 17 C 0.211273 -0.062232 2.150452 0
M  V30 18 C 0.379797 -0.056380 0.768327 0
M  V30 19 C -0.248980 -1.057933 0.037854 0
M  V30 20 C -1.051830 -2.066379 0.729700 0
M  V30 21 C -0.295215 -3.180827 1.105136 0
M  V30 22 F 1.035435 -3.320700 0.859753 0
M  V30 23 C -0.887137 -4.249918 1.777227 0
M  V30 24 C -2.245415 -4.164784 2.056396 0
M  V30 25 C -2.854429 -5.287689 2.759297 0
M  V30 26 N -4.132949 -5.451095 3.143245 0
M  V30 27 N -4.281973 -6.613670 3.757001 0
M  V30 28 C -3.061215 -7.183117 3.751382 0
M  V30 29 O -2.229553 -6.363555 3.146718 0
M  V30 30 C -2.988985 -3.063133 1.684241 0
M  V30 31 C -2.401340 -2.004939 1.018585 0
M  V30 32 F -3.032329 -0.882805 0.609590 0
M  V30 33 H 0.756186 -0.165142 -3.050607 0
M  V30 34 H 1.851519 1.588966 -1.721699 0
M  V30 35 H 4.272047 1.488741 0.408713 0
M  V30 36 H 5.810754 2.923935 -0.770498 0
M  V30 37 H 2.707404 5.748543 -1.465688 0
M  V30 38 H 2.089583 2.673986 2.796258 0
M  V30 39 H 0.712886 0.942988 3.972318 0
M  V30 40 H -0.368365 -0.782009 2.699948 0
M  V30 41 H -0.313682 -5.113301 2.071090 0
M  V30 42 H -2.654524 -8.126552 4.124550 0
M  V30 43 H -4.044025 -2.989102 1.897149 0
M  V30 END ATOM
M  V30 BEGIN BOND
M  V30 1 2 1 2
M  V30 2 1 2 3
M  V30 3 2 3 4
M  V30 4 1 4 5
M  V30 5 1 5 6
M  V30 6 1 6 7
M  V30 7 2 7 8
M  V30 8 1 8 9
M  V30 9 2 9 10
M  V30 10 1 10 11
M  V30 11 1 10 12
M  V30 12 2 12 13
M  V30 13 1 13 14
M  V30 14 2 6 15
M  V30 15 1 15 16
M  V30 16 2 16 17
M  V30 17 1 17 18
M  V30 18 2 18 19
M  V30 19 1 19 20
M  V30 20 2 20 21
M  V30 21 1 21 22
M  V30 22 1 21 23
M  V30 23 2 23 24
M  V30 24 1 24 25
M  V30 25 2 25 26
M  V30 26 1 26 27
M  V30 27 2 27 28
M  V30 28 1 28 29
M  V30 29 1 24 30
M  V30 30 2 30 31
M  V30 31 1 31 32
M  V30 32 1 19 2
M  V30 33 1 31 20
M  V30 34 1 18 5
M  V30 35 1 29 25
M  V30 36 1 13 7
M  V30 37 1 3 33
M  V30 38 1 4 34
M  V30 39 1 8 35
M  V30 40 1 9 36
M  V30 41 1 12 37
M  V30 42 1 15 38
M  V30 43 1 16 39
M  V30 44 1 17 40
M  V30 45 1 23 41
M  V30 46 1 28 42
M  V30 47 1 30 43
M  V30 END BOND
M  V30 END CTAB
M  END
>  <Dataset>  (192) 
ChEMBL_Kinases

>  <Ligand_Instance>  (192) 
nan

>  <PDB_ID>  (192) 
nan

>  <Standardized_SMILES>  (192) 
O=c1ccn2c(-c3ccc(F)cc3F)cccc2c1-c1c(F)cc(-c2nnco2)cc1F

>  <Name>  (192) 
nan

>  <Pocket>  (192) 
nan

>  <ATP_Site>  (192) 
nan

>  <Peripheral>  (192) 
nan

>  <Num_H_Atoms_ProtBoundConf>  (192) 
nan

>  <Num_Resolved_Atoms>  (192) 
nan

>  <Num_Not_Resolved_Atoms>  (192) 
nan

$$$$
CHEMBL1098797
     RDKit          3D

  0  0  0  0  0  0  0  0  0  0999 V3000
M  V30 BEGIN CTAB
M  V30 COUNTS 42 45 0 0 0
M  V30 BEGIN ATOM
M  V30 1 N 2.835821 -7.246306 -0.146423 0
M  V30 2 C 3.643966 -6.095276 0.018462 0
M  V30 3 O 4.877983 -6.221207 0.204372 0
M  V30 4 C 2.857004 -4.856430 -0.059579 0
M  V30 5 C 1.494347 -4.733054 -0.264884 0
M  V30 6 C 0.935597 -3.472826 -0.307182 0
M  V30 7 F -0.407813 -3.484842 -0.514206 0
M  V30 8 C 1.684101 -2.324053 -0.152280 0
M  V30 9 C 0.979248 -1.050205 -0.216612 0
M  V30 10 C 0.848666 -0.438403 -1.447916 0
M  V30 11 O 1.298690 -0.908135 -2.521690 0
M  V30 12 C 0.177686 0.777302 -1.519095 0
M  V30 13 C -0.326298 1.314756 -0.353583 0
M  V30 14 N -0.193825 0.709534 0.845493 0
M  V30 15 C -0.714654 1.295043 1.952453 0
M  V30 16 C -1.413770 2.586146 1.799000 0
M  V30 17 C -2.766366 2.727340 1.547467 0
M  V30 18 C -3.322033 3.983665 1.421100 0
M  V30 19 C -2.538825 5.114369 1.543442 0
M  V30 20 F -3.117140 6.330107 1.413685 0
M  V30 21 C -1.182126 4.974950 1.795692 0
M  V30 22 C -0.637116 3.707548 1.920311 0
M  V30 23 F 0.710423 3.668047 2.168945 0
M  V30 24 C -0.590749 0.689736 3.201364 0
M  V30 25 C 0.075508 -0.532137 3.319834 0
M  V30 26 C 0.591862 -1.089253 2.146574 0
M  V30 27 C 0.454364 -0.466841 0.920623 0
M  V30 28 C 3.035773 -2.402842 0.052883 0
M  V30 29 F 3.777282 -1.298054 0.205181 0
M  V30 30 C 3.574570 -3.674524 0.091715 0
M  V30 31 H 2.215059 -7.335497 -0.986765 0
M  V30 32 H 2.244913 -8.089590 -0.265495 0
M  V30 33 H 0.975446 -5.673512 -0.377262 0
M  V30 34 H 0.024034 1.336951 -2.447970 0
M  V30 35 H -0.852010 2.261500 -0.390699 0
M  V30 36 H -3.347301 1.808753 1.458247 0
M  V30 37 H -4.387479 4.077186 1.223307 0
M  V30 38 H -0.554097 5.862931 1.894153 0
M  V30 39 H -1.009718 1.164590 4.079325 0
M  V30 40 H 0.161923 -0.985376 4.291713 0
M  V30 41 H 1.114115 -2.045853 2.235679 0
M  V30 42 H 4.637833 -3.758785 0.252335 0
M  V30 END ATOM
M  V30 BEGIN BOND
M  V30 1 1 1 2
M  V30 2 2 2 3
M  V30 3 1 2 4
M  V30 4 2 4 5
M  V30 5 1 5 6
M  V30 6 1 6 7
M  V30 7 2 6 8
M  V30 8 1 8 9
M  V30 9 1 9 10
M  V30 10 2 10 11
M  V30 11 1 10 12
M  V30 12 2 12 13
M  V30 13 1 13 14
M  V30 14 1 14 15
M  V30 15 1 15 16
M  V30 16 2 16 17
M  V30 17 1 17 18
M  V30 18 2 18 19
M  V30 19 1 19 20
M  V30 20 1 19 21
M  V30 21 2 21 22
M  V30 22 1 22 23
M  V30 23 2 15 24
M  V30 24 1 24 25
M  V30 25 2 25 26
M  V30 26 1 26 27
M  V30 27 1 8 28
M  V30 28 1 28 29
M  V30 29 2 28 30
M  V30 30 1 30 4
M  V30 31 2 27 9
M  V30 32 1 27 14
M  V30 33 1 22 16
M  V30 34 1 1 31
M  V30 35 1 1 32
M  V30 36 1 5 33
M  V30 37 1 12 34
M  V30 38 1 13 35
M  V30 39 1 17 36
M  V30 40 1 18 37
M  V30 41 1 21 38
M  V30 42 1 24 39
M  V30 43 1 25 40
M  V30 44 1 26 41
M  V30 45 1 30 42
M  V30 END BOND
M  V30 END CTAB
M  END
>  <Dataset>  (193) 
ChEMBL_Kinases

>  <Ligand_Instance>  (193) 
nan

>  <PDB_ID>  (193) 
nan

>  <Standardized_SMILES>  (193) 
NC(=O)c1cc(F)c(-c2c(=O)ccn3c(-c4ccc(F)cc4F)cccc23)c(F)c1

>  <Name>  (193) 
nan

>  <Pocket>  (193) 
nan

>  <ATP_Site>  (193) 
nan

>  <Peripheral>  (193) 
nan

>  <Num_H_Atoms_ProtBoundConf>  (193) 
nan

>  <Num_Resolved_Atoms>  (193) 
nan

>  <Num_Not_Resolved_Atoms>  (193) 
nan

$$$$
CHEMBL1098554
     RDKit          3D

  0  0  0  0  0  0  0  0  0  0999 V3000
M  V30 BEGIN CTAB
M  V30 COUNTS 43 47 0 0 0
M  V30 BEGIN ATOM
M  V30 1 O -2.708676 -0.994963 -0.870394 0
M  V30 2 C -1.631832 -0.398471 -0.588357 0
M  V30 3 C -0.960552 0.468258 -1.429742 0
M  V30 4 C 0.206863 1.036932 -0.963688 0
M  V30 5 N 0.719410 0.792650 0.256207 0
M  V30 6 C 1.870055 1.400266 0.618741 0
M  V30 7 C 2.541312 2.308240 -0.307459 0
M  V30 8 C 2.343508 3.675199 -0.420355 0
M  V30 9 C 3.078896 4.367430 -1.363629 0
M  V30 10 C 3.991062 3.715048 -2.176986 0
M  V30 11 F 4.701865 4.432954 -3.100248 0
M  V30 12 C 4.198071 2.341326 -2.072257 0
M  V30 13 C 3.455732 1.635762 -1.118460 0
M  V30 14 F 3.716099 0.323474 -1.084816 0
M  V30 15 C 2.428149 1.170922 1.871725 0
M  V30 16 C 1.797707 0.315754 2.746537 0
M  V30 17 C 0.627946 -0.264402 2.300792 0
M  V30 18 C 0.059083 -0.051351 1.066216 0
M  V30 19 C -1.114446 -0.656762 0.667108 0
M  V30 20 C -1.708600 -1.553331 1.677801 0
M  V30 21 C -1.255126 -2.867417 1.569058 0
M  V30 22 C -1.753155 -3.785568 2.471463 0
M  V30 23 C -1.300764 -5.170699 2.387536 0
M  V30 24 N -1.658617 -6.206232 3.160581 0
M  V30 25 N -1.026003 -7.288678 2.759890 0
M  V30 26 C -0.262625 -6.935144 1.726051 0
M  V30 27 O -0.443543 -5.650091 1.517194 0
M  V30 28 C -2.662859 -3.419035 3.442172 0
M  V30 29 C -3.097447 -2.109895 3.529877 0
M  V30 30 C -2.617920 -1.163603 2.640359 0
M  V30 31 F -2.971400 0.145418 2.630710 0
M  V30 32 H -1.379047 0.652273 -2.394053 0
M  V30 33 H 0.720229 1.721088 -1.650952 0
M  V30 34 H 1.610834 4.088800 0.259012 0
M  V30 35 H 2.899940 5.428138 -1.424226 0
M  V30 36 H 4.913812 1.898244 -2.726714 0
M  V30 37 H 3.339127 1.630758 2.202359 0
M  V30 38 H 2.174566 0.090709 3.736861 0
M  V30 39 H 0.131785 -0.944885 3.004617 0
M  V30 40 H -0.545277 -3.201466 0.827529 0
M  V30 41 H 0.430192 -7.472771 1.072422 0
M  V30 42 H -3.071141 -4.110871 4.161780 0
M  V30 43 H -3.812248 -1.773390 4.276530 0
M  V30 END ATOM
M  V30 BEGIN BOND
M  V30 1 2 1 2
M  V30 2 1 2 3
M  V30 3 2 3 4
M  V30 4 1 4 5
M  V30 5 1 5 6
M  V30 6 1 6 7
M  V30 7 2 7 8
M  V30 8 1 8 9
M  V30 9 2 9 10
M  V30 10 1 10 11
M  V30 11 1 10 12
M  V30 12 2 12 13
M  V30 13 1 13 14
M  V30 14 2 6 15
M  V30 15 1 15 16
M  V30 16 2 16 17
M  V30 17 1 17 18
M  V30 18 2 18 19
M  V30 19 1 19 20
M  V30 20 2 20 21
M  V30 21 1 21 22
M  V30 22 1 22 23
M  V30 23 2 23 24
M  V30 24 1 24 25
M  V30 25 2 25 26
M  V30 26 1 26 27
M  V30 27 2 22 28
M  V30 28 1 28 29
M  V30 29 2 29 30
M  V30 30 1 30 31
M  V30 31 1 19 2
M  V30 32 1 30 20
M  V30 33 1 18 5
M  V30 34 1 27 23
M  V30 35 1 13 7
M  V30 36 1 3 32
M  V30 37 1 4 33
M  V30 38 1 8 34
M  V30 39 1 9 35
M  V30 40 1 12 36
M  V30 41 1 15 37
M  V30 42 1 16 38
M  V30 43 1 17 39
M  V30 44 1 21 40
M  V30 45 1 26 41
M  V30 46 1 28 42
M  V30 47 1 29 43
M  V30 END BOND
M  V30 END CTAB
M  END
>  <Dataset>  (194) 
ChEMBL_Kinases

>  <Ligand_Instance>  (194) 
nan

>  <PDB_ID>  (194) 
nan

>  <Standardized_SMILES>  (194) 
O=c1ccn2c(-c3ccc(F)cc3F)cccc2c1-c1cc(-c2nnco2)ccc1F

>  <Name>  (194) 
nan

>  <Pocket>  (194) 
nan

>  <ATP_Site>  (194) 
nan

>  <Peripheral>  (194) 
nan

>  <Num_H_Atoms_ProtBoundConf>  (194) 
nan

>  <Num_Resolved_Atoms>  (194) 
nan

>  <Num_Not_Resolved_Atoms>  (194) 
nan

$$$$
CHEMBL1098552
     RDKit          3D

  0  0  0  0  0  0  0  0  0  0999 V3000
M  V30 BEGIN CTAB
M  V30 COUNTS 46 50 0 0 0
M  V30 BEGIN ATOM
M  V30 1 C 8.690897 0.847223 -1.475059 0
M  V30 2 C 7.282452 1.309516 -1.353877 0
M  V30 3 N 6.710596 2.450380 -1.835841 0
M  V30 4 O 5.436748 2.475830 -1.507423 0
M  V30 5 C 5.130967 1.398729 -0.824951 0
M  V30 6 C 3.817957 1.057048 -0.281413 0
M  V30 7 C 2.763001 1.925428 -0.481561 0
M  V30 8 C 1.505394 1.635017 0.018495 0
M  V30 9 F 0.425292 2.440087 -0.139606 0
M  V30 10 C 1.320066 0.443247 0.732413 0
M  V30 11 C 0.048271 0.019885 1.310370 0
M  V30 12 C -0.129410 0.467156 2.606376 0
M  V30 13 O 0.694715 1.173520 3.268613 0
M  V30 14 C -1.273349 0.162074 3.307921 0
M  V30 15 C -2.227811 -0.609884 2.651625 0
M  V30 16 N -2.059063 -1.049443 1.385316 0
M  V30 17 C -2.986664 -1.795659 0.757124 0
M  V30 18 C -4.184351 -2.093380 1.543659 0
M  V30 19 C -4.102224 -3.258492 2.286842 0
M  V30 20 C -5.190047 -3.631611 3.070289 0
M  V30 21 C -6.304389 -2.835854 3.080799 0
M  V30 22 F -7.389015 -3.176622 3.840940 0
M  V30 23 C -6.397927 -1.675363 2.346311 0
M  V30 24 C -5.309947 -1.295084 1.557973 0
M  V30 25 F -5.303648 -0.171061 0.799133 0
M  V30 26 C -2.790751 -2.237839 -0.549521 0
M  V30 27 C -1.613870 -1.904212 -1.223848 0
M  V30 28 C -0.667074 -1.140285 -0.577215 0
M  V30 29 C -0.933268 -0.740452 0.715891 0
M  V30 30 C 2.405836 -0.422876 0.923016 0
M  V30 31 F 2.266890 -1.584446 1.607633 0
M  V30 32 C 3.664937 -0.124296 0.418007 0
M  V30 33 N 6.256921 0.668824 -0.721024 0
M  V30 34 H 8.822009 0.237403 -2.393903 0
M  V30 35 H 8.869971 0.133962 -0.617720 0
M  V30 36 H 9.435279 1.641031 -1.380807 0
M  V30 37 H 2.839107 2.865919 -1.026090 0
M  V30 38 H -1.481144 0.473091 4.314701 0
M  V30 39 H -3.135438 -0.872660 3.158541 0
M  V30 40 H -3.232497 -3.914975 2.302440 0
M  V30 41 H -5.149936 -4.538756 3.660593 0
M  V30 42 H -7.253627 -1.002457 2.312803 0
M  V30 43 H -3.593936 -2.828891 -0.961280 0
M  V30 44 H -1.523248 -2.274079 -2.225002 0
M  V30 45 H 0.246118 -0.879103 -1.094903 0
M  V30 46 H 4.487504 -0.814061 0.581125 0
M  V30 END ATOM
M  V30 BEGIN BOND
M  V30 1 1 1 2
M  V30 2 2 2 3
M  V30 3 1 3 4
M  V30 4 1 4 5
M  V30 5 1 5 6
M  V30 6 2 6 7
M  V30 7 1 7 8
M  V30 8 1 8 9
M  V30 9 2 8 10
M  V30 10 1 10 11
M  V30 11 1 11 12
M  V30 12 2 12 13
M  V30 13 1 12 14
M  V30 14 2 14 15
M  V30 15 1 15 16
M  V30 16 1 16 17
M  V30 17 1 17 18
M  V30 18 2 18 19
M  V30 19 1 19 20
M  V30 20 2 20 21
M  V30 21 1 21 22
M  V30 22 1 21 23
M  V30 23 2 23 24
M  V30 24 1 24 25
M  V30 25 2 17 26
M  V30 26 1 26 27
M  V30 27 2 27 28
M  V30 28 1 28 29
M  V30 29 1 10 30
M  V30 30 1 30 31
M  V30 31 2 30 32
M  V30 32 2 5 33
M  V30 33 1 33 2
M  V30 34 1 32 6
M  V30 35 2 29 11
M  V30 36 1 29 16
M  V30 37 1 24 18
M  V30 38 1 1 34
M  V30 39 1 1 35
M  V30 40 1 1 36
M  V30 41 1 7 37
M  V30 42 1 14 38
M  V30 43 1 15 39
M  V30 44 1 19 40
M  V30 45 1 20 41
M  V30 46 1 23 42
M  V30 47 1 26 43
M  V30 48 1 27 44
M  V30 49 1 28 45
M  V30 50 1 32 46
M  V30 END BOND
M  V30 END CTAB
M  END
>  <Dataset>  (195) 
ChEMBL_Kinases

>  <Ligand_Instance>  (195) 
nan

>  <PDB_ID>  (195) 
nan

>  <Standardized_SMILES>  (195) 
Cc1noc(-c2cc(F)c(-c3c(=O)ccn4c(-c5ccc(F)cc5F)cccc34)c(F)c2)n1

>  <Name>  (195) 
nan

>  <Pocket>  (195) 
nan

>  <ATP_Site>  (195) 
nan

>  <Peripheral>  (195) 
nan

>  <Num_H_Atoms_ProtBoundConf>  (195) 
nan

>  <Num_Resolved_Atoms>  (195) 
nan

>  <Num_Not_Resolved_Atoms>  (195) 
nan

$$$$
CHEMBL1098551
     RDKit          3D

  0  0  0  0  0  0  0  0  0  0999 V3000
M  V30 BEGIN CTAB
M  V30 COUNTS 45 49 0 0 0
M  V30 BEGIN ATOM
M  V30 1 N 8.602218 -3.384226 1.289886 0
M  V30 2 C 7.516241 -2.928606 0.477981 0
M  V30 3 N 7.487427 -3.048879 -0.870064 0
M  V30 4 N 6.325072 -2.515243 -1.278321 0
M  V30 5 C 5.655932 -2.077882 -0.208915 0
M  V30 6 C 4.352183 -1.424274 -0.115041 0
M  V30 7 C 3.892757 -1.072094 1.139337 0
M  V30 8 C 2.653599 -0.445832 1.279033 0
M  V30 9 F 2.214586 -0.104487 2.525928 0
M  V30 10 C 1.875028 -0.173351 0.154033 0
M  V30 11 C 0.596801 0.481095 0.382705 0
M  V30 12 C 0.451345 1.863351 0.396860 0
M  V30 13 O 1.493564 2.550267 0.199333 0
M  V30 14 C -0.770665 2.485717 0.615506 0
M  V30 15 C -1.851515 1.642916 0.821538 0
M  V30 16 N -1.762564 0.298114 0.817415 0
M  V30 17 C -2.876012 -0.431056 1.028396 0
M  V30 18 C -4.180177 0.184022 1.262187 0
M  V30 19 C -5.114012 0.518548 0.285767 0
M  V30 20 C -6.311253 1.099198 0.673194 0
M  V30 21 C -6.628378 1.366120 1.997676 0
M  V30 22 F -7.836216 1.938180 2.240231 0
M  V30 23 C -5.693759 1.028598 2.945587 0
M  V30 24 C -4.493078 0.450197 2.599348 0
M  V30 25 F -3.674274 0.174305 3.643702 0
M  V30 26 C -2.729196 -1.816848 1.014022 0
M  V30 27 C -1.520860 -2.465472 0.798123 0
M  V30 28 C -0.400860 -1.652910 0.585182 0
M  V30 29 C -0.551444 -0.273699 0.600309 0
M  V30 30 C 2.358940 -0.536711 -1.091132 0
M  V30 31 F 1.590727 -0.265518 -2.177712 0
M  V30 32 C 3.594440 -1.161998 -1.239158 0
M  V30 33 O 6.399718 -2.340135 0.846237 0
M  V30 34 H 9.506439 -2.862128 1.449722 0
M  V30 35 H 8.288585 -4.306845 1.659051 0
M  V30 36 H 4.452485 -1.257870 2.049506 0
M  V30 37 H -0.864013 3.545445 0.623021 0
M  V30 38 H -2.798836 2.133078 0.990966 0
M  V30 39 H -4.836074 0.298717 -0.722654 0
M  V30 40 H -7.005820 1.341455 -0.123894 0
M  V30 41 H -5.973333 1.251817 3.982578 0
M  V30 42 H -3.655859 -2.377239 1.189192 0
M  V30 43 H -1.459973 -3.545603 0.796748 0
M  V30 44 H 0.575028 -2.127277 0.410369 0
M  V30 45 H 3.933891 -1.427963 -2.223631 0
M  V30 END ATOM
M  V30 BEGIN BOND
M  V30 1 1 1 2
M  V30 2 2 2 3
M  V30 3 1 3 4
M  V30 4 2 4 5
M  V30 5 1 5 6
M  V30 6 2 6 7
M  V30 7 1 7 8
M  V30 8 1 8 9
M  V30 9 2 8 10
M  V30 10 1 10 11
M  V30 11 1 11 12
M  V30 12 2 12 13
M  V30 13 1 12 14
M  V30 14 2 14 15
M  V30 15 1 15 16
M  V30 16 1 16 17
M  V30 17 1 17 18
M  V30 18 2 18 19
M  V30 19 1 19 20
M  V30 20 2 20 21
M  V30 21 1 21 22
M  V30 22 1 21 23
M  V30 23 2 23 24
M  V30 24 1 24 25
M  V30 25 2 17 26
M  V30 26 1 26 27
M  V30 27 2 27 28
M  V30 28 1 28 29
M  V30 29 1 10 30
M  V30 30 1 30 31
M  V30 31 2 30 32
M  V30 32 1 5 33
M  V30 33 1 33 2
M  V30 34 1 32 6
M  V30 35 2 29 11
M  V30 36 1 29 16
M  V30 37 1 24 18
M  V30 38 1 1 34
M  V30 39 1 1 35
M  V30 40 1 7 36
M  V30 41 1 14 37
M  V30 42 1 15 38
M  V30 43 1 19 39
M  V30 44 1 20 40
M  V30 45 1 23 41
M  V30 46 1 26 42
M  V30 47 1 27 43
M  V30 48 1 28 44
M  V30 49 1 32 45
M  V30 END BOND
M  V30 END CTAB
M  END
>  <Dataset>  (196) 
ChEMBL_Kinases

>  <Ligand_Instance>  (196) 
nan

>  <PDB_ID>  (196) 
nan

>  <Standardized_SMILES>  (196) 
Nc1nnc(-c2cc(F)c(-c3c(=O)ccn4c(-c5ccc(F)cc5F)cccc34)c(F)c2)o1

>  <Name>  (196) 
nan

>  <Pocket>  (196) 
nan

>  <ATP_Site>  (196) 
nan

>  <Peripheral>  (196) 
nan

>  <Num_H_Atoms_ProtBoundConf>  (196) 
nan

>  <Num_Resolved_Atoms>  (196) 
nan

>  <Num_Not_Resolved_Atoms>  (196) 
nan

$$$$
CHEMBL1098525
     RDKit          3D

  0  0  0  0  0  0  0  0  0  0999 V3000
M  V30 BEGIN CTAB
M  V30 COUNTS 39 42 0 0 0
M  V30 BEGIN ATOM
M  V30 1 N 5.231702 -6.530197 2.216427 0
M  V30 2 C 4.628062 -5.592157 1.868293 0
M  V30 3 C 3.889140 -4.445293 1.417102 0
M  V30 4 C 2.965870 -4.601252 0.376774 0
M  V30 5 C 2.241168 -3.500542 -0.072946 0
M  V30 6 F 1.324209 -3.560598 -1.077698 0
M  V30 7 C 2.476261 -2.290556 0.542959 0
M  V30 8 C 1.730078 -1.098747 0.097438 0
M  V30 9 C 2.129490 -0.219289 -0.898720 0
M  V30 10 O 3.230355 -0.504363 -1.440137 0
M  V30 11 C 1.330217 0.856434 -1.212485 0
M  V30 12 C 0.138789 1.084571 -0.561121 0
M  V30 13 N -0.215658 0.202197 0.405822 0
M  V30 14 C -1.385805 0.454425 1.022639 0
M  V30 15 C -2.291087 1.562765 0.756805 0
M  V30 16 C -3.316810 1.546065 -0.147846 0
M  V30 17 C -4.083981 2.675255 -0.283064 0
M  V30 18 C -3.838611 3.815062 0.471957 0
M  V30 19 F -4.596705 4.916240 0.331395 0
M  V30 20 C -2.803095 3.835841 1.387102 0
M  V30 21 C -2.021874 2.682992 1.523388 0
M  V30 22 F -1.013336 2.765072 2.444029 0
M  V30 23 C -1.848636 -0.378243 2.025280 0
M  V30 24 C -1.124721 -1.497403 2.427326 0
M  V30 25 C 0.068292 -1.686122 1.742773 0
M  V30 26 C 0.524189 -0.858632 0.749215 0
M  V30 27 C 3.372570 -2.077916 1.571274 0
M  V30 28 F 3.575032 -0.879245 2.148687 0
M  V30 29 C 4.067710 -3.198090 1.983347 0
M  V30 30 H 2.785173 -5.554116 -0.103474 0
M  V30 31 H 1.691170 1.515505 -2.002309 0
M  V30 32 H -0.475541 1.935667 -0.822045 0
M  V30 33 H -3.445584 0.625832 -0.696807 0
M  V30 34 H -4.896461 2.643264 -1.008537 0
M  V30 35 H -2.630398 4.717480 1.956154 0
M  V30 36 H -2.792339 -0.239531 2.575391 0
M  V30 37 H -1.474461 -2.146154 3.200881 0
M  V30 38 H 0.653053 -2.546904 2.032344 0
M  V30 39 H 4.789535 -3.070122 2.798501 0
M  V30 END ATOM
M  V30 BEGIN BOND
M  V30 1 3 1 2
M  V30 2 1 2 3
M  V30 3 2 3 4
M  V30 4 1 4 5
M  V30 5 1 5 6
M  V30 6 2 5 7
M  V30 7 1 7 8
M  V30 8 1 8 9
M  V30 9 2 9 10
M  V30 10 1 9 11
M  V30 11 2 11 12
M  V30 12 1 12 13
M  V30 13 1 13 14
M  V30 14 1 14 15
M  V30 15 2 15 16
M  V30 16 1 16 17
M  V30 17 2 17 18
M  V30 18 1 18 19
M  V30 19 1 18 20
M  V30 20 2 20 21
M  V30 21 1 21 22
M  V30 22 2 14 23
M  V30 23 1 23 24
M  V30 24 2 24 25
M  V30 25 1 25 26
M  V30 26 1 7 27
M  V30 27 1 27 28
M  V30 28 2 27 29
M  V30 29 1 29 3
M  V30 30 2 26 8
M  V30 31 1 26 13
M  V30 32 1 21 15
M  V30 33 1 4 30
M  V30 34 1 11 31
M  V30 35 1 12 32
M  V30 36 1 16 33
M  V30 37 1 17 34
M  V30 38 1 20 35
M  V30 39 1 23 36
M  V30 40 1 24 37
M  V30 41 1 25 38
M  V30 42 1 29 39
M  V30 END BOND
M  V30 END CTAB
M  END
>  <Dataset>  (197) 
ChEMBL_Kinases

>  <Ligand_Instance>  (197) 
nan

>  <PDB_ID>  (197) 
nan

>  <Standardized_SMILES>  (197) 
N#Cc1cc(F)c(-c2c(=O)ccn3c(-c4ccc(F)cc4F)cccc23)c(F)c1

>  <Name>  (197) 
nan

>  <Pocket>  (197) 
nan

>  <ATP_Site>  (197) 
nan

>  <Peripheral>  (197) 
nan

>  <Num_H_Atoms_ProtBoundConf>  (197) 
nan

>  <Num_Resolved_Atoms>  (197) 
nan

>  <Num_Not_Resolved_Atoms>  (197) 
nan

$$$$
CHEMBL1098316
     RDKit          3D

  0  0  0  0  0  0  0  0  0  0999 V3000
M  V30 BEGIN CTAB
M  V30 COUNTS 47 49 0 0 0
M  V30 BEGIN ATOM
M  V30 1 C -0.150087 -4.628445 -0.919167 0
M  V30 2 C -0.547380 -3.366165 -1.678423 0
M  V30 3 N -0.106095 -2.165873 -0.991461 0
M  V30 4 C 1.053094 -1.492190 -1.111087 0
M  V30 5 C 2.154760 -1.849924 -1.999286 0
M  V30 6 N 2.255833 -2.881762 -2.856016 0
M  V30 7 O 3.408303 -2.829673 -3.454305 0
M  V30 8 N 4.112659 -1.812841 -3.055599 0
M  V30 9 C 3.352319 -1.180162 -2.143250 0
M  V30 10 N 3.698998 -0.002983 -1.421928 0
M  V30 11 N 1.070874 -0.423775 -0.291782 0
M  V30 12 C -0.102020 -0.368491 0.401167 0
M  V30 13 C -0.678140 0.448508 1.354530 0
M  V30 14 C 0.097355 1.581709 1.804125 0
M  V30 15 C 0.733536 2.544290 2.177152 0
M  V30 16 C 1.524742 3.701511 2.628978 0
M  V30 17 C 2.999352 3.546194 2.294566 0
M  V30 18 C 1.414230 3.813485 4.127368 0
M  V30 19 O 0.989742 4.801480 1.971847 0
M  V30 20 N -1.908114 0.167095 1.817827 0
M  V30 21 C -2.634259 -0.887167 1.402096 0
M  V30 22 C -3.982901 -1.084412 1.996441 0
M  V30 23 N -3.982624 -1.898180 3.178432 0
M  V30 24 C -3.467565 -3.232717 2.934834 0
M  V30 25 C -2.058363 -1.702665 0.450021 0
M  V30 26 C -0.799862 -1.465894 -0.063734 0
M  V30 27 H -0.207625 -5.473137 -1.621109 0
M  V30 28 H 0.893552 -4.562654 -0.532803 0
M  V30 29 H -0.794638 -4.759925 -0.028126 0
M  V30 30 H -0.131765 -3.430630 -2.697850 0
M  V30 31 H -1.657043 -3.365478 -1.665588 0
M  V30 32 H 3.109729 0.844526 -1.635910 0
M  V30 33 H 4.370776 0.352521 -0.708371 0
M  V30 34 H 3.630155 4.014117 3.059354 0
M  V30 35 H 3.245851 3.944349 1.291858 0
M  V30 36 H 3.292310 2.459702 2.244777 0
M  V30 37 H 1.080200 2.837863 4.530183 0
M  V30 38 H 0.606767 4.541165 4.332553 0
M  V30 39 H 2.367741 4.136504 4.582852 0
M  V30 40 H 1.545470 5.579729 2.176631 0
M  V30 41 H -4.388129 -0.090916 2.285081 0
M  V30 42 H -4.694560 -1.498761 1.257582 0
M  V30 43 H -3.548148 -1.460008 3.996395 0
M  V30 44 H -3.825035 -3.959440 3.686657 0
M  V30 45 H -2.349286 -3.243785 2.969490 0
M  V30 46 H -3.778451 -3.593771 1.935367 0
M  V30 47 H -2.626172 -2.547198 0.109227 0
M  V30 END ATOM
M  V30 BEGIN BOND
M  V30 1 1 1 2
M  V30 2 1 2 3
M  V30 3 1 3 4
M  V30 4 1 4 5
M  V30 5 2 5 6
M  V30 6 1 6 7
M  V30 7 1 7 8
M  V30 8 2 8 9
M  V30 9 1 9 10
M  V30 10 2 4 11
M  V30 11 1 11 12
M  V30 12 2 12 13
M  V30 13 1 13 14
M  V30 14 3 14 15
M  V30 15 1 15 16
M  V30 16 1 16 17
M  V30 17 1 16 18
M  V30 18 1 16 19
M  V30 19 1 13 20
M  V30 20 2 20 21
M  V30 21 1 21 22
M  V30 22 1 22 23
M  V30 23 1 23 24
M  V30 24 1 21 25
M  V30 25 2 25 26
M  V30 26 1 26 3
M  V30 27 1 9 5
M  V30 28 1 26 12
M  V30 29 1 1 27
M  V30 30 1 1 28
M  V30 31 1 1 29
M  V30 32 1 2 30
M  V30 33 1 2 31
M  V30 34 1 10 32
M  V30 35 1 10 33
M  V30 36 1 17 34
M  V30 37 1 17 35
M  V30 38 1 17 36
M  V30 39 1 18 37
M  V30 40 1 18 38
M  V30 41 1 18 39
M  V30 42 1 19 40
M  V30 43 1 22 41
M  V30 44 1 22 42
M  V30 45 1 23 43
M  V30 46 1 24 44
M  V30 47 1 24 45
M  V30 48 1 24 46
M  V30 49 1 25 47
M  V30 END BOND
M  V30 END CTAB
M  END
>  <Dataset>  (198) 
ChEMBL_Kinases

>  <Ligand_Instance>  (198) 
nan

>  <PDB_ID>  (198) 
nan

>  <Standardized_SMILES>  (198) 
CCn1c(-c2nonc2N)nc2c(C#CC(C)(C)O)nc(CNC)cc21

>  <Name>  (198) 
nan

>  <Pocket>  (198) 
nan

>  <ATP_Site>  (198) 
nan

>  <Peripheral>  (198) 
nan

>  <Num_H_Atoms_ProtBoundConf>  (198) 
nan

>  <Num_Resolved_Atoms>  (198) 
nan

>  <Num_Not_Resolved_Atoms>  (198) 
nan

$$$$
CHEMBL1098302
     RDKit          3D

  0  0  0  0  0  0  0  0  0  0999 V3000
M  V30 BEGIN CTAB
M  V30 COUNTS 66 70 0 0 0
M  V30 BEGIN ATOM
M  V30 1 C 5.381619 1.549038 8.067194 0
M  V30 2 O 4.130112 2.000655 7.656891 0
M  V30 3 C 3.621331 1.583560 6.435792 0
M  V30 4 C 4.301743 0.729936 5.592485 0
M  V30 5 C 3.792560 0.317006 4.377904 0
M  V30 6 N 4.474919 -0.520304 3.565035 0
M  V30 7 C 3.999931 -0.938439 2.374096 0
M  V30 8 C 2.761973 -0.474556 1.996949 0
M  V30 9 C 2.210395 -0.866399 0.778112 0
M  V30 10 N 2.892478 -1.746819 -0.112007 0
M  V30 11 N 1.005896 -0.426850 0.390140 0
M  V30 12 C 0.238489 0.419154 1.136252 0
M  V30 13 C -1.060684 0.838487 0.621789 0
M  V30 14 C -1.917235 1.688121 1.287551 0
M  V30 15 N -3.116091 2.074018 0.812763 0
M  V30 16 C -3.553004 1.622644 -0.396790 0
M  V30 17 C -2.720285 0.770459 -1.089997 0
M  V30 18 O -3.235782 0.356549 -2.309162 0
M  V30 19 C -2.528201 -0.508543 -3.145186 0
M  V30 20 C -3.288593 -0.824191 -4.423874 0 CFG=1
M  V30 21 N -3.571359 0.342411 -5.203799 0
M  V30 22 C -2.550590 -1.829860 -5.249785 0
M  V30 23 C -2.338598 -3.108061 -4.557788 0
M  V30 24 C -1.187376 -3.298519 -3.797513 0
M  V30 25 C -0.886171 -4.450417 -3.107509 0
M  V30 26 C -1.787749 -5.477722 -3.178461 0
M  V30 27 C -2.955950 -5.367728 -3.912811 0
M  V30 28 C -3.929166 -6.484633 -3.984620 0
M  V30 29 F -4.825765 -6.317893 -2.945320 0
M  V30 30 F -3.257619 -7.684717 -3.801928 0
M  V30 31 F -4.605599 -6.433467 -5.180644 0
M  V30 32 C -3.207217 -4.201757 -4.579958 0
M  V30 33 C -1.490428 0.374536 -0.603058 0
M  V30 34 C 0.757281 0.826488 2.350798 0
M  V30 35 C 1.995365 0.375206 2.750814 0
M  V30 36 C 2.552588 0.754370 3.952547 0
M  V30 37 C 1.861613 1.608268 4.786141 0
M  V30 38 C 2.363659 2.033820 6.015751 0
M  V30 39 O 1.698834 2.891530 6.880736 0
M  V30 40 C 0.432571 3.408826 6.568124 0
M  V30 41 H 5.227126 0.505470 8.457689 0
M  V30 42 H 5.748261 2.217296 8.880094 0
M  V30 43 H 6.154969 1.521759 7.297193 0
M  V30 44 H 5.282004 0.352071 5.874133 0
M  V30 45 H 4.546801 -1.611746 1.718029 0
M  V30 46 H 3.811129 -1.564705 -0.595247 0
M  V30 47 H 2.591162 -2.696717 -0.419487 0
M  V30 48 H -1.639408 2.083436 2.246067 0
M  V30 49 H -4.524214 1.971346 -0.717763 0
M  V30 50 H -1.555690 -0.045790 -3.436857 0
M  V30 51 H -2.347713 -1.467956 -2.621749 0
M  V30 52 H -4.275015 -1.286355 -4.171209 0
M  V30 53 H -4.562879 0.408716 -5.495893 0
M  V30 54 H -2.912514 0.466386 -6.002863 0
M  V30 55 H -1.548089 -1.453719 -5.563941 0
M  V30 56 H -3.140747 -2.045368 -6.160815 0
M  V30 57 H -0.476379 -2.487980 -3.741194 0
M  V30 58 H 0.017007 -4.528438 -2.542963 0
M  V30 59 H -1.552750 -6.381287 -2.638253 0
M  V30 60 H -4.104000 -4.063550 -5.167475 0
M  V30 61 H -0.892611 -0.284239 -1.183669 0
M  V30 62 H 0.164334 1.473473 2.915397 0
M  V30 63 H 0.906780 2.026605 4.602017 0
M  V30 64 H 0.318033 3.747016 5.517197 0
M  V30 65 H 0.187015 4.312482 7.191603 0
M  V30 66 H -0.325728 2.653283 6.859546 0
M  V30 END ATOM
M  V30 BEGIN BOND
M  V30 1 1 1 2
M  V30 2 1 2 3
M  V30 3 2 3 4
M  V30 4 1 4 5
M  V30 5 2 5 6
M  V30 6 1 6 7
M  V30 7 2 7 8
M  V30 8 1 8 9
M  V30 9 1 9 10
M  V30 10 2 9 11
M  V30 11 1 11 12
M  V30 12 1 12 13
M  V30 13 2 13 14
M  V30 14 1 14 15
M  V30 15 2 15 16
M  V30 16 1 16 17
M  V30 17 1 17 18
M  V30 18 1 18 19
M  V30 19 1 19 20
M  V30 20 1 20 21
M  V30 21 1 20 22
M  V30 22 1 22 23
M  V30 23 2 23 24
M  V30 24 1 24 25
M  V30 25 2 25 26
M  V30 26 1 26 27
M  V30 27 1 27 28
M  V30 28 1 28 29
M  V30 29 1 28 30
M  V30 30 1 28 31
M  V30 31 2 27 32
M  V30 32 2 17 33
M  V30 33 2 12 34
M  V30 34 1 34 35
M  V30 35 2 35 36
M  V30 36 1 36 37
M  V30 37 2 37 38
M  V30 38 1 38 39
M  V30 39 1 39 40
M  V30 40 1 38 3
M  V30 41 1 36 5
M  V30 42 1 35 8
M  V30 43 1 33 13
M  V30 44 1 32 23
M  V30 45 1 1 41
M  V30 46 1 1 42
M  V30 47 1 1 43
M  V30 48 1 4 44
M  V30 49 1 7 45
M  V30 50 1 10 46
M  V30 51 1 10 47
M  V30 52 1 14 48
M  V30 53 1 16 49
M  V30 54 1 19 50
M  V30 55 1 19 51
M  V30 56 1 20 52 CFG=1
M  V30 57 1 21 53
M  V30 58 1 21 54
M  V30 59 1 22 55
M  V30 60 1 22 56
M  V30 61 1 24 57
M  V30 62 1 25 58
M  V30 63 1 26 59
M  V30 64 1 32 60
M  V30 65 1 33 61
M  V30 66 1 34 62
M  V30 67 1 37 63
M  V30 68 1 40 64
M  V30 69 1 40 65
M  V30 70 1 40 66
M  V30 END BOND
M  V30 END CTAB
M  END
>  <Dataset>  (199) 
ChEMBL_Kinases

>  <Ligand_Instance>  (199) 
nan

>  <PDB_ID>  (199) 
nan

>  <Standardized_SMILES>  (199) 
COc1cc2ncc3c(N)nc(-c4cncc(OC[C@@H](N)Cc5cccc(C(F)(F)F)c5)c4)cc3c2cc1OC

>  <Name>  (199) 
nan

>  <Pocket>  (199) 
nan

>  <ATP_Site>  (199) 
nan

>  <Peripheral>  (199) 
nan

>  <Num_H_Atoms_ProtBoundConf>  (199) 
nan

>  <Num_Resolved_Atoms>  (199) 
nan

>  <Num_Not_Resolved_Atoms>  (199) 
nan

$$$$
CHEMBL1098241
     RDKit          3D

  0  0  0  0  0  0  0  0  0  0999 V3000
M  V30 BEGIN CTAB
M  V30 COUNTS 44 46 0 0 0
M  V30 BEGIN ATOM
M  V30 1 C -0.432717 -4.753754 -0.671220 0
M  V30 2 C -0.641059 -3.516528 -1.496476 0
M  V30 3 N -0.154945 -2.335128 -0.806830 0
M  V30 4 C 1.078510 -1.782299 -0.846754 0
M  V30 5 C 2.212420 -2.274619 -1.615921 0
M  V30 6 N 2.269229 -3.360967 -2.431685 0
M  V30 7 O 3.460563 -3.471530 -2.942063 0
M  V30 8 N 4.178193 -2.495192 -2.485997 0
M  V30 9 C 3.462881 -1.719415 -1.660225 0
M  V30 10 N 3.960452 -0.574924 -1.001749 0
M  V30 11 N 1.139600 -0.692836 -0.071199 0
M  V30 12 C -0.079942 -0.498777 0.510493 0
M  V30 13 C -0.604034 0.436771 1.384332 0
M  V30 14 C 0.252022 1.499195 1.853540 0
M  V30 15 C 0.966681 2.391653 2.268216 0
M  V30 16 C 1.829730 3.455683 2.788438 0
M  V30 17 C 2.062842 4.505300 1.726053 0
M  V30 18 C 3.198033 2.912578 3.179326 0
M  V30 19 O 1.251237 3.973439 3.928815 0
M  V30 20 N -1.902277 0.323315 1.769283 0
M  V30 21 C -2.712340 -0.660972 1.340720 0
M  V30 22 C -4.130172 -0.745084 1.790269 0
M  V30 23 N -4.170673 -1.554832 2.997098 0
M  V30 24 C -2.160518 -1.576393 0.471620 0
M  V30 25 C -0.854093 -1.535519 0.030582 0
M  V30 26 H -1.422132 -5.195762 -0.378278 0
M  V30 27 H 0.233194 -5.501187 -1.125784 0
M  V30 28 H 0.018554 -4.458867 0.311877 0
M  V30 29 H -1.743362 -3.347010 -1.628226 0
M  V30 30 H -0.215147 -3.570243 -2.503290 0
M  V30 31 H 4.502612 -0.757337 -0.120855 0
M  V30 32 H 3.669979 0.267010 -1.558787 0
M  V30 33 H 1.191574 5.145372 1.523124 0
M  V30 34 H 2.882735 5.177311 2.100283 0
M  V30 35 H 2.428130 3.991077 0.813751 0
M  V30 36 H 3.953157 3.135432 2.412024 0
M  V30 37 H 3.470549 3.196744 4.204904 0
M  V30 38 H 3.093849 1.789342 3.215616 0
M  V30 39 H 0.742008 3.277177 4.425790 0
M  V30 40 H -4.558506 0.251419 2.020845 0
M  V30 41 H -4.749836 -1.305884 1.048398 0
M  V30 42 H -5.163082 -1.851077 3.196182 0
M  V30 43 H -3.647133 -2.455722 2.829066 0
M  V30 44 H -2.768877 -2.407777 0.082282 0
M  V30 END ATOM
M  V30 BEGIN BOND
M  V30 1 1 1 2
M  V30 2 1 2 3
M  V30 3 1 3 4
M  V30 4 1 4 5
M  V30 5 2 5 6
M  V30 6 1 6 7
M  V30 7 1 7 8
M  V30 8 2 8 9
M  V30 9 1 9 10
M  V30 10 2 4 11
M  V30 11 1 11 12
M  V30 12 2 12 13
M  V30 13 1 13 14
M  V30 14 3 14 15
M  V30 15 1 15 16
M  V30 16 1 16 17
M  V30 17 1 16 18
M  V30 18 1 16 19
M  V30 19 1 13 20
M  V30 20 2 20 21
M  V30 21 1 21 22
M  V30 22 1 22 23
M  V30 23 1 21 24
M  V30 24 2 24 25
M  V30 25 1 25 3
M  V30 26 1 9 5
M  V30 27 1 25 12
M  V30 28 1 1 26
M  V30 29 1 1 27
M  V30 30 1 1 28
M  V30 31 1 2 29
M  V30 32 1 2 30
M  V30 33 1 10 31
M  V30 34 1 10 32
M  V30 35 1 17 33
M  V30 36 1 17 34
M  V30 37 1 17 35
M  V30 38 1 18 36
M  V30 39 1 18 37
M  V30 40 1 18 38
M  V30 41 1 19 39
M  V30 42 1 22 40
M  V30 43 1 22 41
M  V30 44 1 23 42
M  V30 45 1 23 43
M  V30 46 1 24 44
M  V30 END BOND
M  V30 END CTAB
M  END
>  <Dataset>  (200) 
ChEMBL_Kinases

>  <Ligand_Instance>  (200) 
nan

>  <PDB_ID>  (200) 
nan

>  <Standardized_SMILES>  (200) 
CCn1c(-c2nonc2N)nc2c(C#CC(C)(C)O)nc(CN)cc21

>  <Name>  (200) 
nan

>  <Pocket>  (200) 
nan

>  <ATP_Site>  (200) 
nan

>  <Peripheral>  (200) 
nan

>  <Num_H_Atoms_ProtBoundConf>  (200) 
nan

>  <Num_Resolved_Atoms>  (200) 
nan

>  <Num_Not_Resolved_Atoms>  (200) 
nan

$$$$
CHEMBL1097999
     RDKit          3D

  0  0  0  0  0  0  0  0  0  0999 V3000
M  V30 BEGIN CTAB
M  V30 COUNTS 55 56 0 0 0
M  V30 BEGIN ATOM
M  V30 1 C 4.180306 -1.197465 4.621108 0
M  V30 2 C 3.396761 -2.384784 5.102676 0
M  V30 3 N 3.088316 -3.343949 4.045959 0
M  V30 4 C 2.274220 -3.002346 2.927990 0
M  V30 5 C 2.089794 -4.011560 2.011411 0
M  V30 6 C 1.294847 -3.676698 0.937936 0
M  V30 7 O 0.933196 -4.486586 -0.156604 0
M  V30 8 C 0.723217 -2.449629 0.775512 0
M  V30 9 C 0.888658 -1.417539 1.669042 0
M  V30 10 C 1.698679 -1.761659 2.761697 0
M  V30 11 C 0.509015 -0.008524 1.818901 0
M  V30 12 C 0.809705 1.011978 0.977054 0
M  V30 13 C 0.351209 2.345564 1.297643 0
M  V30 14 C -0.471662 3.120342 0.326843 0 CFG=2
M  V30 15 O -0.682074 4.364001 1.047141 0
M  V30 16 C -1.885790 2.610112 0.144647 0 CFG=2
M  V30 17 O -2.471831 2.255676 1.323364 0
M  V30 18 C -2.038800 1.692375 -0.984295 0
M  V30 19 O -2.249420 1.246855 0.163311 0
M  V30 20 C -1.991656 1.447635 -2.412647 0
M  V30 21 C -2.238199 0.306951 -3.032481 0
M  V30 22 C -2.583753 -0.793139 -2.149147 0 CFG=1
M  V30 23 C -3.990598 -1.301421 -2.556495 0
M  V30 24 C -1.629315 -1.971544 -2.272883 0 CFG=2
M  V30 25 C -1.829842 -2.862592 -3.416711 0
M  V30 26 O -1.384738 -2.430683 -0.996931 0
M  V30 27 C -0.132619 -2.273141 -0.386865 0
M  V30 28 O 0.783796 -1.747554 -1.006783 0
M  V30 29 H 4.348340 -1.154237 3.536505 0
M  V30 30 H 3.745586 -0.225396 4.933025 0
M  V30 31 H 5.215324 -1.222710 5.067804 0
M  V30 32 H 2.422678 -2.001207 5.533805 0
M  V30 33 H 3.924289 -2.849933 5.934163 0
M  V30 34 H 3.504668 -4.289229 4.169218 0
M  V30 35 H 2.471439 -5.017279 2.007655 0
M  V30 36 H 1.382068 -4.376215 -1.050277 0
M  V30 37 H 1.957157 -1.091576 3.598933 0
M  V30 38 H -0.081107 0.190956 2.729554 0
M  V30 39 H 1.380628 0.881054 0.068097 0
M  V30 40 H 1.262366 2.989600 1.536330 0
M  V30 41 H -0.214940 2.394291 2.274706 0
M  V30 42 H 0.006572 3.392084 -0.593259 0
M  V30 43 H -1.154474 4.092542 1.884367 0
M  V30 44 H -2.466403 3.556046 -0.198448 0
M  V30 45 H -3.396446 2.583620 1.442775 0
M  V30 46 H -1.723719 2.484318 -2.418860 0
M  V30 47 H -2.079732 0.645277 -4.025946 0
M  V30 48 H -2.718196 -0.471005 -1.118932 0
M  V30 49 H -4.228477 -2.229945 -2.023468 0
M  V30 50 H -4.707669 -0.525804 -2.211203 0
M  V30 51 H -4.074274 -1.367848 -3.645674 0
M  V30 52 H -0.631195 -1.416372 -2.577367 0
M  V30 53 H -2.633611 -3.618213 -3.300281 0
M  V30 54 H -0.866741 -3.326841 -3.736114 0
M  V30 55 H -2.140471 -2.247586 -4.290253 0
M  V30 END ATOM
M  V30 BEGIN BOND
M  V30 1 1 1 2
M  V30 2 1 2 3
M  V30 3 1 3 4
M  V30 4 2 4 5
M  V30 5 1 5 6
M  V30 6 1 6 7
M  V30 7 2 6 8
M  V30 8 1 8 9
M  V30 9 2 9 10
M  V30 10 1 9 11
M  V30 11 2 11 12
M  V30 12 1 12 13
M  V30 13 1 13 14
M  V30 14 1 14 15
M  V30 15 1 14 16
M  V30 16 1 16 17
M  V30 17 1 16 18
M  V30 18 2 18 19
M  V30 19 1 18 20
M  V30 20 2 20 21
M  V30 21 1 21 22
M  V30 22 1 22 23
M  V30 23 1 22 24
M  V30 24 1 24 25
M  V30 25 1 24 26
M  V30 26 1 26 27
M  V30 27 2 27 28
M  V30 28 1 10 4
M  V30 29 1 27 8
M  V30 30 1 1 29
M  V30 31 1 1 30
M  V30 32 1 1 31
M  V30 33 1 2 32
M  V30 34 1 2 33
M  V30 35 1 3 34
M  V30 36 1 5 35
M  V30 37 1 7 36
M  V30 38 1 10 37
M  V30 39 1 11 38
M  V30 40 1 12 39
M  V30 41 1 13 40
M  V30 42 1 13 41
M  V30 43 1 14 42 CFG=3
M  V30 44 1 15 43
M  V30 45 1 16 44 CFG=3
M  V30 46 1 17 45
M  V30 47 1 20 46
M  V30 48 1 21 47
M  V30 49 1 22 48 CFG=1
M  V30 50 1 23 49
M  V30 51 1 23 50
M  V30 52 1 23 51
M  V30 53 1 24 52 CFG=3
M  V30 54 1 25 53
M  V30 55 1 25 54
M  V30 56 1 25 55
M  V30 END BOND
M  V30 END CTAB
M  END
>  <Dataset>  (201) 
ChEMBL_Kinases

>  <Ligand_Instance>  (201) 
nan

>  <PDB_ID>  (201) 
nan

>  <Standardized_SMILES>  (201) 
CCNc1cc(O)c2c(c1)/C=C/C[C@H](O)[C@H](O)C(=O)/C=C\[C@@H](C)[C@H](C)OC2=O

>  <Name>  (201) 
E-6201

>  <Pocket>  (201) 
nan

>  <ATP_Site>  (201) 
nan

>  <Peripheral>  (201) 
nan

>  <Num_H_Atoms_ProtBoundConf>  (201) 
nan

>  <Num_Resolved_Atoms>  (201) 
nan

>  <Num_Not_Resolved_Atoms>  (201) 
nan

$$$$
CHEMBL1097973
     RDKit          3D

  0  0  0  0  0  0  0  0  0  0999 V3000
M  V30 BEGIN CTAB
M  V30 COUNTS 62 66 0 0 0
M  V30 BEGIN ATOM
M  V30 1 C 5.489193 0.897342 8.371245 0
M  V30 2 O 4.159200 1.020407 7.965109 0
M  V30 3 C 3.745903 0.710729 6.680396 0
M  V30 4 C 4.560107 0.258308 5.678613 0
M  V30 5 C 4.141387 -0.047545 4.403768 0
M  V30 6 N 5.001142 -0.490158 3.462552 0
M  V30 7 C 4.605642 -0.790913 2.218423 0
M  V30 8 C 3.258504 -0.628307 1.927891 0
M  V30 9 C 2.767076 -0.914328 0.671445 0
M  V30 10 N 3.662710 -1.383093 -0.333651 0
M  V30 11 N 1.473671 -0.768593 0.356263 0
M  V30 12 C 0.555737 -0.324597 1.265917 0
M  V30 13 C -0.838231 -0.195186 0.831642 0
M  V30 14 C -1.873097 0.239047 1.632825 0
M  V30 15 N -3.145626 0.350291 1.213748 0
M  V30 16 C -3.503545 0.038526 -0.043951 0
M  V30 17 C -2.497289 -0.400766 -0.879259 0
M  V30 18 O -2.860084 -0.726787 -2.186778 0
M  V30 19 C -4.152422 -0.636319 -2.693085 0
M  V30 20 C -4.145127 -1.073429 -4.137311 0 CFG=1
M  V30 21 N -3.266637 -0.231133 -4.927247 0
M  V30 22 C -3.694901 -2.494038 -4.266769 0
M  V30 23 C -3.663399 -2.992038 -5.654030 0
M  V30 24 C -4.812611 -3.596088 -6.175851 0
M  V30 25 C -4.933348 -4.107705 -7.450255 0
M  V30 26 N -3.844381 -4.009360 -8.246348 0
M  V30 27 C -2.697708 -3.441053 -7.819344 0
M  V30 28 C -2.622389 -2.940358 -6.529917 0
M  V30 29 C -1.192455 -0.518165 -0.460409 0
M  V30 30 C 1.013526 -0.028751 2.533977 0
M  V30 31 C 2.326798 -0.176985 2.853435 0
M  V30 32 C 2.809538 0.112580 4.114106 0
M  V30 33 C 1.937440 0.565540 5.081698 0
M  V30 34 C 2.401818 0.867217 6.371194 0
M  V30 35 O 1.545633 1.330496 7.382339 0
M  V30 36 C 0.178625 1.484906 7.052657 0
M  V30 37 H 6.050653 1.860781 8.261321 0
M  V30 38 H 6.080798 0.129948 7.853701 0
M  V30 39 H 5.555878 0.665883 9.457495 0
M  V30 40 H 5.613498 0.123024 5.877976 0
M  V30 41 H 5.308202 -1.146437 1.470748 0
M  V30 42 H 4.454148 -0.784689 -0.575329 0
M  V30 43 H 3.672456 -2.265131 -0.905076 0
M  V30 44 H -1.660473 0.507951 2.655998 0
M  V30 45 H -4.520579 0.127596 -0.379188 0
M  V30 46 H -4.637620 0.324531 -2.531455 0
M  V30 47 H -4.761048 -1.398402 -2.123010 0
M  V30 48 H -5.193200 -0.966231 -4.501554 0
M  V30 49 H -2.289991 -0.575842 -4.812000 0
M  V30 50 H -3.366408 0.768442 -4.628173 0
M  V30 51 H -2.671661 -2.587522 -3.848235 0
M  V30 52 H -4.378102 -3.179848 -3.696137 0
M  V30 53 H -5.690002 -3.669401 -5.517818 0
M  V30 54 H -5.856297 -4.553579 -7.762980 0
M  V30 55 H -1.862829 -3.387770 -8.489834 0
M  V30 56 H -1.704354 -2.476581 -6.163062 0
M  V30 57 H -0.448495 -0.864168 -1.148875 0
M  V30 58 H 0.273223 0.308063 3.196708 0
M  V30 59 H 0.905234 0.723092 4.968977 0
M  V30 60 H 0.104611 2.177885 6.173195 0
M  V30 61 H -0.248954 0.520239 6.678769 0
M  V30 62 H -0.420270 1.836236 7.906507 0
M  V30 END ATOM
M  V30 BEGIN BOND
M  V30 1 1 1 2
M  V30 2 1 2 3
M  V30 3 2 3 4
M  V30 4 1 4 5
M  V30 5 2 5 6
M  V30 6 1 6 7
M  V30 7 2 7 8
M  V30 8 1 8 9
M  V30 9 1 9 10
M  V30 10 2 9 11
M  V30 11 1 11 12
M  V30 12 1 12 13
M  V30 13 2 13 14
M  V30 14 1 14 15
M  V30 15 2 15 16
M  V30 16 1 16 17
M  V30 17 1 17 18
M  V30 18 1 18 19
M  V30 19 1 19 20
M  V30 20 1 20 21
M  V30 21 1 20 22
M  V30 22 1 22 23
M  V30 23 2 23 24
M  V30 24 1 24 25
M  V30 25 2 25 26
M  V30 26 1 26 27
M  V30 27 2 27 28
M  V30 28 2 17 29
M  V30 29 2 12 30
M  V30 30 1 30 31
M  V30 31 2 31 32
M  V30 32 1 32 33
M  V30 33 2 33 34
M  V30 34 1 34 35
M  V30 35 1 35 36
M  V30 36 1 34 3
M  V30 37 1 32 5
M  V30 38 1 31 8
M  V30 39 1 29 13
M  V30 40 1 28 23
M  V30 41 1 1 37
M  V30 42 1 1 38
M  V30 43 1 1 39
M  V30 44 1 4 40
M  V30 45 1 7 41
M  V30 46 1 10 42
M  V30 47 1 10 43
M  V30 48 1 14 44
M  V30 49 1 16 45
M  V30 50 1 19 46
M  V30 51 1 19 47
M  V30 52 1 20 48 CFG=3
M  V30 53 1 21 49
M  V30 54 1 21 50
M  V30 55 1 22 51
M  V30 56 1 22 52
M  V30 57 1 24 53
M  V30 58 1 25 54
M  V30 59 1 27 55
M  V30 60 1 28 56
M  V30 61 1 29 57
M  V30 62 1 30 58
M  V30 63 1 33 59
M  V30 64 1 36 60
M  V30 65 1 36 61
M  V30 66 1 36 62
M  V30 END BOND
M  V30 END CTAB
M  END
>  <Dataset>  (202) 
ChEMBL_Kinases

>  <Ligand_Instance>  (202) 
nan

>  <PDB_ID>  (202) 
nan

>  <Standardized_SMILES>  (202) 
COc1cc2ncc3c(N)nc(-c4cncc(OC[C@@H](N)Cc5ccncc5)c4)cc3c2cc1OC

>  <Name>  (202) 
nan

>  <Pocket>  (202) 
nan

>  <ATP_Site>  (202) 
nan

>  <Peripheral>  (202) 
nan

>  <Num_H_Atoms_ProtBoundConf>  (202) 
nan

>  <Num_Resolved_Atoms>  (202) 
nan

>  <Num_Not_Resolved_Atoms>  (202) 
nan

$$$$
CHEMBL1097972
     RDKit          3D

  0  0  0  0  0  0  0  0  0  0999 V3000
M  V30 BEGIN CTAB
M  V30 COUNTS 63 67 0 0 0
M  V30 BEGIN ATOM
M  V30 1 C 7.077053 0.015679 6.070560 0
M  V30 2 O 5.690198 0.129642 6.064588 0
M  V30 3 C 4.844502 -0.043741 4.985831 0
M  V30 4 C 5.212233 -0.367081 3.698198 0
M  V30 5 C 4.320734 -0.527443 2.659635 0
M  V30 6 N 4.786279 -0.848780 1.419033 0
M  V30 7 C 3.924619 -1.011204 0.383830 0
M  V30 8 C 2.589050 -0.835540 0.659708 0
M  V30 9 C 1.650530 -0.982229 -0.335390 0
M  V30 10 N 2.023550 -1.316230 -1.669497 0
M  V30 11 N 0.332849 -0.827230 -0.144608 0
M  V30 12 C -0.184624 -0.507709 1.068336 0
M  V30 13 C -1.615907 -0.338661 1.270941 0
M  V30 14 C -2.275466 -0.019169 2.433292 0
M  V30 15 N -3.635264 0.106416 2.466488 0
M  V30 16 C -4.348426 -0.093525 1.304465 0
M  V30 17 C -3.760761 -0.427132 0.051053 0
M  V30 18 O -4.811390 -0.505940 -0.701666 0
M  V30 19 C -5.198886 -0.749216 -1.960245 0
M  V30 20 C -4.723417 0.159555 -3.072171 0 CFG=1
M  V30 21 N -5.056663 1.537812 -2.835704 0
M  V30 22 C -3.326626 0.005590 -3.516263 0
M  V30 23 C -3.011257 -1.339248 -4.054241 0
M  V30 24 C -3.183681 -1.504085 -5.438765 0
M  V30 25 C -2.958906 -2.653559 -6.151287 0
M  V30 26 C -2.522402 -3.764876 -5.466843 0
M  V30 27 Cl -2.201442 -5.282761 -6.256815 0
M  V30 28 C -2.334161 -3.667866 -4.107218 0
M  V30 29 Cl -1.779552 -5.016041 -3.117712 0
M  V30 30 C -2.575183 -2.491276 -3.445812 0
M  V30 31 C -2.402681 -0.520105 0.163255 0
M  V30 32 C 0.722719 -0.351916 2.092430 0
M  V30 33 C 2.076508 -0.511616 1.894252 0
M  V30 34 C 2.985039 -0.356417 2.915428 0
M  V30 35 C 2.578283 -0.034159 4.183628 0
M  V30 36 C 3.479115 0.128286 5.235008 0
M  V30 37 O 3.054078 0.458798 6.531797 0
M  V30 38 C 1.667225 0.628672 6.759138 0
M  V30 39 H 7.429543 -0.936234 6.560257 0
M  V30 40 H 7.593500 0.876570 6.542973 0
M  V30 41 H 7.457730 -0.027233 5.032751 0
M  V30 42 H 6.246810 -0.502326 3.488891 0
M  V30 43 H 4.236680 -1.266090 -0.619052 0
M  V30 44 H 1.672423 -2.277812 -1.881393 0
M  V30 45 H 2.543489 -0.838847 -2.444915 0
M  V30 46 H -1.652803 0.122926 3.303537 0
M  V30 47 H -5.387130 0.077237 1.662399 0
M  V30 48 H -6.352315 -0.720351 -1.967652 0
M  V30 49 H -5.034422 -1.835945 -2.294227 0
M  V30 50 H -5.424814 -0.099884 -3.970466 0
M  V30 51 H -5.189574 2.084436 -3.714227 0
M  V30 52 H -5.855706 1.653515 -2.171497 0
M  V30 53 H -2.619709 0.233239 -2.708017 0
M  V30 54 H -3.102866 0.754311 -4.343600 0
M  V30 55 H -3.526242 -0.665762 -6.039595 0
M  V30 56 H -3.110279 -2.712838 -7.208562 0
M  V30 57 H -2.436628 -2.400401 -2.382177 0
M  V30 58 H -1.992063 -0.775390 -0.770924 0
M  V30 59 H 0.313995 -0.099130 3.051789 0
M  V30 60 H 1.559340 0.118174 4.475587 0
M  V30 61 H 1.144031 -0.335653 6.548993 0
M  V30 62 H 1.483312 0.984162 7.790689 0
M  V30 63 H 1.240364 1.381065 6.042074 0
M  V30 END ATOM
M  V30 BEGIN BOND
M  V30 1 1 1 2
M  V30 2 1 2 3
M  V30 3 2 3 4
M  V30 4 1 4 5
M  V30 5 2 5 6
M  V30 6 1 6 7
M  V30 7 2 7 8
M  V30 8 1 8 9
M  V30 9 1 9 10
M  V30 10 2 9 11
M  V30 11 1 11 12
M  V30 12 1 12 13
M  V30 13 2 13 14
M  V30 14 1 14 15
M  V30 15 2 15 16
M  V30 16 1 16 17
M  V30 17 1 17 18
M  V30 18 1 18 19
M  V30 19 1 19 20
M  V30 20 1 20 21
M  V30 21 1 20 22
M  V30 22 1 22 23
M  V30 23 2 23 24
M  V30 24 1 24 25
M  V30 25 2 25 26
M  V30 26 1 26 27
M  V30 27 1 26 28
M  V30 28 1 28 29
M  V30 29 2 28 30
M  V30 30 2 17 31
M  V30 31 2 12 32
M  V30 32 1 32 33
M  V30 33 2 33 34
M  V30 34 1 34 35
M  V30 35 2 35 36
M  V30 36 1 36 37
M  V30 37 1 37 38
M  V30 38 1 36 3
M  V30 39 1 34 5
M  V30 40 1 33 8
M  V30 41 1 31 13
M  V30 42 1 30 23
M  V30 43 1 1 39
M  V30 44 1 1 40
M  V30 45 1 1 41
M  V30 46 1 4 42
M  V30 47 1 7 43
M  V30 48 1 10 44
M  V30 49 1 10 45
M  V30 50 1 14 46
M  V30 51 1 16 47
M  V30 52 1 19 48
M  V30 53 1 19 49
M  V30 54 1 20 50 CFG=3
M  V30 55 1 21 51
M  V30 56 1 21 52
M  V30 57 1 22 53
M  V30 58 1 22 54
M  V30 59 1 24 55
M  V30 60 1 25 56
M  V30 61 1 30 57
M  V30 62 1 31 58
M  V30 63 1 32 59
M  V30 64 1 35 60
M  V30 65 1 38 61
M  V30 66 1 38 62
M  V30 67 1 38 63
M  V30 END BOND
M  V30 END CTAB
M  END
>  <Dataset>  (203) 
ChEMBL_Kinases

>  <Ligand_Instance>  (203) 
nan

>  <PDB_ID>  (203) 
nan

>  <Standardized_SMILES>  (203) 
COc1cc2ncc3c(N)nc(-c4cncc(OC[C@@H](N)Cc5ccc(Cl)c(Cl)c5)c4)cc3c2cc1OC

>  <Name>  (203) 
nan

>  <Pocket>  (203) 
nan

>  <ATP_Site>  (203) 
nan

>  <Peripheral>  (203) 
nan

>  <Num_H_Atoms_ProtBoundConf>  (203) 
nan

>  <Num_Resolved_Atoms>  (203) 
nan

>  <Num_Not_Resolved_Atoms>  (203) 
nan

$$$$
CHEMBL1097956
     RDKit          3D

  0  0  0  0  0  0  0  0  0  0999 V3000
M  V30 BEGIN CTAB
M  V30 COUNTS 56 59 0 0 0
M  V30 BEGIN ATOM
M  V30 1 C 4.745281 -2.732930 4.094285 0
M  V30 2 C 4.170355 -3.661895 3.064609 0
M  V30 3 C 4.957613 -3.552991 1.792371 0 CFG=2
M  V30 4 N 6.331282 -3.915652 2.075291 0
M  V30 5 C 4.926776 -2.160175 1.206607 0
M  V30 6 O 3.638493 -1.723900 0.902328 0
M  V30 7 C 3.338497 -0.482132 0.354109 0
M  V30 8 C 4.293805 0.464785 0.047676 0
M  V30 9 N 3.917712 1.643082 -0.481156 0
M  V30 10 C 2.615291 1.894113 -0.708968 0
M  V30 11 C 1.605473 1.004422 -0.431601 0
M  V30 12 C 0.218085 1.368160 -0.714289 0
M  V30 13 C -0.852868 0.533831 -0.465522 0
M  V30 14 C -2.100276 1.021263 -0.786551 0
M  V30 15 C -2.255934 2.278849 -1.327575 0
M  V30 16 C -3.514857 2.766836 -1.649649 0
M  V30 17 N -4.635656 2.025767 -1.444323 0
M  V30 18 C -4.457950 0.785143 -0.908323 0
M  V30 19 C -5.593761 0.021273 -0.694701 0
M  V30 20 C -5.508511 -1.248285 -0.155169 0
M  V30 21 O -6.645175 -2.044368 0.072001 0
M  V30 22 C -7.936421 -1.564850 -0.249637 0
M  V30 23 C -4.275585 -1.770836 0.178821 0
M  V30 24 O -4.224238 -3.063661 0.724922 0
M  V30 25 C -2.940875 -3.568046 1.055671 0
M  V30 26 C -3.135015 -0.990292 -0.041335 0
M  V30 27 C -3.230524 0.265870 -0.576102 0
M  V30 28 C -1.176584 3.101921 -1.570933 0
M  V30 29 N -1.294873 4.412397 -2.130491 0
M  V30 30 N 0.016574 2.588948 -1.244225 0
M  V30 31 C 1.995710 -0.201758 0.110165 0
M  V30 32 H 4.349697 -1.700624 4.033852 0
M  V30 33 H 4.544893 -3.106201 5.120903 0
M  V30 34 H 5.840673 -2.689163 3.983970 0
M  V30 35 H 3.119410 -3.420257 2.804962 0
M  V30 36 H 4.272845 -4.700811 3.437269 0
M  V30 37 H 4.545038 -4.296246 1.068311 0
M  V30 38 H 6.914657 -3.067675 2.244966 0
M  V30 39 H 6.412301 -4.573769 2.903709 0
M  V30 40 H 5.501251 -1.472590 1.851640 0
M  V30 41 H 5.490649 -2.241750 0.231748 0
M  V30 42 H 5.330286 0.229139 0.243839 0
M  V30 43 H 2.412611 2.875379 -1.138912 0
M  V30 44 H -0.657900 -0.423094 -0.046758 0
M  V30 45 H -3.640604 3.768303 -2.080723 0
M  V30 46 H -6.576761 0.413524 -0.950840 0
M  V30 47 H -7.911027 -1.107053 -1.255030 0
M  V30 48 H -8.637336 -2.439917 -0.195025 0
M  V30 49 H -8.273245 -0.772581 0.475568 0
M  V30 50 H -2.294830 -3.535869 0.149155 0
M  V30 51 H -2.409604 -2.960648 1.811518 0
M  V30 52 H -2.987607 -4.611617 1.392809 0
M  V30 53 H -2.235380 -1.483570 0.249232 0
M  V30 54 H -0.874399 4.809481 -3.022432 0
M  V30 55 H -1.868463 5.137378 -1.635632 0
M  V30 56 H 1.264505 -0.930523 0.346440 0
M  V30 END ATOM
M  V30 BEGIN BOND
M  V30 1 1 1 2
M  V30 2 1 2 3
M  V30 3 1 3 4
M  V30 4 1 3 5
M  V30 5 1 5 6
M  V30 6 1 6 7
M  V30 7 2 7 8
M  V30 8 1 8 9
M  V30 9 2 9 10
M  V30 10 1 10 11
M  V30 11 1 11 12
M  V30 12 2 12 13
M  V30 13 1 13 14
M  V30 14 2 14 15
M  V30 15 1 15 16
M  V30 16 2 16 17
M  V30 17 1 17 18
M  V30 18 2 18 19
M  V30 19 1 19 20
M  V30 20 1 20 21
M  V30 21 1 21 22
M  V30 22 2 20 23
M  V30 23 1 23 24
M  V30 24 1 24 25
M  V30 25 1 23 26
M  V30 26 2 26 27
M  V30 27 1 15 28
M  V30 28 1 28 29
M  V30 29 2 28 30
M  V30 30 2 11 31
M  V30 31 1 31 7
M  V30 32 1 30 12
M  V30 33 1 27 14
M  V30 34 1 27 18
M  V30 35 1 1 32
M  V30 36 1 1 33
M  V30 37 1 1 34
M  V30 38 1 2 35
M  V30 39 1 2 36
M  V30 40 1 3 37 CFG=3
M  V30 41 1 4 38
M  V30 42 1 4 39
M  V30 43 1 5 40
M  V30 44 1 5 41
M  V30 45 1 8 42
M  V30 46 1 10 43
M  V30 47 1 13 44
M  V30 48 1 16 45
M  V30 49 1 19 46
M  V30 50 1 22 47
M  V30 51 1 22 48
M  V30 52 1 22 49
M  V30 53 1 25 50
M  V30 54 1 25 51
M  V30 55 1 25 52
M  V30 56 1 26 53
M  V30 57 1 29 54
M  V30 58 1 29 55
M  V30 59 1 31 56
M  V30 END BOND
M  V30 END CTAB
M  END
>  <Dataset>  (204) 
ChEMBL_Kinases

>  <Ligand_Instance>  (204) 
nan

>  <PDB_ID>  (204) 
nan

>  <Standardized_SMILES>  (204) 
CC[C@H](N)COc1cncc(-c2cc3c(cnc4cc(OC)c(OC)cc43)c(N)n2)c1

>  <Name>  (204) 
nan

>  <Pocket>  (204) 
nan

>  <ATP_Site>  (204) 
nan

>  <Peripheral>  (204) 
nan

>  <Num_H_Atoms_ProtBoundConf>  (204) 
nan

>  <Num_Resolved_Atoms>  (204) 
nan

>  <Num_Not_Resolved_Atoms>  (204) 
nan

$$$$
CHEMBL1097955
     RDKit          3D

  0  0  0  0  0  0  0  0  0  0999 V3000
M  V30 BEGIN CTAB
M  V30 COUNTS 53 56 0 0 0
M  V30 BEGIN ATOM
M  V30 1 C 1.373563 -6.336161 -3.717514 0
M  V30 2 O 0.456673 -5.407816 -3.216738 0
M  V30 3 C 0.859979 -4.442990 -2.313000 0
M  V30 4 C 2.179150 -4.411045 -1.914050 0
M  V30 5 C 2.590056 -3.451314 -1.012337 0
M  V30 6 N 3.874260 -3.431015 -0.632767 0
M  V30 7 C 4.364311 -2.531264 0.242268 0
M  V30 8 C 3.461111 -1.621833 0.731453 0
M  V30 9 C 3.906870 -0.681861 1.626976 0
M  V30 10 N 5.284130 -0.655845 2.037522 0
M  V30 11 N 3.046892 0.229554 2.130068 0
M  V30 12 C 1.743991 0.276438 1.800201 0
M  V30 13 C 0.939117 1.317719 2.425378 0
M  V30 14 C 1.544610 2.185968 3.307613 0
M  V30 15 N 0.872922 3.179716 3.931523 0
M  V30 16 C -0.447163 3.384492 3.725978 0
M  V30 17 C -1.088239 2.532240 2.846772 0
M  V30 18 O -2.440830 2.723465 2.620947 0
M  V30 19 C -3.192578 1.913714 1.745150 0
M  V30 20 C -4.640876 2.352657 1.695323 0 CFG=1
M  V30 21 C -5.335230 2.203726 3.014602 0
M  V30 22 N -4.672735 3.742869 1.222976 0
M  V30 23 C -0.402165 1.519376 2.211285 0
M  V30 24 C 1.255256 -0.650532 0.903173 0
M  V30 25 C 2.126956 -1.582384 0.386666 0
M  V30 26 C 1.697842 -2.530702 -0.510900 0
M  V30 27 C 0.390237 -2.569267 -0.911999 0
M  V30 28 C -0.062119 -3.525556 -1.822613 0
M  V30 29 O -1.361711 -3.634391 -2.278962 0
M  V30 30 C -2.408748 -2.791134 -1.884577 0
M  V30 31 H 1.855256 -6.882292 -2.903175 0
M  V30 32 H 2.155761 -5.783857 -4.299107 0
M  V30 33 H 0.880953 -7.071080 -4.386157 0
M  V30 34 H 2.856656 -5.148302 -2.326078 0
M  V30 35 H 5.382775 -2.502366 0.553774 0
M  V30 36 H 6.148127 -0.453035 1.486216 0
M  V30 37 H 5.801537 -0.817424 2.934955 0
M  V30 38 H 2.594725 2.144710 3.570732 0
M  V30 39 H -0.920308 4.203433 4.262887 0
M  V30 40 H -2.797140 1.924464 0.711889 0
M  V30 41 H -3.185059 0.835478 2.048132 0
M  V30 42 H -5.193652 1.760775 0.939027 0
M  V30 43 H -5.312957 3.127406 3.637511 0
M  V30 44 H -4.892495 1.384400 3.638189 0
M  V30 45 H -6.405292 1.950352 2.884233 0
M  V30 46 H -4.404711 4.415807 1.972470 0
M  V30 47 H -5.549174 3.958025 0.736486 0
M  V30 48 H -0.915310 0.867703 1.532506 0
M  V30 49 H 0.212482 -0.582554 0.664083 0
M  V30 50 H -0.388602 -1.908882 -0.591529 0
M  V30 51 H -2.624365 -2.823183 -0.801960 0
M  V30 52 H -3.330207 -3.183022 -2.393743 0
M  V30 53 H -2.298469 -1.737364 -2.194152 0
M  V30 END ATOM
M  V30 BEGIN BOND
M  V30 1 1 1 2
M  V30 2 1 2 3
M  V30 3 2 3 4
M  V30 4 1 4 5
M  V30 5 2 5 6
M  V30 6 1 6 7
M  V30 7 2 7 8
M  V30 8 1 8 9
M  V30 9 1 9 10
M  V30 10 2 9 11
M  V30 11 1 11 12
M  V30 12 1 12 13
M  V30 13 2 13 14
M  V30 14 1 14 15
M  V30 15 2 15 16
M  V30 16 1 16 17
M  V30 17 1 17 18
M  V30 18 1 18 19
M  V30 19 1 19 20
M  V30 20 1 20 21
M  V30 21 1 20 22
M  V30 22 2 17 23
M  V30 23 2 12 24
M  V30 24 1 24 25
M  V30 25 2 25 26
M  V30 26 1 26 27
M  V30 27 2 27 28
M  V30 28 1 28 29
M  V30 29 1 29 30
M  V30 30 1 28 3
M  V30 31 1 26 5
M  V30 32 1 25 8
M  V30 33 1 23 13
M  V30 34 1 1 31
M  V30 35 1 1 32
M  V30 36 1 1 33
M  V30 37 1 4 34
M  V30 38 1 7 35
M  V30 39 1 10 36
M  V30 40 1 10 37
M  V30 41 1 14 38
M  V30 42 1 16 39
M  V30 43 1 19 40
M  V30 44 1 19 41
M  V30 45 1 20 42 CFG=3
M  V30 46 1 21 43
M  V30 47 1 21 44
M  V30 48 1 21 45
M  V30 49 1 22 46
M  V30 50 1 22 47
M  V30 51 1 23 48
M  V30 52 1 24 49
M  V30 53 1 27 50
M  V30 54 1 30 51
M  V30 55 1 30 52
M  V30 56 1 30 53
M  V30 END BOND
M  V30 END CTAB
M  END
>  <Dataset>  (205) 
ChEMBL_Kinases

>  <Ligand_Instance>  (205) 
nan

>  <PDB_ID>  (205) 
nan

>  <Standardized_SMILES>  (205) 
COc1cc2ncc3c(N)nc(-c4cncc(OC[C@@H](C)N)c4)cc3c2cc1OC

>  <Name>  (205) 
nan

>  <Pocket>  (205) 
nan

>  <ATP_Site>  (205) 
nan

>  <Peripheral>  (205) 
nan

>  <Num_H_Atoms_ProtBoundConf>  (205) 
nan

>  <Num_Resolved_Atoms>  (205) 
nan

>  <Num_Not_Resolved_Atoms>  (205) 
nan

$$$$
CHEMBL1097699
     RDKit          3D

  0  0  0  0  0  0  0  0  0  0999 V3000
M  V30 BEGIN CTAB
M  V30 COUNTS 56 57 0 0 0
M  V30 BEGIN ATOM
M  V30 1 C 2.863812 -4.347416 -0.229220 0
M  V30 2 C 2.003777 -3.073054 -0.043854 0 CFG=2
M  V30 3 C 0.799379 -3.475163 0.591033 0
M  V30 4 C 0.101511 -3.188045 1.644990 0
M  V30 5 C 0.594386 -2.147479 2.528313 0
M  V30 6 O 1.647913 -1.504981 2.297504 0
M  V30 7 C 0.798979 -1.176321 3.618573 0 CFG=1
M  V30 8 O 1.928575 -0.427562 3.355491 0
M  V30 9 C -0.342339 -0.326162 4.000478 0 CFG=1
M  V30 10 O 0.084771 0.334708 5.206903 0
M  V30 11 C -0.699520 0.768397 3.084188 0
M  V30 12 C -1.200885 0.474232 1.745433 0
M  V30 13 C -0.697939 0.969643 0.627216 0
M  V30 14 C -0.975083 0.870879 -0.798937 0
M  V30 15 C -1.644824 2.070812 -1.089965 0
M  V30 16 C -2.145945 2.471418 -2.340309 0
M  V30 17 N -2.836043 3.686505 -2.583842 0
M  V30 18 C -3.305026 4.136526 -3.852123 0
M  V30 19 C -2.224292 4.552314 -4.820846 0
M  V30 20 O -2.806737 4.966662 -6.022268 0
M  V30 21 C -1.945472 1.575100 -3.368166 0
M  V30 22 C -1.287631 0.395957 -3.087885 0
M  V30 23 O -1.135883 -0.441715 -4.198157 0
M  V30 24 C -0.804212 0.022035 -1.857523 0
M  V30 25 C -0.148446 -1.285220 -1.902738 0
M  V30 26 O -0.880755 -2.220828 -2.380790 0
M  V30 27 O 1.141359 -1.266075 -1.420801 0
M  V30 28 C 1.854586 -2.462401 -1.422655 0 CFG=1
M  V30 29 C 3.113534 -2.478177 -2.231320 0
M  V30 30 H 2.560559 -4.922277 -1.100536 0
M  V30 31 H 2.689042 -4.950995 0.684409 0
M  V30 32 H 3.937774 -4.068814 -0.190072 0
M  V30 33 H 2.615312 -2.398670 0.540355 0
M  V30 34 H 0.078765 -4.223906 0.301143 0
M  V30 35 H -0.595846 -3.122279 2.408044 0
M  V30 36 H 1.110619 -1.818714 4.540766 0
M  V30 37 H 2.381739 -0.123917 4.172940 0
M  V30 38 H -1.224867 -0.904636 4.373561 0
M  V30 39 H 0.239144 -0.336688 5.907229 0
M  V30 40 H -1.470874 1.470617 3.539258 0
M  V30 41 H 0.188785 1.477195 2.940509 0
M  V30 42 H -2.054717 -0.202388 1.623577 0
M  V30 43 H 0.157991 1.650097 0.770199 0
M  V30 44 H -1.857616 2.867313 -0.352968 0
M  V30 45 H -3.013492 4.306695 -1.746741 0
M  V30 46 H -4.033238 4.960983 -3.712877 0
M  V30 47 H -3.914133 3.308530 -4.331354 0
M  V30 48 H -1.767570 5.486178 -4.371892 0
M  V30 49 H -1.398107 3.857346 -4.931102 0
M  V30 50 H -3.780973 4.919211 -6.007559 0
M  V30 51 H -2.308271 1.794326 -4.363198 0
M  V30 52 H -1.924925 -1.044521 -4.388273 0
M  V30 53 H 1.179462 -3.204069 -1.906991 0
M  V30 54 H 2.839815 -2.442754 -3.327155 0
M  V30 55 H 3.739668 -1.577424 -2.090768 0
M  V30 56 H 3.634874 -3.420648 -2.097479 0
M  V30 END ATOM
M  V30 BEGIN BOND
M  V30 1 1 1 2
M  V30 2 1 2 3
M  V30 3 2 3 4
M  V30 4 1 4 5
M  V30 5 2 5 6
M  V30 6 1 5 7
M  V30 7 1 7 8
M  V30 8 1 7 9
M  V30 9 1 9 10
M  V30 10 1 9 11
M  V30 11 1 11 12
M  V30 12 2 12 13
M  V30 13 1 13 14
M  V30 14 2 14 15
M  V30 15 1 15 16
M  V30 16 1 16 17
M  V30 17 1 17 18
M  V30 18 1 18 19
M  V30 19 1 19 20
M  V30 20 2 16 21
M  V30 21 1 21 22
M  V30 22 1 22 23
M  V30 23 2 22 24
M  V30 24 1 24 25
M  V30 25 2 25 26
M  V30 26 1 25 27
M  V30 27 1 27 28
M  V30 28 1 28 29
M  V30 29 1 28 2
M  V30 30 1 24 14
M  V30 31 1 1 30
M  V30 32 1 1 31
M  V30 33 1 1 32
M  V30 34 1 2 33 CFG=1
M  V30 35 1 3 34
M  V30 36 1 4 35
M  V30 37 1 7 36 CFG=1
M  V30 38 1 8 37
M  V30 39 1 9 38 CFG=1
M  V30 40 1 10 39
M  V30 41 1 11 40
M  V30 42 1 11 41
M  V30 43 1 12 42
M  V30 44 1 13 43
M  V30 45 1 15 44
M  V30 46 1 17 45
M  V30 47 1 18 46
M  V30 48 1 18 47
M  V30 49 1 19 48
M  V30 50 1 19 49
M  V30 51 1 20 50
M  V30 52 1 21 51
M  V30 53 1 23 52
M  V30 54 1 28 53 CFG=3
M  V30 55 1 29 54
M  V30 56 1 29 55
M  V30 57 1 29 56
M  V30 END BOND
M  V30 END CTAB
M  END
>  <Dataset>  (206) 
ChEMBL_Kinases

>  <Ligand_Instance>  (206) 
nan

>  <PDB_ID>  (206) 
nan

>  <Standardized_SMILES>  (206) 
C[C@@H]1/C=C\C(=O)[C@@H](O)[C@@H](O)C/C=C/c2cc(NCCO)cc(O)c2C(=O)O[C@H]1C

>  <Name>  (206) 
nan

>  <Pocket>  (206) 
nan

>  <ATP_Site>  (206) 
nan

>  <Peripheral>  (206) 
nan

>  <Num_H_Atoms_ProtBoundConf>  (206) 
nan

>  <Num_Resolved_Atoms>  (206) 
nan

>  <Num_Not_Resolved_Atoms>  (206) 
nan

$$$$
CHEMBL1098938
     RDKit          3D

  0  0  0  0  0  0  0  0  0  0999 V3000
M  V30 BEGIN CTAB
M  V30 COUNTS 61 64 0 0 0
M  V30 BEGIN ATOM
M  V30 1 C 3.975478 -1.375185 0.852769 0
M  V30 2 C 2.988341 -1.262412 1.982905 0
M  V30 3 N 1.993909 -0.256690 1.729403 0
M  V30 4 C 2.060883 1.048551 2.007297 0
M  V30 5 C 3.064115 1.932986 2.580371 0
M  V30 6 N 2.837212 3.235298 2.791688 0
M  V30 7 O 3.848639 3.809003 3.322557 0
M  V30 8 N 4.823794 2.961428 3.510605 0
M  V30 9 C 4.337030 1.813699 3.053184 0
M  V30 10 N 5.136463 0.672684 3.078728 0
M  V30 11 N 0.866131 1.515606 1.617288 0
M  V30 12 C 0.106940 0.548664 1.124387 0
M  V30 13 C -1.172095 0.644805 0.627422 0
M  V30 14 C -1.859270 1.906345 0.594735 0
M  V30 15 C -2.443070 2.962073 0.561148 0
M  V30 16 C -3.174619 4.250793 0.524100 0
M  V30 17 C -4.365348 4.222178 1.462242 0
M  V30 18 C -2.167917 5.300197 0.900442 0
M  V30 19 O -3.624962 4.487692 -0.772155 0
M  V30 20 N -1.730306 -0.518089 0.177247 0
M  V30 21 C -1.043046 -1.678605 0.229543 0
M  V30 22 O -1.615248 -2.841499 -0.226330 0
M  V30 23 C -2.894780 -2.965066 -0.765371 0
M  V30 24 C -3.179491 -4.384619 -1.156193 0 CFG=2
M  V30 25 N -3.065014 -5.197981 0.038765 0
M  V30 26 C -2.306366 -4.914016 -2.250734 0
M  V30 27 C -0.858021 -4.907260 -1.928834 0
M  V30 28 C 0.010604 -3.878219 -2.193641 0
M  V30 29 C 1.344790 -3.875512 -1.895464 0
M  V30 30 C 1.896028 -4.979304 -1.278658 0
M  V30 31 C 1.071179 -6.038220 -0.990731 0
M  V30 32 C -0.250871 -5.997982 -1.305359 0
M  V30 33 C 0.239292 -1.771833 0.728396 0
M  V30 34 C 0.826333 -0.614661 1.189070 0
M  V30 35 H 4.995679 -1.567608 1.254657 0
M  V30 36 H 3.762839 -2.250429 0.172338 0
M  V30 37 H 3.939926 -0.458815 0.216323 0
M  V30 38 H 3.424023 -1.192619 2.979423 0
M  V30 39 H 2.479960 -2.301926 2.024530 0
M  V30 40 H 6.002197 0.652131 2.460996 0
M  V30 41 H 5.822553 -0.093088 2.987090 0
M  V30 42 H -4.836360 3.220473 1.378394 0
M  V30 43 H -4.033391 4.325786 2.515750 0
M  V30 44 H -5.081207 4.982498 1.139793 0
M  V30 45 H -2.316066 6.183861 0.228471 0
M  V30 46 H -2.332231 5.687465 1.929777 0
M  V30 47 H -1.110576 4.970923 0.723317 0
M  V30 48 H -4.622852 4.537583 -0.784424 0
M  V30 49 H -3.629928 -2.697887 0.025091 0
M  V30 50 H -3.028507 -2.248401 -1.601301 0
M  V30 51 H -4.239655 -4.482743 -1.539300 0
M  V30 52 H -3.224042 -6.206610 -0.125687 0
M  V30 53 H -3.741891 -4.858858 0.759761 0
M  V30 54 H -2.569469 -6.006971 -2.361290 0
M  V30 55 H -2.433511 -4.385864 -3.205758 0
M  V30 56 H -0.391284 -2.993744 -2.679847 0
M  V30 57 H 1.949804 -2.997967 -2.151470 0
M  V30 58 H 2.958740 -4.906357 -1.072817 0
M  V30 59 H 1.550515 -6.880477 -0.506778 0
M  V30 60 H -0.829193 -6.873651 -1.044241 0
M  V30 61 H 0.829375 -2.672170 0.791810 0
M  V30 END ATOM
M  V30 BEGIN BOND
M  V30 1 1 1 2
M  V30 2 1 2 3
M  V30 3 1 3 4
M  V30 4 1 4 5
M  V30 5 2 5 6
M  V30 6 1 6 7
M  V30 7 1 7 8
M  V30 8 2 8 9
M  V30 9 1 9 10
M  V30 10 2 4 11
M  V30 11 1 11 12
M  V30 12 2 12 13
M  V30 13 1 13 14
M  V30 14 3 14 15
M  V30 15 1 15 16
M  V30 16 1 16 17
M  V30 17 1 16 18
M  V30 18 1 16 19
M  V30 19 1 13 20
M  V30 20 2 20 21
M  V30 21 1 21 22
M  V30 22 1 22 23
M  V30 23 1 23 24
M  V30 24 1 24 25
M  V30 25 1 24 26
M  V30 26 1 26 27
M  V30 27 2 27 28
M  V30 28 1 28 29
M  V30 29 2 29 30
M  V30 30 1 30 31
M  V30 31 2 31 32
M  V30 32 1 21 33
M  V30 33 2 33 34
M  V30 34 1 34 3
M  V30 35 1 9 5
M  V30 36 1 34 12
M  V30 37 1 32 27
M  V30 38 1 1 35
M  V30 39 1 1 36
M  V30 40 1 1 37
M  V30 41 1 2 38
M  V30 42 1 2 39
M  V30 43 1 10 40
M  V30 44 1 10 41
M  V30 45 1 17 42
M  V30 46 1 17 43
M  V30 47 1 17 44
M  V30 48 1 18 45
M  V30 49 1 18 46
M  V30 50 1 18 47
M  V30 51 1 19 48
M  V30 52 1 23 49
M  V30 53 1 23 50
M  V30 54 1 24 51 CFG=3
M  V30 55 1 25 52
M  V30 56 1 25 53
M  V30 57 1 26 54
M  V30 58 1 26 55
M  V30 59 1 28 56
M  V30 60 1 29 57
M  V30 61 1 30 58
M  V30 62 1 31 59
M  V30 63 1 32 60
M  V30 64 1 33 61
M  V30 END BOND
M  V30 END CTAB
M  END
>  <Dataset>  (207) 
ChEMBL_Kinases

>  <Ligand_Instance>  (207) 
nan

>  <PDB_ID>  (207) 
nan

>  <Standardized_SMILES>  (207) 
CCn1c(-c2nonc2N)nc2c(C#CC(C)(C)O)nc(OC[C@H](N)Cc3ccccc3)cc21

>  <Name>  (207) 
nan

>  <Pocket>  (207) 
nan

>  <ATP_Site>  (207) 
nan

>  <Peripheral>  (207) 
nan

>  <Num_H_Atoms_ProtBoundConf>  (207) 
nan

>  <Num_Resolved_Atoms>  (207) 
nan

>  <Num_Not_Resolved_Atoms>  (207) 
nan

$$$$
CHEMBL116437
     RDKit          3D

  0  0  0  0  0  0  0  0  0  0999 V3000
M  V30 BEGIN CTAB
M  V30 COUNTS 64 67 0 0 0
M  V30 BEGIN ATOM
M  V30 1 C -4.790950 0.375829 2.578896 0
M  V30 2 C -3.433814 -0.101697 3.022114 0
M  V30 3 O -3.050181 -0.292955 4.203211 0
M  V30 4 O -2.644619 -0.306562 1.914256 0
M  V30 5 C -1.280706 -0.766860 1.991092 0 CFG=2
M  V30 6 C -0.315002 0.236590 1.510281 0 CFG=1
M  V30 7 C 0.515295 0.828852 2.666575 0
M  V30 8 C 0.650722 -0.137009 0.439563 0 CFG=1
M  V30 9 O 1.790549 -0.640014 1.130796 0
M  V30 10 C 0.272805 -1.273716 -0.445090 0 CFG=1
M  V30 11 C 1.552043 -1.873152 -0.990749 0
M  V30 12 C 2.746522 -1.339123 -1.313472 0
M  V30 13 C 3.843593 -2.194868 -1.839646 0
M  V30 14 O 4.939849 -2.094503 -0.958234 0
M  V30 15 C 3.117159 0.104342 -1.196289 0
M  V30 16 C 1.906160 0.887684 -1.501427 0 CFG=2
M  V30 17 O 1.182924 0.409880 -2.584164 0
M  V30 18 C 2.110048 2.336979 -1.789784 0
M  V30 19 O 3.098355 3.051069 -2.101302 0
M  V30 20 C 0.726834 2.850914 -1.614343 0
M  V30 21 C 0.131175 4.024486 -2.359311 0
M  V30 22 C 0.143264 2.073346 -0.677788 0
M  V30 23 C 1.111189 1.070901 -0.241497 0 CFG=1
M  V30 24 C -0.477330 -2.376762 0.198389 0 CFG=2
M  V30 25 C -2.002408 -2.265442 0.000225 0
M  V30 26 C -2.684059 -3.544021 -0.350385 0
M  V30 27 C -2.571038 -1.059167 -0.674559 0
M  V30 28 C -1.287655 -2.108225 1.355755 0 CFG=2
M  V30 29 O -1.648089 -3.168551 2.221799 0
M  V30 30 C -0.892501 -3.428335 3.358985 0
M  V30 31 C -1.304244 -4.536175 4.225593 0
M  V30 32 O 0.124874 -2.748020 3.664669 0
M  V30 33 H -5.261631 -0.344180 1.891014 0
M  V30 34 H -5.374941 0.630731 3.473309 0
M  V30 35 H -4.624487 1.343333 2.033526 0
M  V30 36 H -1.143404 -0.871413 3.090756 0
M  V30 37 H -0.906393 1.118700 1.182898 0
M  V30 38 H -0.143288 0.952918 3.535619 0
M  V30 39 H 0.913330 1.808219 2.364642 0
M  V30 40 H 1.341516 0.105773 2.847442 0
M  V30 41 H 1.634706 -1.588542 1.373755 0
M  V30 42 H -0.268692 -0.956623 -1.367555 0
M  V30 43 H 1.572800 -2.949078 -1.181641 0
M  V30 44 H 3.578848 -3.252281 -1.898114 0
M  V30 45 H 4.129287 -1.842930 -2.858678 0
M  V30 46 H 5.417995 -1.243472 -1.103829 0
M  V30 47 H 3.478892 0.301514 -0.182098 0
M  V30 48 H 3.904978 0.368658 -1.941758 0
M  V30 49 H 1.791160 -0.188586 -3.103328 0
M  V30 50 H 0.928673 4.767720 -2.557536 0
M  V30 51 H -0.614158 4.518300 -1.686817 0
M  V30 52 H -0.400475 3.724229 -3.260723 0
M  V30 53 H -0.902032 2.328335 -0.431714 0
M  V30 54 H 1.815755 1.617274 0.456002 0
M  V30 55 H -0.054631 -3.426622 0.155754 0
M  V30 56 H -2.110664 -4.430566 0.010574 0
M  V30 57 H -2.690595 -3.630968 -1.469252 0
M  V30 58 H -3.715296 -3.632504 0.057997 0
M  V30 59 H -2.061466 -0.115275 -0.517242 0
M  V30 60 H -2.658159 -1.237047 -1.752981 0
M  V30 61 H -3.616868 -0.935018 -0.283544 0
M  V30 62 H -2.203132 -4.272705 4.820794 0
M  V30 63 H -0.529935 -4.821900 4.970765 0
M  V30 64 H -1.597987 -5.427089 3.621516 0
M  V30 END ATOM
M  V30 BEGIN BOND
M  V30 1 1 1 2
M  V30 2 2 2 3
M  V30 3 1 2 4
M  V30 4 1 4 5
M  V30 5 1 5 6
M  V30 6 1 6 7
M  V30 7 1 6 8
M  V30 8 1 8 9 CFG=1
M  V30 9 1 8 10
M  V30 10 1 10 11
M  V30 11 2 11 12
M  V30 12 1 12 13
M  V30 13 1 13 14
M  V30 14 1 12 15
M  V30 15 1 15 16
M  V30 16 1 16 17 CFG=3
M  V30 17 1 16 18
M  V30 18 2 18 19
M  V30 19 1 18 20
M  V30 20 1 20 21
M  V30 21 2 20 22
M  V30 22 1 22 23
M  V30 23 1 10 24
M  V30 24 1 24 25
M  V30 25 1 25 26
M  V30 26 1 25 27
M  V30 27 1 25 28
M  V30 28 1 28 29 CFG=1
M  V30 29 1 29 30
M  V30 30 1 30 31
M  V30 31 2 30 32
M  V30 32 1 28 5
M  V30 33 1 23 8
M  V30 34 1 28 24
M  V30 35 1 23 16
M  V30 36 1 1 33
M  V30 37 1 1 34
M  V30 38 1 1 35
M  V30 39 1 5 36 CFG=1
M  V30 40 1 6 37 CFG=3
M  V30 41 1 7 38
M  V30 42 1 7 39
M  V30 43 1 7 40
M  V30 44 1 9 41
M  V30 45 1 10 42 CFG=3
M  V30 46 1 11 43
M  V30 47 1 13 44
M  V30 48 1 13 45
M  V30 49 1 14 46
M  V30 50 1 15 47
M  V30 51 1 15 48
M  V30 52 1 17 49
M  V30 53 1 21 50
M  V30 54 1 21 51
M  V30 55 1 21 52
M  V30 56 1 22 53
M  V30 57 1 23 54 CFG=1
M  V30 58 1 24 55 CFG=1
M  V30 59 1 26 56
M  V30 60 1 26 57
M  V30 61 1 26 58
M  V30 62 1 27 59
M  V30 63 1 27 60
M  V30 64 1 27 61
M  V30 65 1 31 62
M  V30 66 1 31 63
M  V30 67 1 31 64
M  V30 END BOND
M  V30 END CTAB
M  END
>  <Dataset>  (208) 
ChEMBL_Kinases

>  <Ligand_Instance>  (208) 
nan

>  <PDB_ID>  (208) 
nan

>  <Standardized_SMILES>  (208) 
CC(=O)O[C@@H]1[C@@H](C)[C@@]2(O)[C@@H](C=C(CO)C[C@]3(O)C(=O)C(C)=C[C@@H]23)[C@@H]2C(C)(C)[C@]12OC(C)=O

>  <Name>  (208) 
nan

>  <Pocket>  (208) 
nan

>  <ATP_Site>  (208) 
nan

>  <Peripheral>  (208) 
nan

>  <Num_H_Atoms_ProtBoundConf>  (208) 
nan

>  <Num_Resolved_Atoms>  (208) 
nan

>  <Num_Not_Resolved_Atoms>  (208) 
nan

$$$$
CHEMBL1164092
     RDKit          3D

  0  0  0  0  0  0  0  0  0  0999 V3000
M  V30 BEGIN CTAB
M  V30 COUNTS 49 53 0 0 0
M  V30 BEGIN ATOM
M  V30 1 C -0.312029 -2.231110 4.763702 0
M  V30 2 C 0.508369 -2.476897 3.548919 0
M  V30 3 C 1.369643 -3.556748 3.477743 0
M  V30 4 C 2.154250 -3.820905 2.366510 0
M  V30 5 C 2.080119 -2.980414 1.285962 0
M  V30 6 C 1.223882 -1.902400 1.350220 0
M  V30 7 C 0.945873 -0.844396 0.360315 0
M  V30 8 N 1.796371 0.119091 -0.102081 0
M  V30 9 C 1.126311 0.893242 -0.998596 0
M  V30 10 C 1.829903 2.022516 -1.662178 0
M  V30 11 C 1.752268 3.225081 -0.782897 0
M  V30 12 C 2.786261 3.371748 0.153101 0
M  V30 13 C 2.883458 4.420260 1.049262 0
M  V30 14 C 1.890350 5.397391 1.023621 0
M  V30 15 C 0.872600 5.257794 0.106509 0
M  V30 16 C -0.144461 6.269717 0.088308 0
M  V30 17 N -0.979109 7.080225 0.083661 0
M  V30 18 C 0.786922 4.216482 -0.774999 0
M  V30 19 N -0.128775 0.423144 -1.099050 0
M  V30 20 C -0.277416 -0.647305 -0.277095 0
M  V30 21 C -1.492156 -1.462959 -0.091915 0
M  V30 22 C -2.734168 -1.130614 0.387676 0
M  V30 23 C -3.699006 -2.113327 0.445213 0
M  V30 24 C -3.362136 -3.383919 0.015771 0
M  V30 25 N -4.311586 -4.330020 0.076116 0
M  V30 26 C -4.131533 -5.607988 -0.306630 0
M  V30 27 C -2.872576 -5.951785 -0.793873 0
M  V30 28 C -1.861635 -5.024265 -0.878652 0
M  V30 29 C -2.119808 -3.728497 -0.466677 0
M  V30 30 N -1.215499 -2.729614 -0.500959 0
M  V30 31 N 0.465599 -1.668892 2.455475 0
M  V30 32 H -1.307951 -2.712705 4.593744 0
M  V30 33 H 0.188967 -2.649145 5.641818 0
M  V30 34 H -0.488200 -1.152916 4.958645 0
M  V30 35 H 1.448587 -4.238206 4.319073 0
M  V30 36 H 2.839718 -4.652715 2.271100 0
M  V30 37 H 2.597617 -3.021468 0.359380 0
M  V30 38 H 2.796870 0.183644 0.233910 0
M  V30 39 H 2.902148 1.795559 -1.823986 0
M  V30 40 H 1.328414 2.274323 -2.643005 0
M  V30 41 H 3.578645 2.618384 0.192758 0
M  V30 42 H 3.728340 4.445046 1.740001 0
M  V30 43 H 1.970806 6.217346 1.727863 0
M  V30 44 H 0.007364 4.073708 -1.504697 0
M  V30 45 H -2.783842 -0.090389 0.667131 0
M  V30 46 H -4.643173 -1.795046 0.827103 0
M  V30 47 H -4.898681 -6.347768 -0.251716 0
M  V30 48 H -2.642410 -6.957377 -1.123776 0
M  V30 49 H -0.860608 -5.202363 -1.242230 0
M  V30 END ATOM
M  V30 BEGIN BOND
M  V30 1 1 1 2
M  V30 2 2 2 3
M  V30 3 1 3 4
M  V30 4 2 4 5
M  V30 5 1 5 6
M  V30 6 1 6 7
M  V30 7 1 7 8
M  V30 8 1 8 9
M  V30 9 1 9 10
M  V30 10 1 10 11
M  V30 11 2 11 12
M  V30 12 1 12 13
M  V30 13 2 13 14
M  V30 14 1 14 15
M  V30 15 1 15 16
M  V30 16 3 16 17
M  V30 17 2 15 18
M  V30 18 2 9 19
M  V30 19 1 19 20
M  V30 20 1 20 21
M  V30 21 2 21 22
M  V30 22 1 22 23
M  V30 23 2 23 24
M  V30 24 1 24 25
M  V30 25 2 25 26
M  V30 26 1 26 27
M  V30 27 2 27 28
M  V30 28 1 28 29
M  V30 29 2 29 30
M  V30 30 2 6 31
M  V30 31 1 31 2
M  V30 32 2 20 7
M  V30 33 1 30 21
M  V30 34 1 18 11
M  V30 35 1 29 24
M  V30 36 1 1 32
M  V30 37 1 1 33
M  V30 38 1 1 34
M  V30 39 1 3 35
M  V30 40 1 4 36
M  V30 41 1 5 37
M  V30 42 1 8 38
M  V30 43 1 10 39
M  V30 44 1 10 40
M  V30 45 1 12 41
M  V30 46 1 13 42
M  V30 47 1 14 43
M  V30 48 1 18 44
M  V30 49 1 22 45
M  V30 50 1 23 46
M  V30 51 1 26 47
M  V30 52 1 27 48
M  V30 53 1 28 49
M  V30 END BOND
M  V30 END CTAB
M  END
>  <Dataset>  (209) 
ChEMBL_Kinases

>  <Ligand_Instance>  (209) 
nan

>  <PDB_ID>  (209) 
nan

>  <Standardized_SMILES>  (209) 
Cc1cccc(-c2[nH]c(Cc3cccc(C#N)c3)nc2-c2ccc3ncccc3n2)n1

>  <Name>  (209) 
nan

>  <Pocket>  (209) 
nan

>  <ATP_Site>  (209) 
nan

>  <Peripheral>  (209) 
nan

>  <Num_H_Atoms_ProtBoundConf>  (209) 
nan

>  <Num_Resolved_Atoms>  (209) 
nan

>  <Num_Not_Resolved_Atoms>  (209) 
nan

$$$$
CHEMBL1164022
     RDKit          3D

  0  0  0  0  0  0  0  0  0  0999 V3000
M  V30 BEGIN CTAB
M  V30 COUNTS 53 57 0 0 0
M  V30 BEGIN ATOM
M  V30 1 C 2.074648 -4.917721 3.646380 0
M  V30 2 C 1.685134 -3.468779 3.769918 0
M  V30 3 C 1.378944 -2.929106 5.009733 0
M  V30 4 C 1.019444 -1.601266 5.140418 0
M  V30 5 C 0.962528 -0.794605 4.021667 0
M  V30 6 C 1.274267 -1.355678 2.782413 0
M  V30 7 C 1.240313 -0.576041 1.545886 0
M  V30 8 N 1.913261 0.504551 1.153880 0
M  V30 9 N 1.530790 0.847915 -0.064861 0
M  V30 10 C 1.999629 1.967399 -0.887469 0
M  V30 11 C 1.168292 3.166932 -0.629353 0
M  V30 12 C 1.502095 4.084110 0.353532 0
M  V30 13 C 0.695854 5.184422 0.557281 0
M  V30 14 C -0.433953 5.405830 -0.183886 0
M  V30 15 C -0.735788 4.459002 -1.163710 0
M  V30 16 C -1.943877 4.677263 -1.967267 0
M  V30 17 N -2.317476 3.774899 -2.990954 0
M  V30 18 O -2.681591 5.679141 -1.763391 0
M  V30 19 C 0.026951 3.336159 -1.420170 0
M  V30 20 C 0.576976 -0.013321 -0.518741 0
M  V30 21 C 0.375669 -0.940067 0.507171 0
M  V30 22 C -0.582198 -2.043359 0.413561 0
M  V30 23 C -1.667044 -2.126480 1.263153 0
M  V30 24 C -2.550053 -3.181284 1.148774 0
M  V30 25 C -2.333609 -4.136701 0.185717 0
M  V30 26 N -3.185785 -5.177790 0.056580 0
M  V30 27 C -3.022005 -6.142992 -0.869841 0
M  V30 28 C -1.949551 -6.130788 -1.766952 0
M  V30 29 C -1.068454 -5.064569 -1.641658 0
M  V30 30 C -1.262629 -4.090656 -0.682374 0
M  V30 31 C -0.384300 -3.029798 -0.559168 0
M  V30 32 N 1.622927 -2.662191 2.691292 0
M  V30 33 H 2.865639 -5.152232 4.383427 0
M  V30 34 H 2.492864 -5.069612 2.640527 0
M  V30 35 H 1.178770 -5.542749 3.830713 0
M  V30 36 H 1.417112 -3.543502 5.894175 0
M  V30 37 H 0.772266 -1.136259 6.087299 0
M  V30 38 H 0.683932 0.258728 4.070007 0
M  V30 39 H 3.055489 2.156581 -0.575518 0
M  V30 40 H 2.010607 1.640433 -1.942026 0
M  V30 41 H 2.405077 3.908332 0.947298 0
M  V30 42 H 0.941104 5.924674 1.331535 0
M  V30 43 H -1.104416 6.246988 -0.072469 0
M  V30 44 H -2.220508 3.397345 -3.939923 0
M  V30 45 H -3.055047 3.043321 -2.927414 0
M  V30 46 H -0.268899 2.643886 -2.197706 0
M  V30 47 H 0.054614 -0.022026 -1.463985 0
M  V30 48 H -1.769961 -1.336064 1.995146 0
M  V30 49 H -3.391821 -3.223790 1.825234 0
M  V30 50 H -3.779707 -6.934213 -0.874621 0
M  V30 51 H -1.851909 -6.929891 -2.501449 0
M  V30 52 H -0.219989 -5.026592 -2.328860 0
M  V30 53 H 0.441444 -3.021774 -1.251349 0
M  V30 END ATOM
M  V30 BEGIN BOND
M  V30 1 1 1 2
M  V30 2 2 2 3
M  V30 3 1 3 4
M  V30 4 2 4 5
M  V30 5 1 5 6
M  V30 6 1 6 7
M  V30 7 2 7 8
M  V30 8 1 8 9
M  V30 9 1 9 10
M  V30 10 1 10 11
M  V30 11 2 11 12
M  V30 12 1 12 13
M  V30 13 2 13 14
M  V30 14 1 14 15
M  V30 15 1 15 16
M  V30 16 1 16 17
M  V30 17 2 16 18
M  V30 18 2 15 19
M  V30 19 1 9 20
M  V30 20 2 20 21
M  V30 21 1 21 22
M  V30 22 2 22 23
M  V30 23 1 23 24
M  V30 24 2 24 25
M  V30 25 1 25 26
M  V30 26 2 26 27
M  V30 27 1 27 28
M  V30 28 2 28 29
M  V30 29 1 29 30
M  V30 30 2 30 31
M  V30 31 2 6 32
M  V30 32 1 32 2
M  V30 33 1 21 7
M  V30 34 1 31 22
M  V30 35 1 19 11
M  V30 36 1 30 25
M  V30 37 1 1 33
M  V30 38 1 1 34
M  V30 39 1 1 35
M  V30 40 1 3 36
M  V30 41 1 4 37
M  V30 42 1 5 38
M  V30 43 1 10 39
M  V30 44 1 10 40
M  V30 45 1 12 41
M  V30 46 1 13 42
M  V30 47 1 14 43
M  V30 48 1 17 44
M  V30 49 1 17 45
M  V30 50 1 19 46
M  V30 51 1 20 47
M  V30 52 1 23 48
M  V30 53 1 24 49
M  V30 54 1 27 50
M  V30 55 1 28 51
M  V30 56 1 29 52
M  V30 57 1 31 53
M  V30 END BOND
M  V30 END CTAB
M  END
>  <Dataset>  (210) 
ChEMBL_Kinases

>  <Ligand_Instance>  (210) 
nan

>  <PDB_ID>  (210) 
nan

>  <Standardized_SMILES>  (210) 
Cc1cccc(-c2nn(Cc3cccc(C(N)=O)c3)cc2-c2ccc3ncccc3c2)n1

>  <Name>  (210) 
nan

>  <Pocket>  (210) 
nan

>  <ATP_Site>  (210) 
nan

>  <Peripheral>  (210) 
nan

>  <Num_H_Atoms_ProtBoundConf>  (210) 
nan

>  <Num_Resolved_Atoms>  (210) 
nan

>  <Num_Not_Resolved_Atoms>  (210) 
nan

$$$$
CHEMBL1163955
     RDKit          3D

  0  0  0  0  0  0  0  0  0  0999 V3000
M  V30 BEGIN CTAB
M  V30 COUNTS 50 54 0 0 0
M  V30 BEGIN ATOM
M  V30 1 C 0.952981 -3.568893 3.850296 0
M  V30 2 C 1.508165 -3.402040 2.459998 0
M  V30 3 C 2.234927 -4.405570 1.871322 0
M  V30 4 C 2.720190 -4.204153 0.600049 0
M  V30 5 C 2.500321 -3.034425 -0.094665 0
M  V30 6 C 1.764212 -2.040334 0.524088 0
M  V30 7 C 1.394926 -0.724922 0.012047 0
M  V30 8 N 2.107867 0.360478 -0.390368 0
M  V30 9 N 1.255188 1.316154 -0.773199 0
M  V30 10 C 1.629375 2.629116 -1.269362 0
M  V30 11 C 1.721586 3.551010 -0.096721 0
M  V30 12 C 2.862970 3.772307 0.644041 0
M  V30 13 C 2.891295 4.632097 1.713947 0
M  V30 14 C 1.724270 5.314995 2.075602 0
M  V30 15 C 0.578516 5.084437 1.321673 0
M  V30 16 C -0.589426 5.810469 1.736367 0
M  V30 17 N -1.529994 6.418037 2.068148 0
M  V30 18 C 0.546406 4.222460 0.247502 0
M  V30 19 C -0.022581 0.903622 -0.639657 0
M  V30 20 C 0.064917 -0.391773 -0.141318 0
M  V30 21 C -1.155345 -1.149752 0.125197 0
M  V30 22 C -2.176082 -0.863287 1.007709 0
M  V30 23 C -3.244245 -1.701035 1.115522 0
M  V30 24 C -3.309817 -2.840615 0.341804 0
M  V30 25 N -4.381963 -3.649578 0.472683 0
M  V30 26 C -4.501375 -4.784870 -0.262441 0
M  V30 27 C -3.530787 -5.155680 -1.172246 0
M  V30 28 C -2.433656 -4.310925 -1.294029 0
M  V30 29 C -2.300586 -3.158563 -0.555666 0
M  V30 30 C -1.225935 -2.298293 -0.651585 0
M  V30 31 N 1.296141 -2.267775 1.783693 0
M  V30 32 H -0.151288 -3.622474 3.768622 0
M  V30 33 H 1.384748 -4.436639 4.347314 0
M  V30 34 H 1.224090 -2.611592 4.384238 0
M  V30 35 H 2.413183 -5.319201 2.399298 0
M  V30 36 H 3.302782 -4.952025 0.071276 0
M  V30 37 H 2.829490 -2.771473 -1.084224 0
M  V30 38 H 2.664568 2.548629 -1.699599 0
M  V30 39 H 0.899785 2.973474 -2.002347 0
M  V30 40 H 3.756117 3.226585 0.338697 0
M  V30 41 H 3.833207 4.741695 2.235434 0
M  V30 42 H 1.758200 5.985118 2.914337 0
M  V30 43 H -0.363959 4.065039 -0.319769 0
M  V30 44 H -0.901787 1.506087 -0.887575 0
M  V30 45 H -2.017582 0.058471 1.563802 0
M  V30 46 H -4.009165 -1.419834 1.824592 0
M  V30 47 H -5.362909 -5.460438 -0.175352 0
M  V30 48 H -3.582042 -6.049609 -1.779589 0
M  V30 49 H -1.640555 -4.536726 -1.981931 0
M  V30 50 H -0.487821 -2.629225 -1.378395 0
M  V30 END ATOM
M  V30 BEGIN BOND
M  V30 1 1 1 2
M  V30 2 2 2 3
M  V30 3 1 3 4
M  V30 4 2 4 5
M  V30 5 1 5 6
M  V30 6 1 6 7
M  V30 7 2 7 8
M  V30 8 1 8 9
M  V30 9 1 9 10
M  V30 10 1 10 11
M  V30 11 2 11 12
M  V30 12 1 12 13
M  V30 13 2 13 14
M  V30 14 1 14 15
M  V30 15 1 15 16
M  V30 16 3 16 17
M  V30 17 2 15 18
M  V30 18 1 9 19
M  V30 19 2 19 20
M  V30 20 1 20 21
M  V30 21 2 21 22
M  V30 22 1 22 23
M  V30 23 2 23 24
M  V30 24 1 24 25
M  V30 25 2 25 26
M  V30 26 1 26 27
M  V30 27 2 27 28
M  V30 28 1 28 29
M  V30 29 2 29 30
M  V30 30 2 6 31
M  V30 31 1 31 2
M  V30 32 1 20 7
M  V30 33 1 30 21
M  V30 34 1 18 11
M  V30 35 1 29 24
M  V30 36 1 1 32
M  V30 37 1 1 33
M  V30 38 1 1 34
M  V30 39 1 3 35
M  V30 40 1 4 36
M  V30 41 1 5 37
M  V30 42 1 10 38
M  V30 43 1 10 39
M  V30 44 1 12 40
M  V30 45 1 13 41
M  V30 46 1 14 42
M  V30 47 1 18 43
M  V30 48 1 19 44
M  V30 49 1 22 45
M  V30 50 1 23 46
M  V30 51 1 26 47
M  V30 52 1 27 48
M  V30 53 1 28 49
M  V30 54 1 30 50
M  V30 END BOND
M  V30 END CTAB
M  END
>  <Dataset>  (211) 
ChEMBL_Kinases

>  <Ligand_Instance>  (211) 
nan

>  <PDB_ID>  (211) 
nan

>  <Standardized_SMILES>  (211) 
Cc1cccc(-c2nn(Cc3cccc(C#N)c3)cc2-c2ccc3ncccc3c2)n1

>  <Name>  (211) 
nan

>  <Pocket>  (211) 
nan

>  <ATP_Site>  (211) 
nan

>  <Peripheral>  (211) 
nan

>  <Num_H_Atoms_ProtBoundConf>  (211) 
nan

>  <Num_Resolved_Atoms>  (211) 
nan

>  <Num_Not_Resolved_Atoms>  (211) 
nan

$$$$
CHEMBL1162941
     RDKit          3D

  0  0  0  0  0  0  0  0  0  0999 V3000
M  V30 BEGIN CTAB
M  V30 COUNTS 125 128 0 0 0
M  V30 BEGIN ATOM
M  V30 1 C 6.060706 3.005672 2.455173 0
M  V30 2 C 6.401082 4.317778 3.072407 0
M  V30 3 C 5.643629 5.447078 2.475167 0
M  V30 4 C 7.250751 4.597382 4.047418 0
M  V30 5 C 7.638994 5.896530 4.712212 0
M  V30 6 C 8.295428 5.527448 5.986158 0
M  V30 7 C 9.497698 6.431102 6.231620 0
M  V30 8 O 9.018946 7.716168 6.338129 0
M  V30 9 C 7.393075 5.613644 7.223347 0
M  V30 10 O 6.271960 4.819438 6.995236 0
M  V30 11 C 5.256429 4.546857 7.878957 0
M  V30 12 O 5.284071 5.014624 9.036869 0
M  V30 13 C 4.175115 3.700946 7.377379 0
M  V30 14 C 4.156787 3.234967 6.048381 0
M  V30 15 C 3.129163 2.470737 5.565243 0
M  V30 16 C 2.059885 2.124465 6.372871 0
M  V30 17 C 1.055553 1.353072 5.647890 0
M  V30 18 C 0.217472 0.733919 5.040096 0
M  V30 19 C -0.776208 0.025766 4.311830 0
M  V30 20 C -2.116800 0.342477 4.426379 0
M  V30 21 C -3.045055 -0.326574 3.606790 0
M  V30 22 C -2.560992 -1.265698 2.730171 0
M  V30 23 C -3.369975 -1.955515 1.743771 0
M  V30 24 C -4.038366 -2.516971 0.905222 0
M  V30 25 C -4.815169 -3.168101 -0.104710 0
M  V30 26 C -4.583656 -2.577778 -1.364550 0
M  V30 27 C -5.204231 -3.037686 -2.542375 0
M  V30 28 C -6.055803 -4.086764 -2.460664 0
M  V30 29 O -6.668922 -4.555224 -3.537282 0
M  V30 30 C -6.839883 -4.407178 -4.848205 0
M  V30 31 C -5.890911 -4.474018 -5.946547 0
M  V30 32 O -4.806010 -3.589705 -6.018820 0
M  V30 33 C -4.261496 -3.738189 -7.302521 0
M  V30 34 C -3.206440 -2.816560 -7.675635 0
M  V30 35 O -2.052141 -2.809130 -6.992785 0
M  V30 36 C -1.281472 -3.931328 -7.038236 0
M  V30 37 C 0.086454 -3.791439 -6.426069 0
M  V30 38 O 0.003399 -3.438401 -5.082558 0
M  V30 39 C -0.476183 -2.216016 -4.674127 0
M  V30 40 O -0.856144 -1.256184 -5.378208 0
M  V30 41 N -0.661412 -1.768170 -3.293792 0
M  V30 42 C -1.209957 -0.455955 -3.331576 0
M  V30 43 C -2.638460 -0.260272 -3.520312 0
M  V30 44 O -3.872450 -0.210425 -3.712370 0
M  V30 45 O -3.067873 1.021220 -3.267060 0
M  V30 46 C -4.322272 1.576973 -3.370211 0
M  V30 47 C -4.175035 3.038356 -2.874382 0
M  V30 48 C -5.408556 0.945313 -2.581338 0
M  V30 49 C -4.810349 1.733860 -4.800215 0
M  V30 50 C -0.108165 -2.800759 -2.446127 0
M  V30 51 C -0.876984 -4.033158 -2.261679 0
M  V30 52 O -0.270924 -4.687612 -1.348719 0
M  V30 53 O -1.989468 -4.604890 -2.797534 0
M  V30 54 C -2.441902 -5.900286 -2.376277 0
M  V30 55 C -2.780532 -5.967399 -0.926367 0
M  V30 56 C -3.650903 -6.240954 -3.204560 0
M  V30 57 C -1.351296 -6.917663 -2.722853 0
M  V30 58 C -6.264730 -4.645149 -1.220228 0
M  V30 59 C -5.681096 -4.227076 -0.052095 0
M  V30 60 C -1.195989 -1.594837 2.614342 0
M  V30 61 C -0.305942 -0.927659 3.426436 0
M  V30 62 C 2.024867 2.544117 7.666057 0
M  V30 63 C 3.070956 3.312986 8.132587 0
M  V30 64 O 8.711303 4.157500 5.830200 0
M  V30 65 C 8.075209 3.605563 4.739076 0
M  V30 66 O 8.302003 2.395718 4.535726 0
M  V30 67 H 6.458747 2.955346 1.421122 0
M  V30 68 H 4.955029 2.838572 2.426379 0
M  V30 69 H 6.560579 2.205204 3.032754 0
M  V30 70 H 4.564644 5.221190 2.610604 0
M  V30 71 H 5.899062 5.557959 1.408685 0
M  V30 72 H 5.845868 6.415078 2.985920 0
M  V30 73 H 8.354668 6.431144 4.008955 0
M  V30 74 H 6.768649 6.582092 4.801526 0
M  V30 75 H 10.143446 6.327069 5.342233 0
M  V30 76 H 10.051160 6.106527 7.159617 0
M  V30 77 H 9.336492 8.349522 5.645707 0
M  V30 78 H 7.165639 6.696509 7.405409 0
M  V30 79 H 7.972589 5.296074 8.127651 0
M  V30 80 H 5.002149 3.523704 5.463690 0
M  V30 81 H 3.266073 2.201467 4.532146 0
M  V30 82 H -2.485190 1.099502 5.129467 0
M  V30 83 H -4.108512 -0.142017 3.629372 0
M  V30 84 H -3.924442 -1.745996 -1.524809 0
M  V30 85 H -5.036034 -2.607103 -3.497382 0
M  V30 86 H -7.770348 -5.072023 -5.168385 0
M  V30 87 H -7.404189 -3.369231 -4.982385 0
M  V30 88 H -5.519238 -5.528408 -6.121968 0
M  V30 89 H -6.445075 -4.276394 -6.934547 0
M  V30 90 H -3.889966 -4.803328 -7.423108 0
M  V30 91 H -5.143153 -3.725380 -8.022775 0
M  V30 92 H -2.942972 -2.893821 -8.788448 0
M  V30 93 H -3.646569 -1.751774 -7.577007 0
M  V30 94 H -1.196230 -4.346820 -8.078256 0
M  V30 95 H -1.810065 -4.714165 -6.414212 0
M  V30 96 H 0.701443 -4.709155 -6.579714 0
M  V30 97 H 0.601340 -2.981561 -7.024928 0
M  V30 98 H -0.691082 0.130729 -4.143664 0
M  V30 99 H -0.892341 0.085371 -2.379342 0
M  V30 100 H -4.507454 2.991658 -1.792914 0
M  V30 101 H -4.853867 3.719350 -3.420102 0
M  V30 102 H -3.123590 3.353142 -2.828605 0
M  V30 103 H -4.983190 0.361425 -1.749070 0
M  V30 104 H -6.053499 1.739277 -2.085894 0
M  V30 105 H -6.054615 0.275394 -3.181572 0
M  V30 106 H -4.957633 0.816032 -5.359848 0
M  V30 107 H -4.181681 2.504865 -5.334922 0
M  V30 108 H -5.824250 2.199289 -4.715852 0
M  V30 109 H 0.955898 -2.968225 -2.784086 0
M  V30 110 H 0.036689 -2.312017 -1.423847 0
M  V30 111 H -2.677172 -4.975503 -0.482779 0
M  V30 112 H -3.830659 -6.295418 -0.812259 0
M  V30 113 H -2.185913 -6.745454 -0.388154 0
M  V30 114 H -4.541067 -6.528643 -2.583121 0
M  V30 115 H -3.925448 -5.418555 -3.913768 0
M  V30 116 H -3.411636 -7.116138 -3.837801 0
M  V30 117 H -1.333669 -7.634031 -1.883820 0
M  V30 118 H -1.643395 -7.490131 -3.634278 0
M  V30 119 H -0.414877 -6.386330 -2.873702 0
M  V30 120 H -6.937985 -5.486103 -1.098740 0
M  V30 121 H -5.769015 -4.576817 0.955188 0
M  V30 122 H -0.786534 -2.334859 1.935289 0
M  V30 123 H 0.764605 -1.163623 3.355477 0
M  V30 124 H 1.166764 2.228473 8.203937 0
M  V30 125 H 3.018234 3.627276 9.171070 0
M  V30 END ATOM
M  V30 BEGIN BOND
M  V30 1 1 1 2
M  V30 2 1 2 3
M  V30 3 2 2 4 CFG=2
M  V30 4 1 4 5
M  V30 5 1 5 6
M  V30 6 1 6 7
M  V30 7 1 7 8
M  V30 8 1 6 9
M  V30 9 1 9 10
M  V30 10 1 10 11
M  V30 11 2 11 12
M  V30 12 1 11 13
M  V30 13 2 13 14
M  V30 14 1 14 15
M  V30 15 2 15 16
M  V30 16 1 16 17
M  V30 17 3 17 18
M  V30 18 1 18 19
M  V30 19 2 19 20
M  V30 20 1 20 21
M  V30 21 2 21 22
M  V30 22 1 22 23
M  V30 23 3 23 24
M  V30 24 1 24 25
M  V30 25 2 25 26
M  V30 26 1 26 27
M  V30 27 2 27 28
M  V30 28 1 28 29
M  V30 29 1 29 30
M  V30 30 1 30 31
M  V30 31 1 31 32
M  V30 32 1 32 33
M  V30 33 1 33 34
M  V30 34 1 34 35
M  V30 35 1 35 36
M  V30 36 1 36 37
M  V30 37 1 37 38
M  V30 38 1 38 39
M  V30 39 2 39 40
M  V30 40 1 39 41
M  V30 41 1 41 42
M  V30 42 1 42 43
M  V30 43 2 43 44
M  V30 44 1 43 45
M  V30 45 1 45 46
M  V30 46 1 46 47
M  V30 47 1 46 48
M  V30 48 1 46 49
M  V30 49 1 41 50
M  V30 50 1 50 51
M  V30 51 2 51 52
M  V30 52 1 51 53
M  V30 53 1 53 54
M  V30 54 1 54 55
M  V30 55 1 54 56
M  V30 56 1 54 57
M  V30 57 1 28 58
M  V30 58 2 58 59
M  V30 59 1 22 60
M  V30 60 2 60 61
M  V30 61 1 16 62
M  V30 62 2 62 63
M  V30 63 1 6 64
M  V30 64 1 64 65
M  V30 65 2 65 66
M  V30 66 1 65 4
M  V30 67 1 63 13
M  V30 68 1 61 19
M  V30 69 1 59 25
M  V30 70 1 1 67
M  V30 71 1 1 68
M  V30 72 1 1 69
M  V30 73 1 3 70
M  V30 74 1 3 71
M  V30 75 1 3 72
M  V30 76 1 5 73
M  V30 77 1 5 74
M  V30 78 1 7 75
M  V30 79 1 7 76
M  V30 80 1 8 77
M  V30 81 1 9 78
M  V30 82 1 9 79
M  V30 83 1 14 80
M  V30 84 1 15 81
M  V30 85 1 20 82
M  V30 86 1 21 83
M  V30 87 1 26 84
M  V30 88 1 27 85
M  V30 89 1 30 86
M  V30 90 1 30 87
M  V30 91 1 31 88
M  V30 92 1 31 89
M  V30 93 1 33 90
M  V30 94 1 33 91
M  V30 95 1 34 92
M  V30 96 1 34 93
M  V30 97 1 36 94
M  V30 98 1 36 95
M  V30 99 1 37 96
M  V30 100 1 37 97
M  V30 101 1 42 98
M  V30 102 1 42 99
M  V30 103 1 47 100
M  V30 104 1 47 101
M  V30 105 1 47 102
M  V30 106 1 48 103
M  V30 107 1 48 104
M  V30 108 1 48 105
M  V30 109 1 49 106
M  V30 110 1 49 107
M  V30 111 1 49 108
M  V30 112 1 50 109
M  V30 113 1 50 110
M  V30 114 1 55 111
M  V30 115 1 55 112
M  V30 116 1 55 113
M  V30 117 1 56 114
M  V30 118 1 56 115
M  V30 119 1 56 116
M  V30 120 1 57 117
M  V30 121 1 57 118
M  V30 122 1 57 119
M  V30 123 1 58 120
M  V30 124 1 59 121
M  V30 125 1 60 122
M  V30 126 1 61 123
M  V30 127 1 62 124
M  V30 128 1 63 125
M  V30 END BOND
M  V30 END CTAB
M  END
>  <Dataset>  (212) 
ChEMBL_Kinases

>  <Ligand_Instance>  (212) 
nan

>  <PDB_ID>  (212) 
nan

>  <Standardized_SMILES>  (212) 
CC(C)=C1CC(CO)(COC(=O)c2ccc(C#Cc3ccc(C#Cc4ccc(OCCOCCOCCOC(=O)N(CC(=O)OC(C)(C)C)CC(=O)OC(C)(C)C)cc4)cc3)cc2)OC1=O

>  <Name>  (212) 
nan

>  <Pocket>  (212) 
nan

>  <ATP_Site>  (212) 
nan

>  <Peripheral>  (212) 
nan

>  <Num_H_Atoms_ProtBoundConf>  (212) 
nan

>  <Num_Resolved_Atoms>  (212) 
nan

>  <Num_Not_Resolved_Atoms>  (212) 
nan

$$$$
CHEMBL1162485
     RDKit          3D

  0  0  0  0  0  0  0  0  0  0999 V3000
M  V30 BEGIN CTAB
M  V30 COUNTS 26 25 0 0 0
M  V30 BEGIN ATOM
M  V30 1 C 0.855374 2.673812 1.672962 0
M  V30 2 C 1.196245 1.349502 2.277747 0
M  V30 3 C 0.195499 0.257340 1.956737 0
M  V30 4 C 0.081554 0.018534 0.474648 0
M  V30 5 C -0.913933 -1.065162 0.130306 0
M  V30 6 C -0.447377 -2.341641 0.794574 0
M  V30 7 C 0.919521 -2.761627 0.326964 0
M  V30 8 C -0.950247 -1.223259 -1.342961 0
M  V30 9 O -0.177257 -0.457474 -2.009931 0
M  V30 10 O -1.776750 -2.150440 -1.965221 0
M  V30 11 H 1.660737 2.950395 0.947334 0
M  V30 12 H 0.758801 3.451229 2.441231 0
M  V30 13 H -0.094774 2.607640 1.108072 0
M  V30 14 H 2.215863 1.027067 1.987710 0
M  V30 15 H 1.212959 1.454056 3.383617 0
M  V30 16 H 0.566013 -0.640017 2.492981 0
M  V30 17 H -0.791930 0.506548 2.357591 0
M  V30 18 H -0.070942 0.944429 -0.092317 0
M  V30 19 H 1.070833 -0.383128 0.099668 0
M  V30 20 H -1.922611 -0.837285 0.538547 0
M  V30 21 H -0.456171 -2.284353 1.881590 0
M  V30 22 H -1.200604 -3.144494 0.538717 0
M  V30 23 H 1.707622 -2.246581 0.914876 0
M  V30 24 H 1.045888 -3.852441 0.534539 0
M  V30 25 H 1.058118 -2.580132 -0.768354 0
M  V30 26 H -1.966475 -2.009448 -2.963483 0
M  V30 END ATOM
M  V30 BEGIN BOND
M  V30 1 1 1 2
M  V30 2 1 2 3
M  V30 3 1 3 4
M  V30 4 1 4 5
M  V30 5 1 5 6
M  V30 6 1 6 7
M  V30 7 1 5 8
M  V30 8 2 8 9
M  V30 9 1 8 10
M  V30 10 1 1 11
M  V30 11 1 1 12
M  V30 12 1 1 13
M  V30 13 1 2 14
M  V30 14 1 2 15
M  V30 15 1 3 16
M  V30 16 1 3 17
M  V30 17 1 4 18
M  V30 18 1 4 19
M  V30 19 1 5 20
M  V30 20 1 6 21
M  V30 21 1 6 22
M  V30 22 1 7 23
M  V30 23 1 7 24
M  V30 24 1 7 25
M  V30 25 1 10 26
M  V30 END BOND
M  V30 END CTAB
M  END
>  <Dataset>  (213) 
ChEMBL_Kinases

>  <Ligand_Instance>  (213) 
nan

>  <PDB_ID>  (213) 
nan

>  <Standardized_SMILES>  (213) 
CCCCC(CC)C(=O)O

>  <Name>  (213) 
2-ETHYLHEXANOIC ACID

>  <Pocket>  (213) 
nan

>  <ATP_Site>  (213) 
nan

>  <Peripheral>  (213) 
nan

>  <Num_H_Atoms_ProtBoundConf>  (213) 
nan

>  <Num_Resolved_Atoms>  (213) 
nan

>  <Num_Not_Resolved_Atoms>  (213) 
nan

$$$$
CHEMBL1162293
     RDKit          3D

  0  0  0  0  0  0  0  0  0  0999 V3000
M  V30 BEGIN CTAB
M  V30 COUNTS 17 17 0 0 0
M  V30 BEGIN ATOM
M  V30 1 N -1.185522 1.264120 2.303982 0
M  V30 2 C 0.103154 0.793263 1.926067 0
M  V30 3 C 1.138254 0.769180 2.813055 0
M  V30 4 C 2.383313 0.317816 2.459906 0
M  V30 5 C 2.553922 -0.116905 1.157993 0
M  V30 6 C 1.524335 -0.099438 0.253936 0
M  V30 7 C 1.730472 -0.568366 -1.129760 0
M  V30 8 F 2.745009 -1.488344 -1.158499 0
M  V30 9 F 2.003149 0.554880 -1.890056 0
M  V30 10 F 0.580749 -1.153935 -1.626516 0
M  V30 11 C 0.283650 0.362527 0.646793 0
M  V30 12 H -2.095529 0.872223 1.960282 0
M  V30 13 H -1.163930 2.070095 2.983618 0
M  V30 14 H 0.949636 1.117429 3.807483 0
M  V30 15 H 3.162230 0.320191 3.196061 0
M  V30 16 H 3.525077 -0.480525 0.843751 0
M  V30 17 H -0.521019 0.372843 -0.071071 0
M  V30 END ATOM
M  V30 BEGIN BOND
M  V30 1 1 1 2
M  V30 2 2 2 3
M  V30 3 1 3 4
M  V30 4 2 4 5
M  V30 5 1 5 6
M  V30 6 1 6 7
M  V30 7 1 7 8
M  V30 8 1 7 9
M  V30 9 1 7 10
M  V30 10 2 6 11
M  V30 11 1 11 2
M  V30 12 1 1 12
M  V30 13 1 1 13
M  V30 14 1 3 14
M  V30 15 1 4 15
M  V30 16 1 5 16
M  V30 17 1 11 17
M  V30 END BOND
M  V30 END CTAB
M  END
>  <Dataset>  (214) 
ChEMBL_Kinases

>  <Ligand_Instance>  (214) 
nan

>  <PDB_ID>  (214) 
nan

>  <Standardized_SMILES>  (214) 
Nc1cccc(C(F)(F)F)c1

>  <Name>  (214) 
nan

>  <Pocket>  (214) 
nan

>  <ATP_Site>  (214) 
nan

>  <Peripheral>  (214) 
nan

>  <Num_H_Atoms_ProtBoundConf>  (214) 
nan

>  <Num_Resolved_Atoms>  (214) 
nan

>  <Num_Not_Resolved_Atoms>  (214) 
nan

$$$$
CHEMBL116211
     RDKit          3D

  0  0  0  0  0  0  0  0  0  0999 V3000
M  V30 BEGIN CTAB
M  V30 COUNTS 18 19 0 0 0
M  V30 BEGIN ATOM
M  V30 1 C -0.525093 -0.068448 -1.524603 0
M  V30 2 C 0.643739 0.239101 -0.853456 0
M  V30 3 C 0.607762 0.025607 0.506485 0
M  V30 4 C 1.805283 0.325100 1.299452 0
M  V30 5 C 1.953008 0.174957 2.663084 0
M  V30 6 C 3.231156 0.560662 3.062373 0
M  V30 7 N 3.824285 0.939433 1.895948 0
M  V30 8 N 2.991039 0.799935 0.878198 0
M  V30 9 C -0.502666 -0.453830 1.135986 0
M  V30 10 C -1.628987 -0.736135 0.394112 0
M  V30 11 N -1.657727 -0.549720 -0.934982 0
M  V30 12 H -0.631425 0.054249 -2.605212 0
M  V30 13 H 1.490914 0.612290 -1.383876 0
M  V30 14 H 1.203649 -0.190944 3.374709 0
M  V30 15 H 3.590841 0.536235 4.074416 0
M  V30 16 H 4.821839 1.284518 1.909464 0
M  V30 17 H -0.497662 -0.610406 2.207307 0
M  V30 18 H -2.531977 -1.119212 0.860053 0
M  V30 END ATOM
M  V30 BEGIN BOND
M  V30 1 2 1 2
M  V30 2 1 2 3
M  V30 3 1 3 4
M  V30 4 1 4 5
M  V30 5 2 5 6
M  V30 6 1 6 7
M  V30 7 1 7 8
M  V30 8 2 3 9
M  V30 9 1 9 10
M  V30 10 2 10 11
M  V30 11 1 11 1
M  V30 12 2 8 4
M  V30 13 1 1 12
M  V30 14 1 2 13
M  V30 15 1 5 14
M  V30 16 1 6 15
M  V30 17 1 7 16
M  V30 18 1 9 17
M  V30 19 1 10 18
M  V30 END BOND
M  V30 END CTAB
M  END
>  <Dataset>  (215) 
ChEMBL_Kinases

>  <Ligand_Instance>  (215) 
nan

>  <PDB_ID>  (215) 
nan

>  <Standardized_SMILES>  (215) 
c1cc(-c2cc[nH]n2)ccn1

>  <Name>  (215) 
nan

>  <Pocket>  (215) 
nan

>  <ATP_Site>  (215) 
nan

>  <Peripheral>  (215) 
nan

>  <Num_H_Atoms_ProtBoundConf>  (215) 
nan

>  <Num_Resolved_Atoms>  (215) 
nan

>  <Num_Not_Resolved_Atoms>  (215) 
nan

$$$$
CHEMBL1161012
     RDKit          3D

  0  0  0  0  0  0  0  0  0  0999 V3000
M  V30 BEGIN CTAB
M  V30 COUNTS 19 19 0 0 0
M  V30 BEGIN ATOM
M  V30 1 C -1.777764 0.790421 1.873353 0
M  V30 2 C -0.408007 0.295882 1.562659 0
M  V30 3 C 0.294944 -0.248364 2.619299 0
M  V30 4 C 1.576552 -0.729706 2.406468 0
M  V30 5 C 2.140336 -0.661863 1.142144 0
M  V30 6 O 3.431547 -1.133569 0.872204 0
M  V30 7 C 1.412573 -0.112101 0.105541 0
M  V30 8 C 1.913247 0.005309 -1.256598 0
M  V30 9 O 1.297316 0.497771 -2.247819 0
M  V30 10 O 3.110637 -0.355514 -1.827533 0
M  V30 11 C 0.133103 0.379177 0.273063 0
M  V30 12 H -2.251797 0.067386 2.581685 0
M  V30 13 H -2.337757 0.893419 0.938650 0
M  V30 14 H -1.717195 1.823840 2.302381 0
M  V30 15 H -0.147084 -0.303187 3.617396 0
M  V30 16 H 2.149521 -1.159565 3.210238 0
M  V30 17 H 4.238069 -0.506678 1.001049 0
M  V30 18 H 3.206844 -1.068169 -2.525133 0
M  V30 19 H -0.466587 0.817139 -0.518119 0
M  V30 END ATOM
M  V30 BEGIN BOND
M  V30 1 1 1 2
M  V30 2 2 2 3
M  V30 3 1 3 4
M  V30 4 2 4 5
M  V30 5 1 5 6
M  V30 6 1 5 7
M  V30 7 1 7 8
M  V30 8 2 8 9
M  V30 9 1 8 10
M  V30 10 2 7 11
M  V30 11 1 11 2
M  V30 12 1 1 12
M  V30 13 1 1 13
M  V30 14 1 1 14
M  V30 15 1 3 15
M  V30 16 1 4 16
M  V30 17 1 6 17
M  V30 18 1 10 18
M  V30 19 1 11 19
M  V30 END BOND
M  V30 END CTAB
M  END
>  <Dataset>  (216) 
ChEMBL_Kinases

>  <Ligand_Instance>  (216) 
nan

>  <PDB_ID>  (216) 
nan

>  <Standardized_SMILES>  (216) 
Cc1ccc(O)c(C(=O)O)c1

>  <Name>  (216) 
nan

>  <Pocket>  (216) 
nan

>  <ATP_Site>  (216) 
nan

>  <Peripheral>  (216) 
nan

>  <Num_H_Atoms_ProtBoundConf>  (216) 
nan

>  <Num_Resolved_Atoms>  (216) 
nan

>  <Num_Not_Resolved_Atoms>  (216) 
nan

$$$$
CHEMBL116029
     RDKit          3D

  0  0  0  0  0  0  0  0  0  0999 V3000
M  V30 BEGIN CTAB
M  V30 COUNTS 75 75 0 0 0
M  V30 BEGIN ATOM
M  V30 1 C 2.307308 1.772855 3.970076 0
M  V30 2 C 3.558678 1.304947 4.631110 0
M  V30 3 C 4.802642 1.589389 3.891208 0
M  V30 4 C 5.043966 1.036011 2.553641 0
M  V30 5 C 5.151559 -0.409517 2.334241 0
M  V30 6 C 4.060689 -1.343732 2.573161 0
M  V30 7 C 2.773562 -1.238557 1.868265 0
M  V30 8 C 2.759366 -1.338305 0.374695 0
M  V30 9 C 3.483537 -0.250670 -0.251962 0
M  V30 10 C 2.763159 0.527089 -1.078923 0
M  V30 11 C 1.370184 0.620221 -1.577242 0
M  V30 12 C 0.714797 1.947590 -1.257399 0
M  V30 13 C 0.601771 2.248751 0.197984 0
M  V30 14 C -0.229309 1.247415 0.955659 0
M  V30 15 C -1.653658 1.186908 0.423982 0
M  V30 16 C -2.374125 0.155011 1.259021 0
M  V30 17 C -3.810694 0.087853 0.746823 0
M  V30 18 C -3.909856 -0.297495 -0.663190 0
M  V30 19 C -4.473175 -1.347270 -1.249708 0
M  V30 20 C -4.585804 -1.756454 -2.673994 0
M  V30 21 C -4.971928 -3.207684 -2.553724 0 CFG=1
M  V30 22 C -6.001453 -3.513529 -3.609048 0
M  V30 23 O -5.421630 -3.259805 -4.854223 0
M  V30 24 C -3.796025 -4.130028 -2.780566 0
M  V30 25 O -2.745110 -3.907140 -1.877521 0
M  V30 26 C -1.594343 -4.670555 -1.955111 0
M  V30 27 C -0.467338 -4.443613 -0.998980 0
M  V30 28 O -1.571669 -5.539331 -2.860704 0
M  V30 29 O -5.449160 -3.427604 -1.248097 0
M  V30 30 C -5.130861 -2.356111 -0.421143 0
M  V30 31 O -5.404396 -2.357376 0.804963 0
M  V30 32 H 1.490962 1.020751 3.989008 0
M  V30 33 H 1.917563 2.659817 4.500703 0
M  V30 34 H 2.556734 2.131706 2.947137 0
M  V30 35 H 3.639500 1.910898 5.603493 0
M  V30 36 H 3.419986 0.279712 4.985912 0
M  V30 37 H 5.653705 1.280634 4.583282 0
M  V30 38 H 4.932677 2.711149 3.856690 0
M  V30 39 H 6.040716 1.481898 2.206151 0
M  V30 40 H 4.320103 1.544413 1.854013 0
M  V30 41 H 5.968562 -0.737375 3.121471 0
M  V30 42 H 5.760509 -0.641333 1.397701 0
M  V30 43 H 3.936871 -1.527377 3.684331 0
M  V30 44 H 4.477855 -2.378208 2.261023 0
M  V30 45 H 2.205579 -0.294230 2.098450 0
M  V30 46 H 2.123126 -2.088828 2.273200 0
M  V30 47 H 3.183369 -2.346740 0.044311 0
M  V30 48 H 1.691067 -1.408894 0.096724 0
M  V30 49 H 4.475412 0.157238 -0.273186 0
M  V30 50 H 3.199964 1.403711 -1.614113 0
M  V30 51 H 1.385946 0.494613 -2.676179 0
M  V30 52 H 0.735802 -0.225182 -1.228665 0
M  V30 53 H 1.316678 2.798964 -1.695735 0
M  V30 54 H -0.267566 2.043675 -1.776250 0
M  V30 55 H 0.127146 3.237168 0.358864 0
M  V30 56 H 1.580900 2.297637 0.679537 0
M  V30 57 H -0.305233 1.552965 2.019089 0
M  V30 58 H 0.183648 0.220976 0.946546 0
M  V30 59 H -2.093410 2.188987 0.565133 0
M  V30 60 H -1.672966 0.826791 -0.624494 0
M  V30 61 H -1.866822 -0.824912 1.142826 0
M  V30 62 H -2.336991 0.488703 2.306332 0
M  V30 63 H -4.135332 1.182247 0.772332 0
M  V30 64 H -4.477459 -0.399531 1.447526 0
M  V30 65 H -3.456882 0.373638 -1.410826 0
M  V30 66 H -3.625434 -1.695262 -3.202098 0
M  V30 67 H -5.375668 -1.128306 -3.127658 0
M  V30 68 H -6.299743 -4.586095 -3.611482 0
M  V30 69 H -6.885505 -2.841317 -3.521981 0
M  V30 70 H -6.016237 -2.748499 -5.462330 0
M  V30 71 H -4.180359 -5.160306 -2.582501 0
M  V30 72 H -3.445824 -4.025388 -3.817924 0
M  V30 73 H -0.844972 -4.257488 0.020331 0
M  V30 74 H 0.175013 -3.594885 -1.327129 0
M  V30 75 H 0.142443 -5.388512 -0.982010 0
M  V30 END ATOM
M  V30 BEGIN BOND
M  V30 1 1 1 2
M  V30 2 1 2 3
M  V30 3 1 3 4
M  V30 4 1 4 5
M  V30 5 1 5 6
M  V30 6 1 6 7
M  V30 7 1 7 8
M  V30 8 1 8 9
M  V30 9 2 9 10
M  V30 10 1 10 11
M  V30 11 1 11 12
M  V30 12 1 12 13
M  V30 13 1 13 14
M  V30 14 1 14 15
M  V30 15 1 15 16
M  V30 16 1 16 17
M  V30 17 1 17 18
M  V30 18 2 18 19
M  V30 19 1 19 20
M  V30 20 1 20 21
M  V30 21 1 21 22 CFG=3
M  V30 22 1 22 23
M  V30 23 1 21 24
M  V30 24 1 24 25
M  V30 25 1 25 26
M  V30 26 1 26 27
M  V30 27 2 26 28
M  V30 28 1 21 29
M  V30 29 1 29 30
M  V30 30 2 30 31
M  V30 31 1 30 19
M  V30 32 1 1 32
M  V30 33 1 1 33
M  V30 34 1 1 34
M  V30 35 1 2 35
M  V30 36 1 2 36
M  V30 37 1 3 37
M  V30 38 1 3 38
M  V30 39 1 4 39
M  V30 40 1 4 40
M  V30 41 1 5 41
M  V30 42 1 5 42
M  V30 43 1 6 43
M  V30 44 1 6 44
M  V30 45 1 7 45
M  V30 46 1 7 46
M  V30 47 1 8 47
M  V30 48 1 8 48
M  V30 49 1 9 49
M  V30 50 1 10 50
M  V30 51 1 11 51
M  V30 52 1 11 52
M  V30 53 1 12 53
M  V30 54 1 12 54
M  V30 55 1 13 55
M  V30 56 1 13 56
M  V30 57 1 14 57
M  V30 58 1 14 58
M  V30 59 1 15 59
M  V30 60 1 15 60
M  V30 61 1 16 61
M  V30 62 1 16 62
M  V30 63 1 17 63
M  V30 64 1 17 64
M  V30 65 1 18 65
M  V30 66 1 20 66
M  V30 67 1 20 67
M  V30 68 1 22 68
M  V30 69 1 22 69
M  V30 70 1 23 70
M  V30 71 1 24 71
M  V30 72 1 24 72
M  V30 73 1 27 73
M  V30 74 1 27 74
M  V30 75 1 27 75
M  V30 END BOND
M  V30 END CTAB
M  END
>  <Dataset>  (217) 
ChEMBL_Kinases

>  <Ligand_Instance>  (217) 
nan

>  <PDB_ID>  (217) 
nan

>  <Standardized_SMILES>  (217) 
CCCCCCCC/C=C\CCCCCCC/C=C1/C[C@@](CO)(COC(C)=O)OC1=O

>  <Name>  (217) 
nan

>  <Pocket>  (217) 
nan

>  <ATP_Site>  (217) 
nan

>  <Peripheral>  (217) 
nan

>  <Num_H_Atoms_ProtBoundConf>  (217) 
nan

>  <Num_Resolved_Atoms>  (217) 
nan

>  <Num_Not_Resolved_Atoms>  (217) 
nan

$$$$
CHEMBL115868
     RDKit          3D

  0  0  0  0  0  0  0  0  0  0999 V3000
M  V30 BEGIN CTAB
M  V30 COUNTS 66 66 0 0 0
M  V30 BEGIN ATOM
M  V30 1 C 2.442958 -2.983844 4.583041 0
M  V30 2 C 3.270698 -3.264469 3.344947 0
M  V30 3 C 4.021974 -1.983858 2.967503 0
M  V30 4 C 4.853843 -2.255055 1.728503 0
M  V30 5 C 5.611883 -1.006906 1.326407 0
M  V30 6 C 4.713573 0.155886 1.013081 0
M  V30 7 C 3.762092 -0.129970 -0.125247 0
M  V30 8 C 2.935268 1.119227 -0.318561 0
M  V30 9 C 1.927031 1.013061 -1.420903 0
M  V30 10 C 0.920228 -0.088366 -1.217100 0
M  V30 11 C -0.079425 -0.188360 -2.316904 0
M  V30 12 C -0.913451 1.056660 -2.524123 0
M  V30 13 C -1.909339 0.837976 -3.603626 0
M  V30 14 C -2.980187 -0.130327 -3.381795 0
M  V30 15 C -3.537109 -0.706070 -2.342506 0
M  V30 16 C -3.171434 -0.483259 -0.931384 0
M  V30 17 C -4.324933 -1.151620 -0.182472 0
M  V30 18 C -3.779814 -2.455661 0.414904 0
M  V30 19 O -4.801009 -3.161716 1.016570 0
M  V30 20 C -4.866211 -0.256433 0.895692 0
M  V30 21 O -3.935112 0.056660 1.869711 0
M  V30 22 C -4.483234 0.880297 2.834448 0
M  V30 23 C -3.474971 1.235894 3.914356 0
M  V30 24 O -5.320937 -1.439710 -1.140861 0
M  V30 25 C -4.634048 -1.676494 -2.353364 0
M  V30 26 O -4.853869 -2.517319 -3.288796 0
M  V30 27 H 1.730895 -3.831619 4.714729 0
M  V30 28 H 3.065818 -2.839958 5.486633 0
M  V30 29 H 1.846203 -2.058708 4.414118 0
M  V30 30 H 2.579132 -3.473074 2.525101 0
M  V30 31 H 3.950719 -4.109911 3.516656 0
M  V30 32 H 4.643675 -1.658800 3.814300 0
M  V30 33 H 3.261264 -1.221933 2.788016 0
M  V30 34 H 4.160630 -2.581225 0.926719 0
M  V30 35 H 5.577845 -3.053074 1.897290 0
M  V30 36 H 6.345463 -1.206628 0.544664 0
M  V30 37 H 6.201937 -0.704573 2.230607 0
M  V30 38 H 5.358029 1.023585 0.812571 0
M  V30 39 H 4.156472 0.410833 1.955262 0
M  V30 40 H 4.380669 -0.310887 -1.025959 0
M  V30 41 H 3.155190 -1.004911 0.111487 0
M  V30 42 H 2.446486 1.329413 0.659726 0
M  V30 43 H 3.634423 1.926746 -0.577724 0
M  V30 44 H 2.499268 0.831398 -2.362515 0
M  V30 45 H 1.481047 2.016439 -1.546289 0
M  V30 46 H 1.494612 -1.037314 -1.210760 0
M  V30 47 H 0.496157 0.036142 -0.220088 0
M  V30 48 H -0.697635 -1.069927 -2.218815 0
M  V30 49 H 0.525012 -0.388705 -3.268899 0
M  V30 50 H -0.166747 1.828919 -2.899798 0
M  V30 51 H -1.335156 1.487989 -1.623015 0
M  V30 52 H -1.362376 0.618227 -4.583248 0
M  V30 53 H -2.414318 1.823995 -3.859969 0
M  V30 54 H -3.406691 -0.429551 -4.361280 0
M  V30 55 H -3.278836 0.598658 -0.677214 0
M  V30 56 H -2.249121 -0.923389 -0.580575 0
M  V30 57 H -3.238785 -3.023539 -0.368396 0
M  V30 58 H -3.046307 -2.209222 1.209833 0
M  V30 59 H -4.775815 -4.133870 0.874805 0
M  V30 60 H -5.195269 0.704794 0.398335 0
M  V30 61 H -5.776185 -0.666532 1.367547 0
M  V30 62 H -5.352319 0.382548 3.319040 0
M  V30 63 H -4.759238 1.850089 2.357640 0
M  V30 64 H -3.848234 2.153536 4.411193 0
M  V30 65 H -2.477365 1.417403 3.506156 0
M  V30 66 H -3.448232 0.446110 4.697832 0
M  V30 END ATOM
M  V30 BEGIN BOND
M  V30 1 1 1 2
M  V30 2 1 2 3
M  V30 3 1 3 4
M  V30 4 1 4 5
M  V30 5 1 5 6
M  V30 6 1 6 7
M  V30 7 1 7 8
M  V30 8 1 8 9
M  V30 9 1 9 10
M  V30 10 1 10 11
M  V30 11 1 11 12
M  V30 12 1 12 13
M  V30 13 1 13 14
M  V30 14 2 14 15
M  V30 15 1 15 16
M  V30 16 1 16 17
M  V30 17 1 17 18
M  V30 18 1 18 19
M  V30 19 1 17 20
M  V30 20 1 20 21
M  V30 21 1 21 22
M  V30 22 1 22 23
M  V30 23 1 17 24
M  V30 24 1 24 25
M  V30 25 2 25 26
M  V30 26 1 25 15
M  V30 27 1 1 27
M  V30 28 1 1 28
M  V30 29 1 1 29
M  V30 30 1 2 30
M  V30 31 1 2 31
M  V30 32 1 3 32
M  V30 33 1 3 33
M  V30 34 1 4 34
M  V30 35 1 4 35
M  V30 36 1 5 36
M  V30 37 1 5 37
M  V30 38 1 6 38
M  V30 39 1 6 39
M  V30 40 1 7 40
M  V30 41 1 7 41
M  V30 42 1 8 42
M  V30 43 1 8 43
M  V30 44 1 9 44
M  V30 45 1 9 45
M  V30 46 1 10 46
M  V30 47 1 10 47
M  V30 48 1 11 48
M  V30 49 1 11 49
M  V30 50 1 12 50
M  V30 51 1 12 51
M  V30 52 1 13 52
M  V30 53 1 13 53
M  V30 54 1 14 54
M  V30 55 1 16 55
M  V30 56 1 16 56
M  V30 57 1 18 57
M  V30 58 1 18 58
M  V30 59 1 19 59
M  V30 60 1 20 60
M  V30 61 1 20 61
M  V30 62 1 22 62
M  V30 63 1 22 63
M  V30 64 1 23 64
M  V30 65 1 23 65
M  V30 66 1 23 66
M  V30 END BOND
M  V30 END CTAB
M  END
>  <Dataset>  (218) 
ChEMBL_Kinases

>  <Ligand_Instance>  (218) 
nan

>  <PDB_ID>  (218) 
nan

>  <Standardized_SMILES>  (218) 
CCCCCCCCCCCCC/C=C1\CC(CO)(COCC)OC1=O

>  <Name>  (218) 
nan

>  <Pocket>  (218) 
nan

>  <ATP_Site>  (218) 
nan

>  <Peripheral>  (218) 
nan

>  <Num_H_Atoms_ProtBoundConf>  (218) 
nan

>  <Num_Resolved_Atoms>  (218) 
nan

>  <Num_Not_Resolved_Atoms>  (218) 
nan

$$$$
CHEMBL115769
     RDKit          3D

  0  0  0  0  0  0  0  0  0  0999 V3000
M  V30 BEGIN CTAB
M  V30 COUNTS 40 43 0 0 0
M  V30 BEGIN ATOM
M  V30 1 C -0.478392 -4.411537 2.270815 0
M  V30 2 O -0.316427 -3.124027 1.731647 0
M  V30 3 C 0.955589 -2.589921 1.664275 0
M  V30 4 C 2.113275 -3.241363 2.097961 0
M  V30 5 C 3.336638 -2.613091 1.983360 0
M  V30 6 N 4.471954 -3.326726 2.441154 0
M  V30 7 N 3.567034 -1.387221 1.479883 0
M  V30 8 C 2.470874 -0.731866 1.052497 0
M  V30 9 N 2.295235 0.479276 0.503228 0
M  V30 10 C 0.974016 0.680735 0.244382 0
M  V30 11 C 0.562263 1.945050 -0.359478 0
M  V30 12 C -0.280494 2.691373 0.425208 0
M  V30 13 C -0.740843 3.909539 -0.033790 0
M  V30 14 C -0.332503 4.346381 -1.288350 0
M  V30 15 F -0.685616 5.514761 -1.897116 0
M  V30 16 C 0.518398 3.585435 -2.072410 0
M  V30 17 C 0.973301 2.369946 -1.606115 0
M  V30 18 C 0.232910 -0.422516 0.627885 0
M  V30 19 C -1.206221 -0.513825 0.481942 0
M  V30 20 C -1.983226 -0.685232 1.634269 0
M  V30 21 C -3.358474 -0.775403 1.530789 0
M  V30 22 N -3.956054 -0.699452 0.328794 0
M  V30 23 C -3.258038 -0.532979 -0.832011 0
M  V30 24 C -1.872232 -0.441736 -0.731803 0
M  V30 25 C 1.142366 -1.327653 1.139219 0
M  V30 26 H -0.338449 -4.448513 3.356758 0
M  V30 27 H -1.501833 -4.775525 1.963528 0
M  V30 28 H 0.263956 -5.121043 1.817365 0
M  V30 29 H 2.010953 -4.220142 2.510487 0
M  V30 30 H 4.965488 -4.227647 2.530009 0
M  V30 31 H 5.263305 -2.860749 2.939373 0
M  V30 32 H 4.526037 -0.990261 1.431302 0
M  V30 33 H -0.646316 2.420903 1.416585 0
M  V30 34 H -1.402772 4.613903 0.453599 0
M  V30 35 H 0.877537 3.850841 -3.046889 0
M  V30 36 H 1.635251 1.655760 -2.082462 0
M  V30 37 H -1.559822 -0.753504 2.632603 0
M  V30 38 H -4.014345 -0.908868 2.391179 0
M  V30 39 H -3.757891 -0.473559 -1.795755 0
M  V30 40 H -1.262952 -0.307989 -1.628089 0
M  V30 END ATOM
M  V30 BEGIN BOND
M  V30 1 1 1 2
M  V30 2 1 2 3
M  V30 3 1 3 4
M  V30 4 2 4 5
M  V30 5 1 5 6
M  V30 6 1 5 7
M  V30 7 1 7 8
M  V30 8 2 8 9
M  V30 9 1 9 10
M  V30 10 1 10 11
M  V30 11 2 11 12
M  V30 12 1 12 13
M  V30 13 2 13 14
M  V30 14 1 14 15
M  V30 15 1 14 16
M  V30 16 2 16 17
M  V30 17 2 10 18
M  V30 18 1 18 19
M  V30 19 2 19 20
M  V30 20 1 20 21
M  V30 21 2 21 22
M  V30 22 1 22 23
M  V30 23 2 23 24
M  V30 24 1 18 25
M  V30 25 2 25 3
M  V30 26 1 25 8
M  V30 27 1 17 11
M  V30 28 1 24 19
M  V30 29 1 1 26
M  V30 30 1 1 27
M  V30 31 1 1 28
M  V30 32 1 4 29
M  V30 33 1 6 30
M  V30 34 1 6 31
M  V30 35 1 7 32
M  V30 36 1 12 33
M  V30 37 1 13 34
M  V30 38 1 16 35
M  V30 39 1 17 36
M  V30 40 1 20 37
M  V30 41 1 21 38
M  V30 42 1 23 39
M  V30 43 1 24 40
M  V30 END BOND
M  V30 END CTAB
M  END
>  <Dataset>  (219) 
ChEMBL_Kinases

>  <Ligand_Instance>  (219) 
nan

>  <PDB_ID>  (219) 
nan

>  <Standardized_SMILES>  (219) 
COc1cc(N)[nH]c2nc(-c3ccc(F)cc3)c(-c3ccncc3)c1-2

>  <Name>  (219) 
nan

>  <Pocket>  (219) 
nan

>  <ATP_Site>  (219) 
nan

>  <Peripheral>  (219) 
nan

>  <Num_H_Atoms_ProtBoundConf>  (219) 
nan

>  <Num_Resolved_Atoms>  (219) 
nan

>  <Num_Not_Resolved_Atoms>  (219) 
nan

$$$$
CHEMBL115509
     RDKit          3D

  0  0  0  0  0  0  0  0  0  0999 V3000
M  V30 BEGIN CTAB
M  V30 COUNTS 38 41 0 0 0
M  V30 BEGIN ATOM
M  V30 1 C 0.996112 -4.961827 0.636919 0
M  V30 2 O 2.216550 -4.349594 1.021225 0
M  V30 3 C 2.270492 -2.976847 1.216738 0
M  V30 4 N 3.414776 -2.354490 1.583843 0
M  V30 5 C 3.503935 -1.027280 1.782101 0
M  V30 6 C 2.356518 -0.249635 1.600148 0
M  V30 7 C 1.178190 -0.884005 1.222921 0
M  V30 8 C -0.097273 -0.223168 0.995564 0
M  V30 9 C -0.277004 0.735980 0.015625 0
M  V30 10 C 0.688212 1.268666 -0.938595 0
M  V30 11 C 1.362448 0.583511 -1.936038 0
M  V30 12 C 2.247187 1.228372 -2.761266 0
M  V30 13 C 2.419638 2.577641 -2.538797 0
M  V30 14 C 1.786437 3.315621 -1.572346 0
M  V30 15 C 0.898512 2.631097 -0.755880 0
M  V30 16 N -1.571855 1.088808 0.130528 0
M  V30 17 C -2.169304 0.397024 1.118742 0
M  V30 18 N -3.415046 0.358719 1.642437 0
M  V30 19 C -3.725744 -0.459442 2.657825 0
M  V30 20 N -5.068783 -0.433358 3.148580 0
M  V30 21 C -2.802068 -1.312960 3.234514 0
M  V30 22 C -1.536330 -1.273782 2.702084 0
M  V30 23 N -1.259637 -0.429128 1.670790 0
M  V30 24 N 1.160610 -2.220083 1.041195 0
M  V30 25 H 0.706203 -5.704308 1.430864 0
M  V30 26 H 0.162050 -4.221758 0.583418 0
M  V30 27 H 1.171931 -5.471967 -0.336851 0
M  V30 28 H 4.407609 -0.515132 2.074552 0
M  V30 29 H 2.303812 0.832275 1.730429 0
M  V30 30 H 1.120417 -0.480339 -1.988274 0
M  V30 31 H 2.753285 0.668992 -3.524140 0
M  V30 32 H 3.117835 3.109111 -3.183430 0
M  V30 33 H 1.962344 4.374347 -1.444982 0
M  V30 34 H 0.413024 3.250011 0.001207 0
M  V30 35 H -5.404607 -0.584042 4.135979 0
M  V30 36 H -5.885500 -0.247882 2.512599 0
M  V30 37 H -3.135332 -1.931350 4.039634 0
M  V30 38 H -0.794927 -1.928930 3.132317 0
M  V30 END ATOM
M  V30 BEGIN BOND
M  V30 1 1 1 2
M  V30 2 1 2 3
M  V30 3 2 3 4
M  V30 4 1 4 5
M  V30 5 2 5 6
M  V30 6 1 6 7
M  V30 7 1 7 8
M  V30 8 2 8 9
M  V30 9 1 9 10
M  V30 10 2 10 11
M  V30 11 1 11 12
M  V30 12 2 12 13
M  V30 13 1 13 14
M  V30 14 2 14 15
M  V30 15 1 9 16
M  V30 16 2 16 17
M  V30 17 1 17 18
M  V30 18 2 18 19
M  V30 19 1 19 20
M  V30 20 1 19 21
M  V30 21 2 21 22
M  V30 22 1 22 23
M  V30 23 2 7 24
M  V30 24 1 24 3
M  V30 25 1 23 8
M  V30 26 1 15 10
M  V30 27 1 23 17
M  V30 28 1 1 25
M  V30 29 1 1 26
M  V30 30 1 1 27
M  V30 31 1 5 28
M  V30 32 1 6 29
M  V30 33 1 11 30
M  V30 34 1 12 31
M  V30 35 1 13 32
M  V30 36 1 14 33
M  V30 37 1 15 34
M  V30 38 1 20 35
M  V30 39 1 20 36
M  V30 40 1 21 37
M  V30 41 1 22 38
M  V30 END BOND
M  V30 END CTAB
M  END
>  <Dataset>  (220) 
ChEMBL_Kinases

>  <Ligand_Instance>  (220) 
nan

>  <PDB_ID>  (220) 
nan

>  <Standardized_SMILES>  (220) 
COc1nccc(-c2c(-c3ccccc3)nc3nc(N)ccn23)n1

>  <Name>  (220) 
nan

>  <Pocket>  (220) 
nan

>  <ATP_Site>  (220) 
nan

>  <Peripheral>  (220) 
nan

>  <Num_H_Atoms_ProtBoundConf>  (220) 
nan

>  <Num_Resolved_Atoms>  (220) 
nan

>  <Num_Not_Resolved_Atoms>  (220) 
nan

$$$$
CHEMBL115491
     RDKit          3D

  0  0  0  0  0  0  0  0  0  0999 V3000
M  V30 BEGIN CTAB
M  V30 COUNTS 40 43 0 0 0
M  V30 BEGIN ATOM
M  V30 1 C 2.382967 -2.181040 1.595147 0
M  V30 2 C 3.806821 -1.902239 1.860967 0
M  V30 3 C 4.636310 -2.685714 2.632805 0
M  V30 4 C 5.951651 -2.341923 2.821994 0
M  V30 5 Cl 6.947182 -3.384103 3.814794 0
M  V30 6 C 6.405103 -1.199436 2.219230 0
M  V30 7 C 5.570676 -0.395531 1.432513 0
M  V30 8 C 4.224576 -0.748359 1.239554 0
M  V30 9 S 3.438808 0.435904 0.220723 0
M  V30 10 C 1.760567 0.216876 -0.165625 0
M  V30 11 C 0.759694 0.757158 0.650662 0
M  V30 12 C -0.605928 0.676675 0.470405 0
M  V30 13 C -1.020496 -0.017913 -0.644901 0
M  V30 14 C -2.371680 -0.140655 -0.891478 0
M  V30 15 C -3.336439 0.472779 0.041980 0
M  V30 16 C -3.745698 -0.347461 1.085019 0
M  V30 17 Cl -3.138960 -1.996064 1.254220 0
M  V30 18 C -4.654293 0.104116 2.039689 0
M  V30 19 C -5.134700 1.409598 1.905636 0
M  V30 20 C -4.722714 2.208288 0.871825 0
M  V30 21 C -3.814834 1.747192 -0.076179 0
M  V30 22 Cl -3.243432 2.714064 -1.425664 0
M  V30 23 C -2.743437 -0.852437 -2.032333 0
M  V30 24 O -3.984742 -0.940348 -2.219527 0
M  V30 25 N -1.798735 -1.377085 -2.826050 0
M  V30 26 C -0.493062 -1.227977 -2.539510 0
M  V30 27 N -0.069584 -0.542326 -1.438008 0
M  V30 28 N 1.233130 -0.447607 -1.237656 0
M  V30 29 H 1.745948 -1.478819 2.152004 0
M  V30 30 H 2.169908 -3.180177 2.084110 0
M  V30 31 H 2.147494 -2.342699 0.547646 0
M  V30 32 H 4.160101 -3.567424 3.058298 0
M  V30 33 H 7.458393 -0.986427 2.411366 0
M  V30 34 H 6.130640 0.468853 1.044656 0
M  V30 35 H 1.107175 1.309449 1.538171 0
M  V30 36 H -1.260465 1.145385 1.186831 0
M  V30 37 H -4.966321 -0.544450 2.848820 0
M  V30 38 H -5.841899 1.776158 2.639666 0
M  V30 39 H -5.094019 3.220234 0.766453 0
M  V30 40 H 0.207772 -1.682961 -3.232427 0
M  V30 END ATOM
M  V30 BEGIN BOND
M  V30 1 1 1 2
M  V30 2 2 2 3
M  V30 3 1 3 4
M  V30 4 1 4 5
M  V30 5 2 4 6
M  V30 6 1 6 7
M  V30 7 2 7 8
M  V30 8 1 8 9
M  V30 9 1 9 10
M  V30 10 1 10 11
M  V30 11 2 11 12
M  V30 12 1 12 13
M  V30 13 2 13 14
M  V30 14 1 14 15
M  V30 15 2 15 16
M  V30 16 1 16 17
M  V30 17 1 16 18
M  V30 18 2 18 19
M  V30 19 1 19 20
M  V30 20 2 20 21
M  V30 21 1 21 22
M  V30 22 1 14 23
M  V30 23 2 23 24
M  V30 24 1 23 25
M  V30 25 2 25 26
M  V30 26 1 26 27
M  V30 27 1 27 28
M  V30 28 1 8 2
M  V30 29 2 28 10
M  V30 30 1 27 13
M  V30 31 1 21 15
M  V30 32 1 1 29
M  V30 33 1 1 30
M  V30 34 1 1 31
M  V30 35 1 3 32
M  V30 36 1 6 33
M  V30 37 1 7 34
M  V30 38 1 11 35
M  V30 39 1 12 36
M  V30 40 1 18 37
M  V30 41 1 19 38
M  V30 42 1 20 39
M  V30 43 1 26 40
M  V30 END BOND
M  V30 END CTAB
M  END
>  <Dataset>  (221) 
ChEMBL_Kinases

>  <Ligand_Instance>  (221) 
nan

>  <PDB_ID>  (221) 
nan

>  <Standardized_SMILES>  (221) 
Cc1cc(Cl)ccc1Sc1ccc2c(-c3c(Cl)cccc3Cl)c(=O)ncn2n1

>  <Name>  (221) 
nan

>  <Pocket>  (221) 
nan

>  <ATP_Site>  (221) 
nan

>  <Peripheral>  (221) 
nan

>  <Num_H_Atoms_ProtBoundConf>  (221) 
nan

>  <Num_Resolved_Atoms>  (221) 
nan

>  <Num_Not_Resolved_Atoms>  (221) 
nan

$$$$
CHEMBL1108
     RDKit          3D

  0  0  0  0  0  0  0  0  0  0999 V3000
M  V30 BEGIN CTAB
M  V30 COUNTS 50 53 0 0 0
M  V30 BEGIN ATOM
M  V30 1 O 0.172631 -4.793085 -0.769334 0
M  V30 2 C -0.902553 -4.561146 -0.162200 0
M  V30 3 C -1.226622 -3.163563 0.130044 0
M  V30 4 C -1.195124 -2.354498 -1.160797 0
M  V30 5 C -1.537481 -0.906761 -0.881469 0
M  V30 6 N -0.600042 -0.314174 0.037982 0
M  V30 7 C 0.725892 -0.165599 -0.538719 0
M  V30 8 C 1.472242 0.930165 0.187708 0
M  V30 9 C 0.970075 2.126425 0.400514 0
M  V30 10 N 1.522973 3.246509 1.048730 0
M  V30 11 C 0.767384 4.343308 1.217104 0
M  V30 12 O -0.398629 4.782626 0.985771 0
M  V30 13 N 1.462444 5.308009 1.836434 0
M  V30 14 C 2.720704 4.865182 2.098383 0
M  V30 15 C 3.866797 5.370688 2.688268 0
M  V30 16 C 4.997975 4.595703 2.769705 0
M  V30 17 C 5.009325 3.307054 2.266428 0
M  V30 18 C 3.843037 2.865432 1.694869 0
M  V30 19 C 2.700852 3.581998 1.587832 0
M  V30 20 C -0.376728 2.091095 -0.217795 0
M  V30 21 C -1.133597 0.950158 0.479417 0
M  V30 22 C -1.732571 -5.712865 0.192484 0
M  V30 23 C -2.954653 -5.580651 0.854461 0
M  V30 24 C -3.766715 -6.664160 1.194673 0
M  V30 25 C -3.356849 -7.942946 0.867882 0
M  V30 26 F -4.210868 -8.926410 1.237731 0
M  V30 27 C -2.133609 -8.096521 0.203772 0
M  V30 28 C -1.367247 -6.999975 -0.111333 0
M  V30 29 H -2.156395 -3.079057 0.677910 0
M  V30 30 H -0.429032 -2.710541 0.784921 0
M  V30 31 H -1.959636 -2.826862 -1.812179 0
M  V30 32 H -0.187909 -2.403616 -1.563857 0
M  V30 33 H -2.571710 -0.916224 -0.473770 0
M  V30 34 H -1.575112 -0.324357 -1.799471 0
M  V30 35 H 0.723063 -0.000454 -1.629380 0
M  V30 36 H 1.261148 -1.115040 -0.345135 0
M  V30 37 H 2.444344 0.689547 0.543903 0
M  V30 38 H 1.271178 6.301717 2.158719 0
M  V30 39 H 3.837924 6.389135 3.078410 0
M  V30 40 H 5.858073 5.044841 3.240226 0
M  V30 41 H 5.913831 2.742566 2.350275 0
M  V30 42 H 3.927428 1.872867 1.323942 0
M  V30 43 H -0.278693 1.766200 -1.295827 0
M  V30 44 H -0.952829 3.014433 -0.140700 0
M  V30 45 H -0.998200 1.101410 1.561265 0
M  V30 46 H -2.215768 1.031371 0.169666 0
M  V30 47 H -3.341236 -4.609524 1.142617 0
M  V30 48 H -4.711364 -6.488515 1.709696 0
M  V30 49 H -1.865226 -9.118424 -0.025158 0
M  V30 50 H -0.431402 -7.184907 -0.625353 0
M  V30 END ATOM
M  V30 BEGIN BOND
M  V30 1 2 1 2
M  V30 2 1 2 3
M  V30 3 1 3 4
M  V30 4 1 4 5
M  V30 5 1 5 6
M  V30 6 1 6 7
M  V30 7 1 7 8
M  V30 8 2 8 9
M  V30 9 1 9 10
M  V30 10 1 10 11
M  V30 11 2 11 12
M  V30 12 1 11 13
M  V30 13 1 13 14
M  V30 14 2 14 15
M  V30 15 1 15 16
M  V30 16 2 16 17
M  V30 17 1 17 18
M  V30 18 2 18 19
M  V30 19 1 9 20
M  V30 20 1 20 21
M  V30 21 1 2 22
M  V30 22 2 22 23
M  V30 23 1 23 24
M  V30 24 2 24 25
M  V30 25 1 25 26
M  V30 26 1 25 27
M  V30 27 2 27 28
M  V30 28 1 21 6
M  V30 29 1 28 22
M  V30 30 1 19 10
M  V30 31 1 19 14
M  V30 32 1 3 29
M  V30 33 1 3 30
M  V30 34 1 4 31
M  V30 35 1 4 32
M  V30 36 1 5 33
M  V30 37 1 5 34
M  V30 38 1 7 35
M  V30 39 1 7 36
M  V30 40 1 8 37
M  V30 41 1 13 38
M  V30 42 1 15 39
M  V30 43 1 16 40
M  V30 44 1 17 41
M  V30 45 1 18 42
M  V30 46 1 20 43
M  V30 47 1 20 44
M  V30 48 1 21 45
M  V30 49 1 21 46
M  V30 50 1 23 47
M  V30 51 1 24 48
M  V30 52 1 27 49
M  V30 53 1 28 50
M  V30 END BOND
M  V30 END CTAB
M  END
>  <Dataset>  (222) 
ChEMBL_Kinases

>  <Ligand_Instance>  (222) 
nan

>  <PDB_ID>  (222) 
nan

>  <Standardized_SMILES>  (222) 
O=C(CCCN1CC=C(n2c(=O)[nH]c3ccccc32)CC1)c1ccc(F)cc1

>  <Name>  (222) 
DROPERIDOL

>  <Pocket>  (222) 
nan

>  <ATP_Site>  (222) 
nan

>  <Peripheral>  (222) 
nan

>  <Num_H_Atoms_ProtBoundConf>  (222) 
nan

>  <Num_Resolved_Atoms>  (222) 
nan

>  <Num_Not_Resolved_Atoms>  (222) 
nan

$$$$
CHEMBL111038
     RDKit          3D

  0  0  0  0  0  0  0  0  0  0999 V3000
M  V30 BEGIN CTAB
M  V30 COUNTS 38 40 0 0 0
M  V30 BEGIN ATOM
M  V30 1 C 1.341816 -5.879581 1.266011 0
M  V30 2 O 0.817119 -4.697105 1.878332 0
M  V30 3 C 0.985336 -3.448870 1.310727 0
M  V30 4 C 1.669184 -3.235215 0.112385 0
M  V30 5 C 1.799160 -1.949334 -0.399575 0
M  V30 6 N 2.453358 -1.715164 -1.552592 0
M  V30 7 C 2.565554 -0.443058 -2.031381 0
M  V30 8 C 2.020528 0.632345 -1.360595 0
M  V30 9 C 2.131025 1.988761 -1.855753 0
M  V30 10 N 2.220361 3.074673 -2.245162 0
M  V30 11 C 1.338644 0.447929 -0.172411 0
M  V30 12 N 0.755493 1.485311 0.571086 0
M  V30 13 C -0.532244 2.038580 0.516195 0
M  V30 14 C -0.854454 3.056177 1.361683 0
M  V30 15 C -2.092127 3.632873 1.352906 0
M  V30 16 C -3.015389 3.134393 0.438741 0
M  V30 17 C -2.701993 2.107806 -0.419610 0
M  V30 18 Br -4.010990 1.458785 -1.659254 0
M  V30 19 C -1.439656 1.549927 -0.381023 0
M  V30 20 C 1.262525 -0.863096 0.254632 0
M  V30 21 C 0.592934 -1.120779 1.439051 0
M  V30 22 C 0.432165 -2.383980 1.997610 0
M  V30 23 O -0.245225 -2.574138 3.179750 0
M  V30 24 C -0.799866 -1.465922 3.859259 0
M  V30 25 H 1.364060 -6.709754 1.976608 0
M  V30 26 H 0.678504 -6.095664 0.399565 0
M  V30 27 H 2.367268 -5.724841 0.868822 0
M  V30 28 H 2.092496 -4.086486 -0.404974 0
M  V30 29 H 3.100968 -0.286244 -2.967028 0
M  V30 30 H 1.491850 1.824705 1.242880 0
M  V30 31 H -0.118377 3.434511 2.071779 0
M  V30 32 H -2.417789 4.441053 1.992120 0
M  V30 33 H -4.018693 3.557603 0.388444 0
M  V30 34 H -1.154854 0.736750 -1.044015 0
M  V30 35 H 0.156461 -0.283293 1.981588 0
M  V30 36 H -1.152863 -1.718447 4.868969 0
M  V30 37 H -1.630890 -1.035173 3.273940 0
M  V30 38 H 0.023322 -0.707172 3.972466 0
M  V30 END ATOM
M  V30 BEGIN BOND
M  V30 1 1 1 2
M  V30 2 1 2 3
M  V30 3 2 3 4
M  V30 4 1 4 5
M  V30 5 2 5 6
M  V30 6 1 6 7
M  V30 7 2 7 8
M  V30 8 1 8 9
M  V30 9 3 9 10
M  V30 10 1 8 11
M  V30 11 1 11 12
M  V30 12 1 12 13
M  V30 13 2 13 14
M  V30 14 1 14 15
M  V30 15 2 15 16
M  V30 16 1 16 17
M  V30 17 1 17 18
M  V30 18 2 17 19
M  V30 19 2 11 20
M  V30 20 1 20 21
M  V30 21 2 21 22
M  V30 22 1 22 23
M  V30 23 1 23 24
M  V30 24 1 22 3
M  V30 25 1 20 5
M  V30 26 1 19 13
M  V30 27 1 1 25
M  V30 28 1 1 26
M  V30 29 1 1 27
M  V30 30 1 4 28
M  V30 31 1 7 29
M  V30 32 1 12 30
M  V30 33 1 14 31
M  V30 34 1 15 32
M  V30 35 1 16 33
M  V30 36 1 19 34
M  V30 37 1 21 35
M  V30 38 1 24 36
M  V30 39 1 24 37
M  V30 40 1 24 38
M  V30 END BOND
M  V30 END CTAB
M  END
>  <Dataset>  (223) 
ChEMBL_Kinases

>  <Ligand_Instance>  (223) 
nan

>  <PDB_ID>  (223) 
nan

>  <Standardized_SMILES>  (223) 
COc1cc2ncc(C#N)c(Nc3cccc(Br)c3)c2cc1OC

>  <Name>  (223) 
nan

>  <Pocket>  (223) 
nan

>  <ATP_Site>  (223) 
nan

>  <Peripheral>  (223) 
nan

>  <Num_H_Atoms_ProtBoundConf>  (223) 
nan

>  <Num_Resolved_Atoms>  (223) 
nan

>  <Num_Not_Resolved_Atoms>  (223) 
nan

$$$$
CHEMBL111298
     RDKit          3D

  0  0  0  0  0  0  0  0  0  0999 V3000
M  V30 BEGIN CTAB
M  V30 COUNTS 47 50 0 0 0
M  V30 BEGIN ATOM
M  V30 1 C -0.764995 -1.464926 3.178531 0
M  V30 2 O -0.059304 -1.812145 2.026936 0
M  V30 3 C 1.304452 -1.893191 1.875813 0
M  V30 4 C 2.208635 -1.629242 2.889487 0
M  V30 5 C 3.575895 -1.703652 2.768163 0
M  V30 6 C 4.107906 -2.065825 1.557713 0
M  V30 7 C 3.237680 -2.343524 0.499250 0
M  V30 8 C 1.868148 -2.257534 0.658129 0
M  V30 9 C 1.053887 -2.543940 -0.522584 0
M  V30 10 C 0.030422 -1.887752 -1.041928 0
M  V30 11 C -0.632203 -0.660488 -0.623173 0
M  V30 12 C 0.162190 0.433328 -0.259900 0
M  V30 13 N -0.630070 1.488623 0.100623 0
M  V30 14 C -0.128977 2.776119 0.520955 0
M  V30 15 C 0.084056 2.920991 1.989077 0
M  V30 16 C 1.071954 1.926710 2.561972 0
M  V30 17 O 1.247619 2.095299 3.934049 0
M  V30 18 C -1.894901 1.072086 -0.030628 0
M  V30 19 N -3.074948 1.684556 0.188185 0
M  V30 20 C -4.208496 0.986133 -0.034828 0
M  V30 21 C -4.272336 -0.327183 -0.476101 0
M  V30 22 C -3.056490 -0.981650 -0.709373 0
M  V30 23 C -1.929608 -0.238138 -0.471501 0
M  V30 24 C -0.447707 -2.562234 -2.227643 0
M  V30 25 O -1.334635 -2.435019 -3.103835 0
M  V30 26 N 0.380685 -3.715380 -2.404163 0
M  V30 27 C 1.333033 -3.736734 -1.354395 0
M  V30 28 O 2.257294 -4.595354 -1.138972 0
M  V30 29 H -1.028577 -2.428754 3.692002 0
M  V30 30 H -0.121076 -0.863451 3.839001 0
M  V30 31 H -1.696792 -0.895398 2.980705 0
M  V30 32 H 1.851676 -1.337837 3.870973 0
M  V30 33 H 4.239974 -1.485754 3.593961 0
M  V30 34 H 5.180675 -2.131005 1.429831 0
M  V30 35 H 3.657263 -2.626792 -0.448561 0
M  V30 36 H 1.262927 0.504405 -0.242919 0
M  V30 37 H 0.750649 3.083060 -0.075897 0
M  V30 38 H -0.932675 3.508080 0.243952 0
M  V30 39 H 0.561038 3.935146 2.132159 0
M  V30 40 H -0.846768 2.853420 2.546707 0
M  V30 41 H 0.734670 0.880818 2.405068 0
M  V30 42 H 2.072194 2.008571 2.093177 0
M  V30 43 H 0.419791 2.396091 4.378737 0
M  V30 44 H -5.175720 1.454138 0.133786 0
M  V30 45 H -5.203782 -0.838912 -0.637949 0
M  V30 46 H -3.037086 -1.990205 -1.043437 0
M  V30 47 H 0.412520 -4.499829 -3.119559 0
M  V30 END ATOM
M  V30 BEGIN BOND
M  V30 1 1 1 2
M  V30 2 1 2 3
M  V30 3 2 3 4
M  V30 4 1 4 5
M  V30 5 2 5 6
M  V30 6 1 6 7
M  V30 7 2 7 8
M  V30 8 1 8 9
M  V30 9 2 9 10
M  V30 10 1 10 11
M  V30 11 2 11 12
M  V30 12 1 12 13
M  V30 13 1 13 14
M  V30 14 1 14 15
M  V30 15 1 15 16
M  V30 16 1 16 17
M  V30 17 1 13 18
M  V30 18 2 18 19
M  V30 19 1 19 20
M  V30 20 2 20 21
M  V30 21 1 21 22
M  V30 22 2 22 23
M  V30 23 1 10 24
M  V30 24 2 24 25
M  V30 25 1 24 26
M  V30 26 1 26 27
M  V30 27 2 27 28
M  V30 28 1 8 3
M  V30 29 1 27 9
M  V30 30 1 23 11
M  V30 31 1 23 18
M  V30 32 1 1 29
M  V30 33 1 1 30
M  V30 34 1 1 31
M  V30 35 1 4 32
M  V30 36 1 5 33
M  V30 37 1 6 34
M  V30 38 1 7 35
M  V30 39 1 12 36
M  V30 40 1 14 37
M  V30 41 1 14 38
M  V30 42 1 15 39
M  V30 43 1 15 40
M  V30 44 1 16 41
M  V30 45 1 16 42
M  V30 46 1 17 43
M  V30 47 1 20 44
M  V30 48 1 21 45
M  V30 49 1 22 46
M  V30 50 1 26 47
M  V30 END BOND
M  V30 END CTAB
M  END
>  <Dataset>  (224) 
ChEMBL_Kinases

>  <Ligand_Instance>  (224) 
nan

>  <PDB_ID>  (224) 
nan

>  <Standardized_SMILES>  (224) 
COc1ccccc1C1=C(c2cn(CCCO)c3ncccc23)C(=O)NC1=O

>  <Name>  (224) 
nan

>  <Pocket>  (224) 
nan

>  <ATP_Site>  (224) 
nan

>  <Peripheral>  (224) 
nan

>  <Num_H_Atoms_ProtBoundConf>  (224) 
nan

>  <Num_Resolved_Atoms>  (224) 
nan

>  <Num_Not_Resolved_Atoms>  (224) 
nan

$$$$
CHEMBL111339
     RDKit          3D

  0  0  0  0  0  0  0  0  0  0999 V3000
M  V30 BEGIN CTAB
M  V30 COUNTS 44 47 0 0 0
M  V30 BEGIN ATOM
M  V30 1 C 1.661447 -7.023203 3.140976 0
M  V30 2 C 1.779011 -5.947948 2.141591 0
M  V30 3 C 2.031221 -6.284020 0.830528 0
M  V30 4 C 2.160552 -5.330219 -0.156899 0
M  V30 5 C 2.021313 -3.999188 0.245906 0
M  V30 6 N 2.154213 -2.963779 -0.731776 0
M  V30 7 C 2.005443 -1.607321 -0.356334 0
M  V30 8 N 2.940662 -0.742714 0.118773 0
M  V30 9 C 2.550502 0.526606 0.413636 0
M  V30 10 C 1.236961 0.937370 0.237805 0
M  V30 11 C 0.944865 2.245172 0.566716 0
M  V30 12 C -0.374430 2.597091 0.370975 0
M  V30 13 C -0.945006 3.914389 0.639929 0
M  V30 14 C -1.459930 4.130939 1.906097 0
M  V30 15 Cl -1.408699 2.854576 3.102180 0
M  V30 16 C -1.999863 5.382540 2.154675 0
M  V30 17 C -2.048090 6.399507 1.223424 0
M  V30 18 C -1.528138 6.169991 -0.042852 0
M  V30 19 C -0.984303 4.930079 -0.315274 0
M  V30 20 Cl -0.290990 4.501315 -1.869409 0
M  V30 21 C -1.328240 1.716723 -0.114131 0
M  V30 22 O -2.540891 1.986781 -0.310448 0
M  V30 23 N -0.979943 0.442966 -0.419493 0
M  V30 24 C -1.849252 -0.597550 -0.933739 0
M  V30 25 C 0.299187 0.048987 -0.245467 0
M  V30 26 N 0.719249 -1.217360 -0.532518 0
M  V30 27 C 1.766378 -3.638141 1.561373 0
M  V30 28 C 1.641833 -4.614141 2.528302 0
M  V30 29 H 1.519081 -6.566631 4.163767 0
M  V30 30 H 2.623476 -7.605739 3.160973 0
M  V30 31 H 0.828568 -7.702736 2.967290 0
M  V30 32 H 2.149971 -7.299200 0.451921 0
M  V30 33 H 2.359134 -5.518990 -1.213178 0
M  V30 34 H 2.359733 -3.158262 -1.732251 0
M  V30 35 H 3.307780 1.199544 0.790874 0
M  V30 36 H 1.607426 2.982555 0.941274 0
M  V30 37 H -2.392517 5.493933 3.173078 0
M  V30 38 H -2.489491 7.364773 1.486376 0
M  V30 39 H -1.535078 6.917988 -0.808684 0
M  V30 40 H -2.051558 -1.262865 -0.051437 0
M  V30 41 H -2.825033 -0.209188 -1.236424 0
M  V30 42 H -1.349449 -1.171674 -1.748264 0
M  V30 43 H 1.668097 -2.583593 1.809382 0
M  V30 44 H 1.442681 -4.370183 3.568348 0
M  V30 END ATOM
M  V30 BEGIN BOND
M  V30 1 1 1 2
M  V30 2 2 2 3
M  V30 3 1 3 4
M  V30 4 2 4 5
M  V30 5 1 5 6
M  V30 6 1 6 7
M  V30 7 2 7 8
M  V30 8 1 8 9
M  V30 9 2 9 10
M  V30 10 1 10 11
M  V30 11 2 11 12
M  V30 12 1 12 13
M  V30 13 2 13 14
M  V30 14 1 14 15
M  V30 15 1 14 16
M  V30 16 2 16 17
M  V30 17 1 17 18
M  V30 18 2 18 19
M  V30 19 1 19 20
M  V30 20 1 12 21
M  V30 21 2 21 22
M  V30 22 1 21 23
M  V30 23 1 23 24
M  V30 24 1 23 25
M  V30 25 2 25 26
M  V30 26 1 5 27
M  V30 27 2 27 28
M  V30 28 1 28 2
M  V30 29 1 26 7
M  V30 30 1 25 10
M  V30 31 1 19 13
M  V30 32 1 1 29
M  V30 33 1 1 30
M  V30 34 1 1 31
M  V30 35 1 3 32
M  V30 36 1 4 33
M  V30 37 1 6 34
M  V30 38 1 9 35
M  V30 39 1 11 36
M  V30 40 1 16 37
M  V30 41 1 17 38
M  V30 42 1 18 39
M  V30 43 1 24 40
M  V30 44 1 24 41
M  V30 45 1 24 42
M  V30 46 1 27 43
M  V30 47 1 28 44
M  V30 END BOND
M  V30 END CTAB
M  END
>  <Dataset>  (225) 
ChEMBL_Kinases

>  <Ligand_Instance>  (225) 
nan

>  <PDB_ID>  (225) 
nan

>  <Standardized_SMILES>  (225) 
Cc1ccc(Nc2ncc3cc(-c4c(Cl)cccc4Cl)c(=O)n(C)c3n2)cc1

>  <Name>  (225) 
nan

>  <Pocket>  (225) 
nan

>  <ATP_Site>  (225) 
nan

>  <Peripheral>  (225) 
nan

>  <Num_H_Atoms_ProtBoundConf>  (225) 
nan

>  <Num_Resolved_Atoms>  (225) 
nan

>  <Num_Not_Resolved_Atoms>  (225) 
nan

$$$$
CHEMBL1114
     RDKit          3D

  0  0  0  0  0  0  0  0  0  0999 V3000
M  V30 BEGIN CTAB
M  V30 COUNTS 21 22 0 0 0
M  V30 BEGIN ATOM
M  V30 1 C 2.039808 0.208612 3.514116 0
M  V30 2 N 0.924030 0.123346 2.564784 0
M  V30 3 C -0.402502 0.061749 2.840947 0
M  V30 4 N -1.076741 -0.006711 1.669091 0
M  V30 5 C -0.160562 0.012618 0.658466 0
M  V30 6 C 1.089207 0.094106 1.226741 0
M  V30 7 C 2.185861 0.127346 0.373707 0
M  V30 8 O 3.310666 0.201841 0.925918 0
M  V30 9 N 2.017196 0.080960 -0.953183 0
M  V30 10 C 0.774111 0.002126 -1.440103 0
M  V30 11 O 0.570274 -0.044189 -2.699556 0
M  V30 12 N -0.337999 -0.034631 -0.682682 0
M  V30 13 C -1.686312 -0.120195 -1.212833 0
M  V30 14 H 1.618152 0.064799 4.526433 0
M  V30 15 H 2.794510 -0.546694 3.286766 0
M  V30 16 H 2.480133 1.244446 3.499237 0
M  V30 17 H -0.787835 0.070223 3.852335 0
M  V30 18 H 2.842361 0.106083 -1.591028 0
M  V30 19 H -1.649442 -0.064596 -2.321315 0
M  V30 20 H -2.198654 -1.070333 -0.959451 0
M  V30 21 H -2.298422 0.774259 -0.909835 0
M  V30 END ATOM
M  V30 BEGIN BOND
M  V30 1 1 1 2
M  V30 2 1 2 3
M  V30 3 2 3 4
M  V30 4 1 4 5
M  V30 5 2 5 6
M  V30 6 1 6 7
M  V30 7 2 7 8
M  V30 8 1 7 9
M  V30 9 1 9 10
M  V30 10 2 10 11
M  V30 11 1 10 12
M  V30 12 1 12 13
M  V30 13 1 6 2
M  V30 14 1 12 5
M  V30 15 1 1 14
M  V30 16 1 1 15
M  V30 17 1 1 16
M  V30 18 1 3 17
M  V30 19 1 9 18
M  V30 20 1 13 19
M  V30 21 1 13 20
M  V30 22 1 13 21
M  V30 END BOND
M  V30 END CTAB
M  END
>  <Dataset>  (226) 
ChEMBL_Kinases

>  <Ligand_Instance>  (226) 
nan

>  <PDB_ID>  (226) 
nan

>  <Standardized_SMILES>  (226) 
Cn1cnc2c1c(=O)[nH]c(=O)n2C

>  <Name>  (226) 
THEOBROMINE

>  <Pocket>  (226) 
nan

>  <ATP_Site>  (226) 
nan

>  <Peripheral>  (226) 
nan

>  <Num_H_Atoms_ProtBoundConf>  (226) 
nan

>  <Num_Resolved_Atoms>  (226) 
nan

>  <Num_Not_Resolved_Atoms>  (226) 
nan

$$$$
CHEMBL111620
     RDKit          3D

  0  0  0  0  0  0  0  0  0  0999 V3000
M  V30 BEGIN CTAB
M  V30 COUNTS 45 48 0 0 0
M  V30 BEGIN ATOM
M  V30 1 O -0.605751 -5.295264 2.306853 0
M  V30 2 C 0.176709 -4.298611 2.328543 0
M  V30 3 N 1.389743 -4.321203 3.113199 0
M  V30 4 C 1.977635 -3.043465 2.874640 0
M  V30 5 O 3.087800 -2.833603 3.481289 0
M  V30 6 C 1.121036 -2.261355 1.952419 0
M  V30 7 C 1.589810 -0.937962 1.573541 0
M  V30 8 C 1.742326 -0.294106 0.368798 0
M  V30 9 N 2.199802 0.963904 0.488614 0
M  V30 10 C 2.463962 1.890608 -0.590390 0
M  V30 11 C 1.305404 2.750477 -0.949733 0
M  V30 12 C 0.076833 2.034573 -1.399118 0
M  V30 13 O 0.259116 1.260739 -2.517060 0
M  V30 14 C 2.369445 1.202581 1.802629 0
M  V30 15 N 2.806384 2.332021 2.384625 0
M  V30 16 C 2.907867 2.390379 3.723417 0
M  V30 17 C 2.562192 1.292442 4.480137 0
M  V30 18 C 2.119350 0.156229 3.839471 0
M  V30 19 C 2.001121 0.050719 2.480840 0
M  V30 20 C 0.076356 -2.995816 1.638849 0
M  V30 21 C -1.000974 -2.598692 0.744022 0
M  V30 22 N -0.884155 -1.987950 -0.443646 0
M  V30 23 C -1.895319 -1.629291 -1.242103 0
M  V30 24 C -3.207999 -1.868407 -0.895586 0
M  V30 25 C -4.324429 -1.469291 -1.791155 0
M  V30 26 F -5.230346 -0.629482 -1.188781 0
M  V30 27 F -3.781778 -0.950433 -2.945232 0
M  V30 28 F -5.054244 -2.595736 -2.198329 0
M  V30 29 C -3.403699 -2.498095 0.323708 0
M  V30 30 C -2.307993 -2.847378 1.112328 0
M  V30 31 Cl -2.800443 -3.605823 2.609193 0
M  V30 32 H 1.702636 -5.135601 3.705309 0
M  V30 33 H 1.532112 -0.728999 -0.587762 0
M  V30 34 H 2.797248 1.359503 -1.507740 0
M  V30 35 H 3.295466 2.560915 -0.289803 0
M  V30 36 H 1.042198 3.499614 -0.171370 0
M  V30 37 H 1.638002 3.371727 -1.825246 0
M  V30 38 H -0.417992 1.427209 -0.618787 0
M  V30 39 H -0.681009 2.831168 -1.646549 0
M  V30 40 H 0.479421 1.824278 -3.320044 0
M  V30 41 H 3.266217 3.338078 4.118650 0
M  V30 42 H 2.660540 1.389781 5.535710 0
M  V30 43 H 1.854968 -0.657573 4.469601 0
M  V30 44 H -1.631708 -1.142054 -2.172867 0
M  V30 45 H -4.445029 -2.673757 0.565063 0
M  V30 END ATOM
M  V30 BEGIN BOND
M  V30 1 2 1 2
M  V30 2 1 2 3
M  V30 3 1 3 4
M  V30 4 2 4 5
M  V30 5 1 4 6
M  V30 6 1 6 7
M  V30 7 2 7 8
M  V30 8 1 8 9
M  V30 9 1 9 10
M  V30 10 1 10 11
M  V30 11 1 11 12
M  V30 12 1 12 13
M  V30 13 1 9 14
M  V30 14 2 14 15
M  V30 15 1 15 16
M  V30 16 2 16 17
M  V30 17 1 17 18
M  V30 18 2 18 19
M  V30 19 2 6 20
M  V30 20 1 20 21
M  V30 21 2 21 22
M  V30 22 1 22 23
M  V30 23 2 23 24
M  V30 24 1 24 25
M  V30 25 1 25 26
M  V30 26 1 25 27
M  V30 27 1 25 28
M  V30 28 1 24 29
M  V30 29 2 29 30
M  V30 30 1 30 31
M  V30 31 1 20 2
M  V30 32 1 30 21
M  V30 33 1 19 7
M  V30 34 1 19 14
M  V30 35 1 3 32
M  V30 36 1 8 33
M  V30 37 1 10 34
M  V30 38 1 10 35
M  V30 39 1 11 36
M  V30 40 1 11 37
M  V30 41 1 12 38
M  V30 42 1 12 39
M  V30 43 1 13 40
M  V30 44 1 16 41
M  V30 45 1 17 42
M  V30 46 1 18 43
M  V30 47 1 23 44
M  V30 48 1 29 45
M  V30 END BOND
M  V30 END CTAB
M  END
>  <Dataset>  (227) 
ChEMBL_Kinases

>  <Ligand_Instance>  (227) 
nan

>  <PDB_ID>  (227) 
nan

>  <Standardized_SMILES>  (227) 
O=C1NC(=O)C(c2cn(CCCO)c3ncccc23)=C1c1ncc(C(F)(F)F)cc1Cl

>  <Name>  (227) 
nan

>  <Pocket>  (227) 
nan

>  <ATP_Site>  (227) 
nan

>  <Peripheral>  (227) 
nan

>  <Num_H_Atoms_ProtBoundConf>  (227) 
nan

>  <Num_Resolved_Atoms>  (227) 
nan

>  <Num_Not_Resolved_Atoms>  (227) 
nan

$$$$
CHEMBL111711
     RDKit          3D

  0  0  0  0  0  0  0  0  0  0999 V3000
M  V30 BEGIN CTAB
M  V30 COUNTS 57 58 0 0 0
M  V30 BEGIN ATOM
M  V30 1 C 0.806092 -3.596186 0.342710 0
M  V30 2 C 0.938455 -3.321650 -1.098351 0
M  V30 3 C 1.794972 -2.201624 -1.571335 0
M  V30 4 C 3.241856 -2.258403 -1.274762 0
M  V30 5 C 3.603820 -2.218552 0.134300 0
M  V30 6 C 3.313240 -1.029965 0.962648 0
M  V30 7 C 4.009319 0.243060 0.544409 0
M  V30 8 C 3.677449 1.311676 1.525084 0
M  V30 9 C 2.374732 1.810565 1.795047 0
M  V30 10 C 1.130697 1.928817 1.421427 0
M  V30 11 C -0.186543 2.518795 1.862295 0
M  V30 12 C -1.175521 1.564991 1.228493 0
M  V30 13 C -2.386580 2.304783 0.688812 0
M  V30 14 O -2.070778 3.284219 -0.218127 0
M  V30 15 C -1.641150 0.477542 2.155650 0
M  V30 16 O -2.584508 -0.340951 1.540676 0
M  V30 17 C -2.508748 -1.160737 0.471963 0
M  V30 18 O -1.470213 -1.334047 -0.193381 0
M  V30 19 C -3.704106 -1.890510 0.060536 0
M  V30 20 C -4.901066 -1.732023 0.738528 0
M  V30 21 C -6.033023 -2.413180 0.356532 0
M  V30 22 C -6.035673 -3.298755 -0.730088 0
M  V30 23 C -4.828565 -3.433183 -1.381779 0
M  V30 24 C -3.675408 -2.765109 -1.025681 0
M  V30 25 O -0.538944 0.979562 0.115662 0
M  V30 26 C 0.808865 1.404806 0.101042 0
M  V30 27 O 1.672444 1.384783 -0.837872 0
M  V30 28 H 1.388646 -4.510793 0.670456 0
M  V30 29 H 1.018232 -2.806666 1.051425 0
M  V30 30 H -0.272082 -3.972792 0.514756 0
M  V30 31 H -0.073886 -3.303533 -1.608396 0
M  V30 32 H 1.389764 -4.271728 -1.560128 0
M  V30 33 H 1.638664 -2.105918 -2.694539 0
M  V30 34 H 1.316667 -1.243131 -1.195078 0
M  V30 35 H 3.839291 -1.561580 -1.924711 0
M  V30 36 H 3.590126 -3.277740 -1.670841 0
M  V30 37 H 3.296471 -3.176163 0.646935 0
M  V30 38 H 4.758480 -2.328063 0.189615 0
M  V30 39 H 2.227969 -0.860174 1.025638 0
M  V30 40 H 3.629345 -1.186009 2.038315 0
M  V30 41 H 3.935901 0.549374 -0.474372 0
M  V30 42 H 5.145184 0.037726 0.769258 0
M  V30 43 H 4.457692 2.155948 1.451808 0
M  V30 44 H 4.046864 0.839748 2.523048 0
M  V30 45 H 2.428380 2.367331 2.782839 0
M  V30 46 H -0.262255 2.593348 2.953189 0
M  V30 47 H -0.280307 3.532290 1.436356 0
M  V30 48 H -3.103721 1.592561 0.241094 0
M  V30 49 H -2.934985 2.770057 1.554993 0
M  V30 50 H -1.412783 2.908744 -0.868493 0
M  V30 51 H -0.762184 -0.110896 2.524611 0
M  V30 52 H -2.159258 0.918534 3.049175 0
M  V30 53 H -5.008875 -1.074656 1.593628 0
M  V30 54 H -7.013640 -2.351581 0.826491 0
M  V30 55 H -6.906378 -3.848378 -1.055491 0
M  V30 56 H -4.733211 -4.095307 -2.233899 0
M  V30 57 H -2.753214 -2.913032 -1.581029 0
M  V30 END ATOM
M  V30 BEGIN BOND
M  V30 1 1 1 2
M  V30 2 1 2 3
M  V30 3 1 3 4
M  V30 4 1 4 5
M  V30 5 1 5 6
M  V30 6 1 6 7
M  V30 7 1 7 8
M  V30 8 1 8 9
M  V30 9 2 9 10
M  V30 10 1 10 11
M  V30 11 1 11 12
M  V30 12 1 12 13
M  V30 13 1 13 14
M  V30 14 1 12 15
M  V30 15 1 15 16
M  V30 16 1 16 17
M  V30 17 2 17 18
M  V30 18 1 17 19
M  V30 19 2 19 20
M  V30 20 1 20 21
M  V30 21 2 21 22
M  V30 22 1 22 23
M  V30 23 2 23 24
M  V30 24 1 12 25
M  V30 25 1 25 26
M  V30 26 2 26 27
M  V30 27 1 26 10
M  V30 28 1 24 19
M  V30 29 1 1 28
M  V30 30 1 1 29
M  V30 31 1 1 30
M  V30 32 1 2 31
M  V30 33 1 2 32
M  V30 34 1 3 33
M  V30 35 1 3 34
M  V30 36 1 4 35
M  V30 37 1 4 36
M  V30 38 1 5 37
M  V30 39 1 5 38
M  V30 40 1 6 39
M  V30 41 1 6 40
M  V30 42 1 7 41
M  V30 43 1 7 42
M  V30 44 1 8 43
M  V30 45 1 8 44
M  V30 46 1 9 45
M  V30 47 1 11 46
M  V30 48 1 11 47
M  V30 49 1 13 48
M  V30 50 1 13 49
M  V30 51 1 14 50
M  V30 52 1 15 51
M  V30 53 1 15 52
M  V30 54 1 20 53
M  V30 55 1 21 54
M  V30 56 1 22 55
M  V30 57 1 23 56
M  V30 58 1 24 57
M  V30 END BOND
M  V30 END CTAB
M  END
>  <Dataset>  (228) 
ChEMBL_Kinases

>  <Ligand_Instance>  (228) 
nan

>  <PDB_ID>  (228) 
nan

>  <Standardized_SMILES>  (228) 
CCCCCCCC/C=C1/CC(CO)(COC(=O)c2ccccc2)OC1=O

>  <Name>  (228) 
nan

>  <Pocket>  (228) 
nan

>  <ATP_Site>  (228) 
nan

>  <Peripheral>  (228) 
nan

>  <Num_H_Atoms_ProtBoundConf>  (228) 
nan

>  <Num_Resolved_Atoms>  (228) 
nan

>  <Num_Not_Resolved_Atoms>  (228) 
nan

$$$$
CHEMBL112401
     RDKit          3D

  0  0  0  0  0  0  0  0  0  0999 V3000
M  V30 BEGIN CTAB
M  V30 COUNTS 67 69 0 0 0
M  V30 BEGIN ATOM
M  V30 1 C 6.201877 2.668073 2.093447 0
M  V30 2 C 5.567751 1.288652 1.972843 0
M  V30 3 C 5.518402 0.865200 0.507328 0
M  V30 4 C 4.891178 -0.504928 0.358974 0
M  V30 5 C 4.893793 -0.825323 -1.142325 0
M  V30 6 C 4.276232 -2.182469 -1.332583 0
M  V30 7 C 4.231179 -2.597889 -2.761034 0
M  V30 8 C 3.428987 -1.686616 -3.659966 0
M  V30 9 C 2.044900 -1.658684 -3.160965 0
M  V30 10 C 1.235628 -0.690592 -2.793948 0
M  V30 11 C -0.146814 -0.519222 -2.282194 0
M  V30 12 C 0.061646 0.630182 -1.322509 0
M  V30 13 C 0.979865 0.250171 -0.207288 0
M  V30 14 O 1.381627 1.333490 0.560184 0
M  V30 15 C -1.182106 1.295709 -0.897128 0
M  V30 16 O -2.098122 0.682805 -0.101001 0
M  V30 17 C -2.137199 0.241469 1.160422 0
M  V30 18 O -1.183323 0.344332 1.952741 0
M  V30 19 C -3.384781 -0.397545 1.617646 0
M  V30 20 C -4.496117 -0.566485 0.839954 0
M  V30 21 C -5.641406 -1.177669 1.334579 0
M  V30 22 C -5.694689 -1.635388 2.630389 0
M  V30 23 C -6.854671 -2.293085 3.246303 0
M  V30 24 C -7.703791 -3.067949 2.506019 0
M  V30 25 C -8.801403 -3.683698 3.114437 0
M  V30 26 C -8.993802 -3.482580 4.473805 0
M  V30 27 C -8.166231 -2.708503 5.271330 0
M  V30 28 C -7.093047 -2.122587 4.611673 0
M  V30 29 C -4.592136 -1.479834 3.437794 0
M  V30 30 C -3.480344 -0.876735 2.928505 0
M  V30 31 O 0.853854 1.514399 -2.160286 0
M  V30 32 C 1.694281 0.688289 -2.885131 0
M  V30 33 O 2.692028 1.155725 -3.505843 0
M  V30 34 H 5.862654 3.224157 2.986045 0
M  V30 35 H 7.305320 2.519332 2.232926 0
M  V30 36 H 6.060194 3.231949 1.147956 0
M  V30 37 H 4.552942 1.347066 2.404929 0
M  V30 38 H 6.142655 0.550371 2.545546 0
M  V30 39 H 6.528837 0.868258 0.093271 0
M  V30 40 H 4.897116 1.612503 -0.024826 0
M  V30 41 H 5.505943 -1.230836 0.918713 0
M  V30 42 H 3.875467 -0.513814 0.766637 0
M  V30 43 H 4.249209 -0.077176 -1.640454 0
M  V30 44 H 5.927092 -0.760589 -1.512781 0
M  V30 45 H 4.837298 -2.962834 -0.751429 0
M  V30 46 H 3.238185 -2.137217 -0.926926 0
M  V30 47 H 3.755038 -3.608517 -2.828322 0
M  V30 48 H 5.251847 -2.754084 -3.194560 0
M  V30 49 H 3.468919 -2.165126 -4.675613 0
M  V30 50 H 3.939401 -0.708661 -3.686810 0
M  V30 51 H 1.562349 -2.645826 -3.065722 0
M  V30 52 H -0.561359 -1.414954 -1.797825 0
M  V30 53 H -0.752640 -0.137543 -3.124771 0
M  V30 54 H 0.622661 -0.624547 0.331922 0
M  V30 55 H 1.981706 -0.123825 -0.649118 0
M  V30 56 H 1.911713 0.953209 1.328401 0
M  V30 57 H -1.728852 1.585068 -1.852570 0
M  V30 58 H -0.868212 2.322354 -0.514471 0
M  V30 59 H -4.468606 -0.209950 -0.184450 0
M  V30 60 H -6.519544 -1.312632 0.724820 0
M  V30 61 H -7.570883 -3.233602 1.459015 0
M  V30 62 H -9.526827 -4.309078 2.631288 0
M  V30 63 H -9.836027 -3.943649 4.985378 0
M  V30 64 H -8.327949 -2.562449 6.320801 0
M  V30 65 H -6.441127 -1.514638 5.231795 0
M  V30 66 H -4.570178 -1.821920 4.476671 0
M  V30 67 H -2.596826 -0.741731 3.543135 0
M  V30 END ATOM
M  V30 BEGIN BOND
M  V30 1 1 1 2
M  V30 2 1 2 3
M  V30 3 1 3 4
M  V30 4 1 4 5
M  V30 5 1 5 6
M  V30 6 1 6 7
M  V30 7 1 7 8
M  V30 8 1 8 9
M  V30 9 2 9 10
M  V30 10 1 10 11
M  V30 11 1 11 12
M  V30 12 1 12 13
M  V30 13 1 13 14
M  V30 14 1 12 15
M  V30 15 1 15 16
M  V30 16 1 16 17
M  V30 17 2 17 18
M  V30 18 1 17 19
M  V30 19 2 19 20
M  V30 20 1 20 21
M  V30 21 2 21 22
M  V30 22 1 22 23
M  V30 23 2 23 24
M  V30 24 1 24 25
M  V30 25 2 25 26
M  V30 26 1 26 27
M  V30 27 2 27 28
M  V30 28 1 22 29
M  V30 29 2 29 30
M  V30 30 1 12 31
M  V30 31 1 31 32
M  V30 32 2 32 33
M  V30 33 1 32 10
M  V30 34 1 30 19
M  V30 35 1 28 23
M  V30 36 1 1 34
M  V30 37 1 1 35
M  V30 38 1 1 36
M  V30 39 1 2 37
M  V30 40 1 2 38
M  V30 41 1 3 39
M  V30 42 1 3 40
M  V30 43 1 4 41
M  V30 44 1 4 42
M  V30 45 1 5 43
M  V30 46 1 5 44
M  V30 47 1 6 45
M  V30 48 1 6 46
M  V30 49 1 7 47
M  V30 50 1 7 48
M  V30 51 1 8 49
M  V30 52 1 8 50
M  V30 53 1 9 51
M  V30 54 1 11 52
M  V30 55 1 11 53
M  V30 56 1 13 54
M  V30 57 1 13 55
M  V30 58 1 14 56
M  V30 59 1 15 57
M  V30 60 1 15 58
M  V30 61 1 20 59
M  V30 62 1 21 60
M  V30 63 1 24 61
M  V30 64 1 25 62
M  V30 65 1 26 63
M  V30 66 1 27 64
M  V30 67 1 28 65
M  V30 68 1 29 66
M  V30 69 1 30 67
M  V30 END BOND
M  V30 END CTAB
M  END
>  <Dataset>  (229) 
ChEMBL_Kinases

>  <Ligand_Instance>  (229) 
nan

>  <PDB_ID>  (229) 
nan

>  <Standardized_SMILES>  (229) 
CCCCCCCC/C=C1/CC(CO)(COC(=O)c2ccc(-c3ccccc3)cc2)OC1=O

>  <Name>  (229) 
nan

>  <Pocket>  (229) 
nan

>  <ATP_Site>  (229) 
nan

>  <Peripheral>  (229) 
nan

>  <Num_H_Atoms_ProtBoundConf>  (229) 
nan

>  <Num_Resolved_Atoms>  (229) 
nan

>  <Num_Not_Resolved_Atoms>  (229) 
nan

$$$$
CHEMBL114962
     RDKit          3D

  0  0  0  0  0  0  0  0  0  0999 V3000
M  V30 BEGIN CTAB
M  V30 COUNTS 37 40 0 0 0
M  V30 BEGIN ATOM
M  V30 1 O -1.309981 -4.924520 1.797072 0
M  V30 2 C -0.915016 -3.743597 1.996622 0
M  V30 3 N -1.394788 -3.072170 3.067941 0
M  V30 4 C -0.987602 -1.794026 3.311510 0
M  V30 5 N -0.104479 -1.224133 2.466006 0
M  V30 6 N 0.313435 0.025770 2.677365 0
M  V30 7 C 1.194506 0.631839 1.857208 0
M  V30 8 S 1.659958 2.304740 2.267737 0
M  V30 9 C 0.577271 3.491926 1.496733 0
M  V30 10 C -0.455218 3.054942 0.704674 0
M  V30 11 C -1.317948 3.916635 0.087267 0
M  V30 12 C -1.082837 5.268938 0.312983 0
M  V30 13 C -0.039065 5.740040 1.114756 0
M  V30 14 F 0.129793 7.067528 1.289768 0
M  V30 15 C 0.810146 4.821409 1.719945 0
M  V30 16 C 1.702740 -0.038037 0.748149 0
M  V30 17 C 1.293468 -1.325404 0.501669 0
M  V30 18 C 0.383369 -1.880425 1.393146 0
M  V30 19 C -0.015582 -3.192937 1.116938 0
M  V30 20 C 0.474500 -3.952370 -0.023305 0
M  V30 21 C -0.329861 -3.774840 -1.152263 0
M  V30 22 Cl -1.747697 -2.782166 -1.234237 0
M  V30 23 C 0.010746 -4.441420 -2.334248 0
M  V30 24 C 1.142423 -5.264150 -2.354152 0
M  V30 25 C 1.913728 -5.416495 -1.221377 0
M  V30 26 C 1.589901 -4.763862 -0.044593 0
M  V30 27 Cl 2.494009 -4.881190 1.455156 0
M  V30 28 H -1.313085 -1.175946 4.139728 0
M  V30 29 H -0.573641 1.977816 0.576644 0
M  V30 30 H -2.137539 3.600549 -0.540357 0
M  V30 31 H -1.718062 6.040480 -0.136645 0
M  V30 32 H 1.602725 5.229717 2.330593 0
M  V30 33 H 2.414623 0.520419 0.128387 0
M  V30 34 H 1.693083 -1.820621 -0.350725 0
M  V30 35 H -0.564040 -4.356544 -3.258849 0
M  V30 36 H 1.408675 -5.781969 -3.268977 0
M  V30 37 H 2.794989 -6.042350 -1.195299 0
M  V30 END ATOM
M  V30 BEGIN BOND
M  V30 1 2 1 2
M  V30 2 1 2 3
M  V30 3 2 3 4
M  V30 4 1 4 5
M  V30 5 1 5 6
M  V30 6 2 6 7
M  V30 7 1 7 8
M  V30 8 1 8 9
M  V30 9 2 9 10
M  V30 10 1 10 11
M  V30 11 2 11 12
M  V30 12 1 12 13
M  V30 13 1 13 14
M  V30 14 2 13 15
M  V30 15 1 7 16
M  V30 16 2 16 17
M  V30 17 1 17 18
M  V30 18 2 18 19
M  V30 19 1 19 20
M  V30 20 2 20 21
M  V30 21 1 21 22
M  V30 22 1 21 23
M  V30 23 2 23 24
M  V30 24 1 24 25
M  V30 25 2 25 26
M  V30 26 1 26 27
M  V30 27 1 19 2
M  V30 28 1 26 20
M  V30 29 1 18 5
M  V30 30 1 15 9
M  V30 31 1 4 28
M  V30 32 1 10 29
M  V30 33 1 11 30
M  V30 34 1 12 31
M  V30 35 1 15 32
M  V30 36 1 16 33
M  V30 37 1 17 34
M  V30 38 1 23 35
M  V30 39 1 24 36
M  V30 40 1 25 37
M  V30 END BOND
M  V30 END CTAB
M  END
>  <Dataset>  (230) 
ChEMBL_Kinases

>  <Ligand_Instance>  (230) 
nan

>  <PDB_ID>  (230) 
nan

>  <Standardized_SMILES>  (230) 
O=c1ncn2nc(Sc3cccc(F)c3)ccc2c1-c1c(Cl)cccc1Cl

>  <Name>  (230) 
nan

>  <Pocket>  (230) 
nan

>  <ATP_Site>  (230) 
nan

>  <Peripheral>  (230) 
nan

>  <Num_H_Atoms_ProtBoundConf>  (230) 
nan

>  <Num_Resolved_Atoms>  (230) 
nan

>  <Num_Not_Resolved_Atoms>  (230) 
nan

$$$$
CHEMBL113070
     RDKit          3D

  0  0  0  0  0  0  0  0  0  0999 V3000
M  V30 BEGIN CTAB
M  V30 COUNTS 53 56 0 0 0
M  V30 BEGIN ATOM
M  V30 1 C 3.630085 -0.482992 -0.737330 0
M  V30 2 N 2.921210 0.633196 -0.150714 0
M  V30 3 C 3.559761 1.392249 0.756955 0
M  V30 4 O 4.736216 1.147351 1.093449 0
M  V30 5 C 2.925807 2.468998 1.343428 0
M  V30 6 C 3.567633 3.317498 2.338232 0
M  V30 7 C 4.317931 4.463938 2.191761 0
M  V30 8 Cl 4.512186 4.955673 0.522887 0
M  V30 9 C 4.838077 5.114851 3.303162 0
M  V30 10 C 4.573324 4.570105 4.538102 0
M  V30 11 C 3.831580 3.428758 4.750892 0
M  V30 12 C 3.331426 2.810003 3.621404 0
M  V30 13 Cl 2.395175 1.354191 3.988208 0
M  V30 14 C 1.616466 2.797973 1.014181 0
M  V30 15 C 0.968358 2.013045 0.081419 0
M  V30 16 C -0.332036 2.342553 -0.239729 0
M  V30 17 N -0.943569 1.547661 -1.159742 0
M  V30 18 C -0.298646 0.501871 -1.715076 0
M  V30 19 N -1.076545 -0.231282 -2.653392 0
M  V30 20 C -1.866502 -1.244037 -2.045332 0
M  V30 21 C -1.869667 -1.442164 -0.673608 0
M  V30 22 C -2.630333 -2.420291 -0.026716 0
M  V30 23 C -3.429925 -3.244308 -0.789664 0
M  V30 24 C -4.229273 -4.270784 -0.061905 0
M  V30 25 C -3.363676 -5.514399 0.041817 0
M  V30 26 C -4.063931 -6.636773 0.760499 0
M  V30 27 C -4.433200 -6.256238 2.144060 0
M  V30 28 O -4.257536 -5.192454 2.795464 0
M  V30 29 O -5.093585 -7.197488 2.913179 0
M  V30 30 C -3.459605 -3.083254 -2.170517 0
M  V30 31 C -2.689217 -2.102138 -2.758161 0
M  V30 32 N 0.986222 0.201243 -1.378056 0
M  V30 33 C 1.656482 0.946305 -0.471826 0
M  V30 34 H 4.432264 -0.077972 -1.409031 0
M  V30 35 H 2.963593 -1.183088 -1.257286 0
M  V30 36 H 4.179900 -1.087460 0.036381 0
M  V30 37 H 5.411919 6.002380 3.102474 0
M  V30 38 H 4.990836 5.097937 5.400740 0
M  V30 39 H 3.694952 3.102544 5.764085 0
M  V30 40 H 1.118154 3.649927 1.478430 0
M  V30 41 H -0.808117 3.189292 0.230850 0
M  V30 42 H -1.160058 -0.149581 -3.691322 0
M  V30 43 H -1.269223 -0.835158 -0.018888 0
M  V30 44 H -2.595729 -2.532683 1.045608 0
M  V30 45 H -4.504344 -3.857649 0.907019 0
M  V30 46 H -5.149750 -4.538474 -0.630185 0
M  V30 47 H -3.045043 -5.855916 -0.963184 0
M  V30 48 H -2.431859 -5.310200 0.612488 0
M  V30 49 H -3.307477 -7.466460 0.865927 0
M  V30 50 H -4.894326 -7.071748 0.180122 0
M  V30 51 H -5.544301 -7.032929 3.791728 0
M  V30 52 H -4.100005 -3.754462 -2.694170 0
M  V30 53 H -2.726013 -1.991145 -3.851513 0
M  V30 END ATOM
M  V30 BEGIN BOND
M  V30 1 1 1 2
M  V30 2 1 2 3
M  V30 3 2 3 4
M  V30 4 1 3 5
M  V30 5 1 5 6
M  V30 6 2 6 7
M  V30 7 1 7 8
M  V30 8 1 7 9
M  V30 9 2 9 10
M  V30 10 1 10 11
M  V30 11 2 11 12
M  V30 12 1 12 13
M  V30 13 2 5 14
M  V30 14 1 14 15
M  V30 15 2 15 16
M  V30 16 1 16 17
M  V30 17 2 17 18
M  V30 18 1 18 19
M  V30 19 1 19 20
M  V30 20 2 20 21
M  V30 21 1 21 22
M  V30 22 2 22 23
M  V30 23 1 23 24
M  V30 24 1 24 25
M  V30 25 1 25 26
M  V30 26 1 26 27
M  V30 27 2 27 28
M  V30 28 1 27 29
M  V30 29 1 23 30
M  V30 30 2 30 31
M  V30 31 1 18 32
M  V30 32 2 32 33
M  V30 33 1 33 2
M  V30 34 1 12 6
M  V30 35 1 33 15
M  V30 36 1 31 20
M  V30 37 1 1 34
M  V30 38 1 1 35
M  V30 39 1 1 36
M  V30 40 1 9 37
M  V30 41 1 10 38
M  V30 42 1 11 39
M  V30 43 1 14 40
M  V30 44 1 16 41
M  V30 45 1 19 42
M  V30 46 1 21 43
M  V30 47 1 22 44
M  V30 48 1 24 45
M  V30 49 1 24 46
M  V30 50 1 25 47
M  V30 51 1 25 48
M  V30 52 1 26 49
M  V30 53 1 26 50
M  V30 54 1 29 51
M  V30 55 1 30 52
M  V30 56 1 31 53
M  V30 END BOND
M  V30 END CTAB
M  END
>  <Dataset>  (231) 
ChEMBL_Kinases

>  <Ligand_Instance>  (231) 
nan

>  <PDB_ID>  (231) 
nan

>  <Standardized_SMILES>  (231) 
Cn1c(=O)c(-c2c(Cl)cccc2Cl)cc2cnc(Nc3ccc(CCCC(=O)O)cc3)nc21

>  <Name>  (231) 
nan

>  <Pocket>  (231) 
nan

>  <ATP_Site>  (231) 
nan

>  <Peripheral>  (231) 
nan

>  <Num_H_Atoms_ProtBoundConf>  (231) 
nan

>  <Num_Resolved_Atoms>  (231) 
nan

>  <Num_Not_Resolved_Atoms>  (231) 
nan

$$$$
CHEMBL11348
     RDKit          3D

  0  0  0  0  0  0  0  0  0  0999 V3000
M  V30 BEGIN CTAB
M  V30 COUNTS 37 39 0 0 0
M  V30 BEGIN ATOM
M  V30 1 C -1.491624 -2.957973 4.789077 0
M  V30 2 C -0.182190 -3.254492 4.087329 0
M  V30 3 N -0.084956 -2.457390 2.879408 0
M  V30 4 C 0.462331 -1.243317 2.872948 0
M  V30 5 O 0.928263 -0.727490 3.942058 0
M  V30 6 C 0.570250 -0.458080 1.738803 0
M  V30 7 N 1.051983 0.766043 1.410383 0
M  V30 8 C 0.860010 0.974010 0.097126 0
M  V30 9 C 1.217170 2.146290 -0.695676 0
M  V30 10 C 0.922517 2.143815 -2.043738 0
M  V30 11 C 1.221044 3.205985 -2.877254 0
M  V30 12 C 1.847745 4.295566 -2.260530 0
M  V30 13 C 2.152008 4.318427 -0.910657 0
M  V30 14 C 1.835517 3.235253 -0.116035 0
M  V30 15 N 0.256764 -0.122409 -0.397571 0
M  V30 16 C 0.057215 -1.031131 0.572114 0
M  V30 17 N -0.508373 -2.272175 0.550514 0
M  V30 18 C -1.014347 -2.792051 -0.694046 0
M  V30 19 C 0.073468 -3.567460 -1.444371 0
M  V30 20 C -0.555674 -2.936251 1.711577 0
M  V30 21 O -1.079003 -4.077329 1.676582 0
M  V30 22 H -1.388288 -2.164114 5.548866 0
M  V30 23 H -2.295871 -2.648093 4.112721 0
M  V30 24 H -1.768198 -3.882634 5.366199 0
M  V30 25 H -0.215816 -4.333587 3.792776 0
M  V30 26 H 0.670335 -3.080679 4.771373 0
M  V30 27 H 0.437107 1.316591 -2.556034 0
M  V30 28 H 0.991291 3.206659 -3.933874 0
M  V30 29 H 2.093711 5.142480 -2.888631 0
M  V30 30 H 2.637788 5.178213 -0.464175 0
M  V30 31 H 2.039946 3.176551 0.944629 0
M  V30 32 H -0.030175 -0.284772 -1.378312 0
M  V30 33 H -1.883019 -3.480780 -0.577121 0
M  V30 34 H -1.341802 -1.972346 -1.333970 0
M  V30 35 H 0.971440 -3.698647 -0.804446 0
M  V30 36 H 0.411847 -3.022779 -2.332919 0
M  V30 37 H -0.272767 -4.596328 -1.712152 0
M  V30 END ATOM
M  V30 BEGIN BOND
M  V30 1 1 1 2
M  V30 2 1 2 3
M  V30 3 1 3 4
M  V30 4 2 4 5
M  V30 5 1 4 6
M  V30 6 1 6 7
M  V30 7 2 7 8
M  V30 8 1 8 9
M  V30 9 2 9 10
M  V30 10 1 10 11
M  V30 11 2 11 12
M  V30 12 1 12 13
M  V30 13 2 13 14
M  V30 14 1 8 15
M  V30 15 1 15 16
M  V30 16 1 16 17
M  V30 17 1 17 18
M  V30 18 1 18 19
M  V30 19 1 17 20
M  V30 20 2 20 21
M  V30 21 1 20 3
M  V30 22 2 16 6
M  V30 23 1 14 9
M  V30 24 1 1 22
M  V30 25 1 1 23
M  V30 26 1 1 24
M  V30 27 1 2 25
M  V30 28 1 2 26
M  V30 29 1 10 27
M  V30 30 1 11 28
M  V30 31 1 12 29
M  V30 32 1 13 30
M  V30 33 1 14 31
M  V30 34 1 15 32
M  V30 35 1 18 33
M  V30 36 1 18 34
M  V30 37 1 19 35
M  V30 38 1 19 36
M  V30 39 1 19 37
M  V30 END BOND
M  V30 END CTAB
M  END
>  <Dataset>  (232) 
ChEMBL_Kinases

>  <Ligand_Instance>  (232) 
nan

>  <PDB_ID>  (232) 
nan

>  <Standardized_SMILES>  (232) 
CCn1c(=O)c2nc(-c3ccccc3)[nH]c2n(CC)c1=O

>  <Name>  (232) 
nan

>  <Pocket>  (232) 
nan

>  <ATP_Site>  (232) 
nan

>  <Peripheral>  (232) 
nan

>  <Num_H_Atoms_ProtBoundConf>  (232) 
nan

>  <Num_Resolved_Atoms>  (232) 
nan

>  <Num_Not_Resolved_Atoms>  (232) 
nan

$$$$
CHEMBL113806
     RDKit          3D

  0  0  0  0  0  0  0  0  0  0999 V3000
M  V30 BEGIN CTAB
M  V30 COUNTS 37 40 0 0 0
M  V30 BEGIN ATOM
M  V30 1 O -0.750660 -4.622222 3.620771 0
M  V30 2 C -0.067228 -3.590904 3.523858 0
M  V30 3 N 0.852280 -3.112334 4.386349 0
M  V30 4 C 1.527394 -1.970706 4.156423 0
M  V30 5 N 1.328531 -1.222425 3.039514 0
M  V30 6 N 2.018099 -0.107709 2.860761 0
M  V30 7 C 1.857241 0.666152 1.773164 0
M  V30 8 S 2.774270 2.188413 1.491930 0
M  V30 9 C 2.216395 2.852451 -0.073839 0
M  V30 10 C 2.971687 2.381092 -1.144222 0
M  V30 11 C 2.699765 2.778386 -2.456685 0
M  V30 12 C 1.651319 3.658683 -2.656680 0
M  V30 13 C 0.900102 4.127302 -1.590597 0
M  V30 14 C 1.177045 3.728869 -0.300141 0
M  V30 15 C 0.928100 0.259358 0.817760 0
M  V30 16 C 0.219162 -0.910429 1.027486 0
M  V30 17 C 0.402319 -1.688077 2.152814 0
M  V30 18 C -0.294172 -2.853579 2.376612 0
M  V30 19 C -1.248941 -3.207163 1.324482 0
M  V30 20 C -2.551807 -2.748071 1.406618 0
M  V30 21 Cl -3.101891 -1.743782 2.747753 0
M  V30 22 C -3.415376 -3.108842 0.388969 0
M  V30 23 C -3.021084 -3.896211 -0.681167 0
M  V30 24 C -1.712466 -4.336414 -0.729951 0
M  V30 25 C -0.818038 -3.993044 0.275235 0
M  V30 26 Cl 0.862947 -4.531272 0.256463 0
M  V30 27 H 2.256566 -1.634838 4.888048 0
M  V30 28 H 3.816369 1.685357 -1.083647 0
M  V30 29 H 3.273991 2.424363 -3.302824 0
M  V30 30 H 1.359513 4.028075 -3.640256 0
M  V30 31 H 0.064741 4.815048 -1.648192 0
M  V30 32 H 0.675042 4.015360 0.611166 0
M  V30 33 H 0.751293 0.830363 -0.072286 0
M  V30 34 H -0.500687 -1.227108 0.288941 0
M  V30 35 H -4.439271 -2.751593 0.447827 0
M  V30 36 H -3.702101 -4.179364 -1.481522 0
M  V30 37 H -1.362802 -4.959610 -1.557964 0
M  V30 END ATOM
M  V30 BEGIN BOND
M  V30 1 2 1 2
M  V30 2 1 2 3
M  V30 3 2 3 4
M  V30 4 1 4 5
M  V30 5 1 5 6
M  V30 6 2 6 7
M  V30 7 1 7 8
M  V30 8 1 8 9
M  V30 9 2 9 10
M  V30 10 1 10 11
M  V30 11 2 11 12
M  V30 12 1 12 13
M  V30 13 2 13 14
M  V30 14 1 7 15
M  V30 15 2 15 16
M  V30 16 1 16 17
M  V30 17 2 17 18
M  V30 18 1 18 19
M  V30 19 2 19 20
M  V30 20 1 20 21
M  V30 21 1 20 22
M  V30 22 2 22 23
M  V30 23 1 23 24
M  V30 24 2 24 25
M  V30 25 1 25 26
M  V30 26 1 18 2
M  V30 27 1 25 19
M  V30 28 1 17 5
M  V30 29 1 14 9
M  V30 30 1 4 27
M  V30 31 1 10 28
M  V30 32 1 11 29
M  V30 33 1 12 30
M  V30 34 1 13 31
M  V30 35 1 14 32
M  V30 36 1 15 33
M  V30 37 1 16 34
M  V30 38 1 22 35
M  V30 39 1 23 36
M  V30 40 1 24 37
M  V30 END BOND
M  V30 END CTAB
M  END
>  <Dataset>  (233) 
ChEMBL_Kinases

>  <Ligand_Instance>  (233) 
nan

>  <PDB_ID>  (233) 
nan

>  <Standardized_SMILES>  (233) 
O=c1ncn2nc(Sc3ccccc3)ccc2c1-c1c(Cl)cccc1Cl

>  <Name>  (233) 
nan

>  <Pocket>  (233) 
nan

>  <ATP_Site>  (233) 
nan

>  <Peripheral>  (233) 
nan

>  <Num_H_Atoms_ProtBoundConf>  (233) 
nan

>  <Num_Resolved_Atoms>  (233) 
nan

>  <Num_Not_Resolved_Atoms>  (233) 
nan

$$$$
CHEMBL114057
     RDKit          3D

  0  0  0  0  0  0  0  0  0  0999 V3000
M  V30 BEGIN CTAB
M  V30 COUNTS 37 40 0 0 0
M  V30 BEGIN ATOM
M  V30 1 O 0.136841 -2.494833 4.840916 0
M  V30 2 C 0.519334 -1.721779 3.936033 0
M  V30 3 N 0.978484 -0.482945 4.221952 0
M  V30 4 C 1.390960 0.347371 3.231390 0
M  V30 5 N 1.364429 -0.018241 1.916924 0
M  V30 6 N 1.791804 0.876008 1.040308 0
M  V30 7 C 1.769341 0.523944 -0.260382 0
M  V30 8 S 2.348763 1.731754 -1.469395 0
M  V30 9 C 0.911510 2.688511 -1.943621 0
M  V30 10 C 0.030805 2.414023 -2.986299 0
M  V30 11 C -1.026365 3.279916 -3.193385 0
M  V30 12 C -1.237969 4.391959 -2.414590 0
M  V30 13 Cl -2.618674 5.440202 -2.757280 0
M  V30 14 C -0.367624 4.680479 -1.369094 0
M  V30 15 Cl -0.620915 6.097254 -0.362001 0
M  V30 16 C 0.704739 3.810054 -1.152118 0
M  V30 17 C 1.312767 -0.735425 -0.665976 0
M  V30 18 C 0.871931 -1.651981 0.264105 0
M  V30 19 C 0.913684 -1.248847 1.572443 0
M  V30 20 C 0.496232 -2.083347 2.600715 0
M  V30 21 C -0.003407 -3.425008 2.317772 0
M  V30 22 C 1.008532 -4.391776 2.318796 0
M  V30 23 Cl 2.705205 -4.028056 2.628692 0
M  V30 24 C 0.702594 -5.731491 2.065083 0
M  V30 25 C -0.590749 -6.107890 1.813475 0
M  V30 26 C -1.576504 -5.143349 1.816012 0
M  V30 27 C -1.304276 -3.818586 2.062370 0
M  V30 28 Cl -2.482024 -2.523616 2.087555 0
M  V30 29 H 1.744858 1.325510 3.554730 0
M  V30 30 H 0.277167 1.531455 -3.532902 0
M  V30 31 H -1.689452 3.015777 -4.028656 0
M  V30 32 H 1.344523 4.104228 -0.311867 0
M  V30 33 H 1.312262 -0.971158 -1.700859 0
M  V30 34 H 0.513164 -2.627559 0.007261 0
M  V30 35 H 1.487211 -6.492522 2.064103 0
M  V30 36 H -0.888476 -7.134841 1.609559 0
M  V30 37 H -2.633057 -5.381623 1.621201 0
M  V30 END ATOM
M  V30 BEGIN BOND
M  V30 1 2 1 2
M  V30 2 1 2 3
M  V30 3 2 3 4
M  V30 4 1 4 5
M  V30 5 1 5 6
M  V30 6 2 6 7
M  V30 7 1 7 8
M  V30 8 1 8 9
M  V30 9 2 9 10
M  V30 10 1 10 11
M  V30 11 2 11 12
M  V30 12 1 12 13
M  V30 13 1 12 14
M  V30 14 1 14 15
M  V30 15 2 14 16
M  V30 16 1 7 17
M  V30 17 2 17 18
M  V30 18 1 18 19
M  V30 19 2 19 20
M  V30 20 1 20 21
M  V30 21 2 21 22
M  V30 22 1 22 23
M  V30 23 1 22 24
M  V30 24 2 24 25
M  V30 25 1 25 26
M  V30 26 2 26 27
M  V30 27 1 27 28
M  V30 28 1 20 2
M  V30 29 1 27 21
M  V30 30 1 19 5
M  V30 31 1 16 9
M  V30 32 1 4 29
M  V30 33 1 10 30
M  V30 34 1 11 31
M  V30 35 1 16 32
M  V30 36 1 17 33
M  V30 37 1 18 34
M  V30 38 1 24 35
M  V30 39 1 25 36
M  V30 40 1 26 37
M  V30 END BOND
M  V30 END CTAB
M  END
>  <Dataset>  (234) 
ChEMBL_Kinases

>  <Ligand_Instance>  (234) 
nan

>  <PDB_ID>  (234) 
nan

>  <Standardized_SMILES>  (234) 
O=c1ncn2nc(Sc3ccc(Cl)c(Cl)c3)ccc2c1-c1c(Cl)cccc1Cl

>  <Name>  (234) 
nan

>  <Pocket>  (234) 
nan

>  <ATP_Site>  (234) 
nan

>  <Peripheral>  (234) 
nan

>  <Num_H_Atoms_ProtBoundConf>  (234) 
nan

>  <Num_Resolved_Atoms>  (234) 
nan

>  <Num_Not_Resolved_Atoms>  (234) 
nan

$$$$
CHEMBL114121
     RDKit          3D

  0  0  0  0  0  0  0  0  0  0999 V3000
M  V30 BEGIN CTAB
M  V30 COUNTS 40 43 0 0 0
M  V30 BEGIN ATOM
M  V30 1 C 0.785269 -6.421723 3.318872 0
M  V30 2 C 0.569880 -5.597394 2.090252 0
M  V30 3 C -0.660370 -5.510121 1.470268 0
M  V30 4 C -0.805631 -4.729499 0.330605 0
M  V30 5 C 0.310903 -4.065738 -0.135314 0
M  V30 6 S 0.312433 -3.008855 -1.597952 0
M  V30 7 C -0.081981 -1.321596 -1.096124 0
M  V30 8 C 1.028009 -0.553208 -0.765355 0
M  V30 9 C 0.763204 0.756791 -0.372472 0
M  V30 10 C -0.558171 1.171901 -0.346091 0
M  V30 11 C -0.778649 2.476029 0.048458 0
M  V30 12 C 0.293114 3.392978 0.423122 0
M  V30 13 C 1.008575 4.255913 -0.365295 0
M  V30 14 Cl 0.551397 4.233043 -2.049740 0
M  V30 15 C 1.993314 5.047249 0.190646 0
M  V30 16 C 2.270844 4.981870 1.541372 0
M  V30 17 C 1.553932 4.108566 2.367073 0
M  V30 18 C 0.562897 3.315246 1.794845 0
M  V30 19 Cl -0.267992 2.260056 2.929956 0
M  V30 20 C -2.073130 2.946594 0.094497 0
M  V30 21 O -2.417387 4.106094 0.433536 0
M  V30 22 N -3.104179 2.138011 -0.242713 0
M  V30 23 C -2.876778 0.856686 -0.629507 0
M  V30 24 N -1.610203 0.391764 -0.675976 0
M  V30 25 N -1.346683 -0.861355 -1.050990 0
M  V30 26 C 1.537243 -4.155231 0.486160 0
M  V30 27 C 1.700279 -4.935037 1.631905 0
M  V30 28 H 1.368192 -7.336826 3.075264 0
M  V30 29 H 1.237004 -5.838364 4.142343 0
M  V30 30 H -0.203947 -6.771013 3.677280 0
M  V30 31 H -1.504692 -6.035449 1.854983 0
M  V30 32 H -1.724206 -4.608004 -0.210310 0
M  V30 33 H 2.040635 -0.928871 -0.803750 0
M  V30 34 H 1.578695 1.411014 -0.101116 0
M  V30 35 H 2.520894 5.707143 -0.488303 0
M  V30 36 H 3.047294 5.610036 1.962277 0
M  V30 37 H 1.795204 4.080379 3.422706 0
M  V30 38 H -3.711752 0.220194 -0.896807 0
M  V30 39 H 2.440053 -3.640242 0.139489 0
M  V30 40 H 2.659970 -4.997479 2.107735 0
M  V30 END ATOM
M  V30 BEGIN BOND
M  V30 1 1 1 2
M  V30 2 2 2 3
M  V30 3 1 3 4
M  V30 4 2 4 5
M  V30 5 1 5 6
M  V30 6 1 6 7
M  V30 7 1 7 8
M  V30 8 2 8 9
M  V30 9 1 9 10
M  V30 10 2 10 11
M  V30 11 1 11 12
M  V30 12 2 12 13
M  V30 13 1 13 14
M  V30 14 1 13 15
M  V30 15 2 15 16
M  V30 16 1 16 17
M  V30 17 2 17 18
M  V30 18 1 18 19
M  V30 19 1 11 20
M  V30 20 2 20 21
M  V30 21 1 20 22
M  V30 22 2 22 23
M  V30 23 1 23 24
M  V30 24 1 24 25
M  V30 25 1 5 26
M  V30 26 2 26 27
M  V30 27 1 27 2
M  V30 28 2 25 7
M  V30 29 1 24 10
M  V30 30 1 18 12
M  V30 31 1 1 28
M  V30 32 1 1 29
M  V30 33 1 1 30
M  V30 34 1 3 31
M  V30 35 1 4 32
M  V30 36 1 8 33
M  V30 37 1 9 34
M  V30 38 1 15 35
M  V30 39 1 16 36
M  V30 40 1 17 37
M  V30 41 1 23 38
M  V30 42 1 26 39
M  V30 43 1 27 40
M  V30 END BOND
M  V30 END CTAB
M  END
>  <Dataset>  (235) 
ChEMBL_Kinases

>  <Ligand_Instance>  (235) 
nan

>  <PDB_ID>  (235) 
nan

>  <Standardized_SMILES>  (235) 
Cc1ccc(Sc2ccc3c(-c4c(Cl)cccc4Cl)c(=O)ncn3n2)cc1

>  <Name>  (235) 
nan

>  <Pocket>  (235) 
nan

>  <ATP_Site>  (235) 
nan

>  <Peripheral>  (235) 
nan

>  <Num_H_Atoms_ProtBoundConf>  (235) 
nan

>  <Num_Resolved_Atoms>  (235) 
nan

>  <Num_Not_Resolved_Atoms>  (235) 
nan

$$$$
CHEMBL114138
     RDKit          3D

  0  0  0  0  0  0  0  0  0  0999 V3000
M  V30 BEGIN CTAB
M  V30 COUNTS 66 66 0 0 0
M  V30 BEGIN ATOM
M  V30 1 C 2.018570 -5.068171 0.472762 0
M  V30 2 C 3.269984 -5.127641 -0.314651 0
M  V30 3 C 4.029829 -3.865512 -0.521635 0
M  V30 4 C 4.533982 -3.149582 0.660341 0
M  V30 5 C 3.600527 -2.593702 1.649366 0
M  V30 6 C 2.650424 -1.521182 1.120479 0
M  V30 7 C 3.370218 -0.348834 0.583625 0
M  V30 8 C 2.559555 0.753717 0.034012 0
M  V30 9 C 1.765704 0.600101 -1.200124 0
M  V30 10 C 0.723353 -0.439950 -1.250986 0
M  V30 11 C -0.075216 -0.402688 -2.553596 0
M  V30 12 C -0.780189 0.857522 -2.835676 0
M  V30 13 C -1.818514 1.332167 -1.894978 0
M  V30 14 C -1.414008 1.609211 -0.522316 0
M  V30 15 C -1.896112 1.101118 0.605185 0
M  V30 16 C -1.533439 1.337126 2.032103 0
M  V30 17 O -2.590771 0.847495 2.770569 0
M  V30 18 C -3.242092 -0.104537 2.072097 0
M  V30 19 C -2.632631 -1.455265 2.469252 0
M  V30 20 O -1.295267 -1.448717 2.157489 0
M  V30 21 C -4.710080 -0.120669 2.386259 0
M  V30 22 O -5.291529 1.106301 2.044333 0
M  V30 23 C -5.061164 2.340144 2.556016 0
M  V30 24 C -5.746937 3.558999 2.089897 0
M  V30 25 O -4.257031 2.601024 3.467828 0
M  V30 26 C -2.993301 0.109870 0.596450 0
M  V30 27 H 1.371184 -5.921087 0.090393 0
M  V30 28 H 2.174606 -5.345437 1.538482 0
M  V30 29 H 1.438762 -4.170983 0.290827 0
M  V30 30 H 3.004094 -5.490468 -1.360344 0
M  V30 31 H 3.951683 -5.946161 0.048570 0
M  V30 32 H 3.455447 -3.229089 -1.236668 0
M  V30 33 H 4.942467 -4.167585 -1.127915 0
M  V30 34 H 5.298425 -2.357349 0.402343 0
M  V30 35 H 5.173680 -3.900259 1.229828 0
M  V30 36 H 4.237861 -2.021129 2.396367 0
M  V30 37 H 3.030672 -3.289730 2.273367 0
M  V30 38 H 2.175627 -1.139285 2.102281 0
M  V30 39 H 1.835670 -1.898850 0.568702 0
M  V30 40 H 4.002660 0.101686 1.431161 0
M  V30 41 H 4.178142 -0.682918 -0.133804 0
M  V30 42 H 1.904297 1.215080 0.865374 0
M  V30 43 H 3.233805 1.674328 -0.172941 0
M  V30 44 H 2.544311 0.363257 -2.018735 0
M  V30 45 H 1.386889 1.603022 -1.574209 0
M  V30 46 H 1.313737 -1.421716 -1.422595 0
M  V30 47 H 0.110932 -0.612759 -0.372155 0
M  V30 48 H 0.633667 -0.615712 -3.378207 0
M  V30 49 H -0.774222 -1.255900 -2.514132 0
M  V30 50 H -0.053990 1.681602 -3.077146 0
M  V30 51 H -1.312939 0.704041 -3.829921 0
M  V30 52 H -2.709918 0.664200 -1.953836 0
M  V30 53 H -2.210749 2.308765 -2.320602 0
M  V30 54 H -0.608327 2.331878 -0.441749 0
M  V30 55 H -0.602358 0.861658 2.343030 0
M  V30 56 H -1.404591 2.443610 2.135417 0
M  V30 57 H -2.730756 -1.540275 3.583294 0
M  V30 58 H -3.116894 -2.284872 1.931578 0
M  V30 59 H -1.112985 -2.015589 1.367142 0
M  V30 60 H -5.216679 -0.976110 1.905618 0
M  V30 61 H -4.761029 -0.265430 3.514567 0
M  V30 62 H -4.940557 4.254775 1.725514 0
M  V30 63 H -6.280249 4.109388 2.893913 0
M  V30 64 H -6.491060 3.360309 1.295047 0
M  V30 65 H -3.925269 0.598550 0.204596 0
M  V30 66 H -2.773130 -0.810098 0.040682 0
M  V30 END ATOM
M  V30 BEGIN BOND
M  V30 1 1 1 2
M  V30 2 1 2 3
M  V30 3 1 3 4
M  V30 4 1 4 5
M  V30 5 1 5 6
M  V30 6 1 6 7
M  V30 7 1 7 8
M  V30 8 1 8 9
M  V30 9 1 9 10
M  V30 10 1 10 11
M  V30 11 1 11 12
M  V30 12 1 12 13
M  V30 13 1 13 14
M  V30 14 2 14 15
M  V30 15 1 15 16
M  V30 16 1 16 17
M  V30 17 1 17 18
M  V30 18 1 18 19
M  V30 19 1 19 20
M  V30 20 1 18 21
M  V30 21 1 21 22
M  V30 22 1 22 23
M  V30 23 1 23 24
M  V30 24 2 23 25
M  V30 25 1 18 26
M  V30 26 1 26 15
M  V30 27 1 1 27
M  V30 28 1 1 28
M  V30 29 1 1 29
M  V30 30 1 2 30
M  V30 31 1 2 31
M  V30 32 1 3 32
M  V30 33 1 3 33
M  V30 34 1 4 34
M  V30 35 1 4 35
M  V30 36 1 5 36
M  V30 37 1 5 37
M  V30 38 1 6 38
M  V30 39 1 6 39
M  V30 40 1 7 40
M  V30 41 1 7 41
M  V30 42 1 8 42
M  V30 43 1 8 43
M  V30 44 1 9 44
M  V30 45 1 9 45
M  V30 46 1 10 46
M  V30 47 1 10 47
M  V30 48 1 11 48
M  V30 49 1 11 49
M  V30 50 1 12 50
M  V30 51 1 12 51
M  V30 52 1 13 52
M  V30 53 1 13 53
M  V30 54 1 14 54
M  V30 55 1 16 55
M  V30 56 1 16 56
M  V30 57 1 19 57
M  V30 58 1 19 58
M  V30 59 1 20 59
M  V30 60 1 21 60
M  V30 61 1 21 61
M  V30 62 1 24 62
M  V30 63 1 24 63
M  V30 64 1 24 64
M  V30 65 1 26 65
M  V30 66 1 26 66
M  V30 END BOND
M  V30 END CTAB
M  END
>  <Dataset>  (236) 
ChEMBL_Kinases

>  <Ligand_Instance>  (236) 
nan

>  <PDB_ID>  (236) 
nan

>  <Standardized_SMILES>  (236) 
CCCCCCCCCCCCC/C=C1/COC(CO)(COC(C)=O)C1

>  <Name>  (236) 
nan

>  <Pocket>  (236) 
nan

>  <ATP_Site>  (236) 
nan

>  <Peripheral>  (236) 
nan

>  <Num_H_Atoms_ProtBoundConf>  (236) 
nan

>  <Num_Resolved_Atoms>  (236) 
nan

>  <Num_Not_Resolved_Atoms>  (236) 
nan

$$$$
CHEMBL11417
     RDKit          3D

  0  0  0  0  0  0  0  0  0  0999 V3000
M  V30 BEGIN CTAB
M  V30 COUNTS 59 62 0 0 0
M  V30 BEGIN ATOM
M  V30 1 C 8.467307 -1.603834 1.893006 0
M  V30 2 O 7.875192 -1.219549 0.668982 0
M  V30 3 C 6.484939 -1.073086 0.580474 0
M  V30 4 C 5.686609 -2.114726 0.406127 0
M  V30 5 N 6.205830 -3.436354 0.300166 0
M  V30 6 C 4.237078 -1.915516 0.318949 0
M  V30 7 O 3.444598 -2.873403 0.154232 0
M  V30 8 C 3.663458 -0.566783 0.423792 0
M  V30 9 N 2.327607 -0.360519 0.345933 0
M  V30 10 C 1.769062 0.840696 0.435713 0
M  V30 11 C 0.332439 1.080670 0.354017 0
M  V30 12 N -0.123600 2.330143 0.456806 0
M  V30 13 C -1.446924 2.602883 0.387248 0
M  V30 14 C -1.940255 3.965620 0.499648 0
M  V30 15 O -3.142813 4.332053 0.449482 0
M  V30 16 O -1.026754 4.997221 0.681430 0
M  V30 17 C -2.312861 1.542063 0.205778 0
M  V30 18 C -3.768168 1.825355 0.127449 0
M  V30 19 C -1.860842 0.224955 0.095267 0
M  V30 20 C -2.869136 -0.808249 -0.093839 0
M  V30 21 C -3.278196 -1.189199 -1.355806 0
M  V30 22 C -4.230455 -2.163725 -1.573310 0
M  V30 23 C -4.803978 -2.789733 -0.492324 0
M  V30 24 O -5.767326 -3.784571 -0.434108 0
M  V30 25 C -6.284192 -4.278066 -1.651794 0
M  V30 26 C -4.411581 -2.426918 0.799377 0
M  V30 27 O -4.893452 -2.962176 1.995627 0
M  V30 28 C -4.223760 -4.087300 2.534681 0
M  V30 29 C -3.445021 -1.436887 0.993156 0
M  V30 30 O -3.010772 -1.029703 2.246640 0
M  V30 31 C -0.490562 -0.014393 0.172017 0
M  V30 32 N -0.057095 -1.353347 0.057711 0
M  V30 33 C 2.656642 1.882664 0.616807 0
M  V30 34 C 4.035028 1.774135 0.708591 0
M  V30 35 C 4.540191 0.489270 0.605617 0
M  V30 36 C 6.000816 0.308927 0.695700 0
M  V30 37 O 6.774177 1.288680 0.861379 0
M  V30 38 H 9.575763 -1.667546 1.767857 0
M  V30 39 H 8.313703 -0.793794 2.632632 0
M  V30 40 H 8.054267 -2.556613 2.224375 0
M  V30 41 H 6.284999 -3.927212 1.219891 0
M  V30 42 H 6.459863 -3.803295 -0.656294 0
M  V30 43 H -1.321527 5.826430 1.198908 0
M  V30 44 H -4.012952 2.495514 -0.705453 0
M  V30 45 H -4.333766 0.855021 0.068809 0
M  V30 46 H -4.117758 2.299678 1.068466 0
M  V30 47 H -2.866977 -0.736782 -2.241663 0
M  V30 48 H -4.606364 -2.521235 -2.502681 0
M  V30 49 H -5.660951 -5.099589 -2.064512 0
M  V30 50 H -6.391321 -3.505687 -2.424077 0
M  V30 51 H -7.270873 -4.749616 -1.390398 0
M  V30 52 H -4.794898 -4.998061 2.216556 0
M  V30 53 H -3.188611 -4.159318 2.133268 0
M  V30 54 H -4.129686 -4.036058 3.635123 0
M  V30 55 H -3.409925 -0.261612 2.774984 0
M  V30 56 H -0.408907 -1.924785 0.862961 0
M  V30 57 H 0.488902 -1.310270 -0.829446 0
M  V30 58 H 2.254031 2.903350 0.698507 0
M  V30 59 H 4.638630 2.659246 0.851114 0
M  V30 END ATOM
M  V30 BEGIN BOND
M  V30 1 1 1 2
M  V30 2 1 2 3
M  V30 3 2 3 4
M  V30 4 1 4 5
M  V30 5 1 4 6
M  V30 6 2 6 7
M  V30 7 1 6 8
M  V30 8 2 8 9
M  V30 9 1 9 10
M  V30 10 1 10 11
M  V30 11 2 11 12
M  V30 12 1 12 13
M  V30 13 1 13 14
M  V30 14 2 14 15
M  V30 15 1 14 16
M  V30 16 2 13 17
M  V30 17 1 17 18
M  V30 18 1 17 19
M  V30 19 1 19 20
M  V30 20 2 20 21
M  V30 21 1 21 22
M  V30 22 2 22 23
M  V30 23 1 23 24
M  V30 24 1 24 25
M  V30 25 1 23 26
M  V30 26 1 26 27
M  V30 27 1 27 28
M  V30 28 2 26 29
M  V30 29 1 29 30
M  V30 30 2 19 31
M  V30 31 1 31 32
M  V30 32 2 10 33
M  V30 33 1 33 34
M  V30 34 2 34 35
M  V30 35 1 35 36
M  V30 36 2 36 37
M  V30 37 1 36 3
M  V30 38 1 35 8
M  V30 39 1 31 11
M  V30 40 1 29 20
M  V30 41 1 1 38
M  V30 42 1 1 39
M  V30 43 1 1 40
M  V30 44 1 5 41
M  V30 45 1 5 42
M  V30 46 1 16 43
M  V30 47 1 18 44
M  V30 48 1 18 45
M  V30 49 1 18 46
M  V30 50 1 21 47
M  V30 51 1 22 48
M  V30 52 1 25 49
M  V30 53 1 25 50
M  V30 54 1 25 51
M  V30 55 1 28 52
M  V30 56 1 28 53
M  V30 57 1 28 54
M  V30 58 1 30 55
M  V30 59 1 32 56
M  V30 60 1 32 57
M  V30 61 1 33 58
M  V30 62 1 34 59
M  V30 END BOND
M  V30 END CTAB
M  END
>  <Dataset>  (237) 
ChEMBL_Kinases

>  <Ligand_Instance>  (237) 
nan

>  <PDB_ID>  (237) 
nan

>  <Standardized_SMILES>  (237) 
COC1=C(N)C(=O)c2nc(-c3nc(C(=O)O)c(C)c(-c4ccc(OC)c(OC)c4O)c3N)ccc2C1=O

>  <Name>  (237) 
STREPTONIGRIN

>  <Pocket>  (237) 
nan

>  <ATP_Site>  (237) 
nan

>  <Peripheral>  (237) 
nan

>  <Num_H_Atoms_ProtBoundConf>  (237) 
nan

>  <Num_Resolved_Atoms>  (237) 
nan

>  <Num_Not_Resolved_Atoms>  (237) 
nan

$$$$
CHEMBL114430
     RDKit          3D

  0  0  0  0  0  0  0  0  0  0999 V3000
M  V30 BEGIN CTAB
M  V30 COUNTS 37 40 0 0 0
M  V30 BEGIN ATOM
M  V30 1 O 1.363393 -5.298683 2.444650 0
M  V30 2 C 1.436101 -4.055565 2.582674 0
M  V30 3 N 2.041873 -3.477271 3.647492 0
M  V30 4 C 2.110099 -2.135759 3.778530 0
M  V30 5 N 1.582665 -1.292615 2.863138 0
M  V30 6 N 1.650060 0.022645 2.992518 0
M  V30 7 C 1.097831 0.808042 2.033271 0
M  V30 8 S 1.234821 2.573936 2.288411 0
M  V30 9 C 0.455072 3.440715 0.931926 0
M  V30 10 C 1.213616 3.772807 -0.181140 0
M  V30 11 C 0.667531 4.450288 -1.276958 0
M  V30 12 C -0.691843 4.761431 -1.158102 0
M  V30 13 C -1.454728 4.435637 -0.055637 0
M  V30 14 Cl -3.150357 4.873643 -0.010654 0
M  V30 15 C -0.874046 3.767681 1.001051 0
M  V30 16 C 0.453470 0.333365 0.901843 0
M  V30 17 C 0.405924 -1.049019 0.806605 0
M  V30 18 C 0.971559 -1.822249 1.789413 0
M  V30 19 C 0.897901 -3.194055 1.648609 0
M  V30 20 C 0.227762 -3.764678 0.471260 0
M  V30 21 C 0.961563 -4.023386 -0.669736 0
M  V30 22 Cl 2.673562 -3.649573 -0.643411 0
M  V30 23 C 0.286300 -4.566468 -1.768345 0
M  V30 24 C -1.065463 -4.813650 -1.657192 0
M  V30 25 C -1.770736 -4.543126 -0.500387 0
M  V30 26 C -1.136115 -4.010132 0.594259 0
M  V30 27 Cl -2.038812 -3.675769 2.042242 0
M  V30 28 H 2.589830 -1.650449 4.622042 0
M  V30 29 H 2.271742 3.510957 -0.232947 0
M  V30 30 H 1.252741 4.704715 -2.132009 0
M  V30 31 H -1.128186 5.278799 -1.984098 0
M  V30 32 H -1.444892 3.501039 1.873333 0
M  V30 33 H 0.047620 1.040021 0.197987 0
M  V30 34 H -0.099215 -1.445661 -0.080561 0
M  V30 35 H 0.887662 -4.759239 -2.650492 0
M  V30 36 H -1.498598 -5.234228 -2.560529 0
M  V30 37 H -2.830060 -4.770574 -0.506088 0
M  V30 END ATOM
M  V30 BEGIN BOND
M  V30 1 2 1 2
M  V30 2 1 2 3
M  V30 3 2 3 4
M  V30 4 1 4 5
M  V30 5 1 5 6
M  V30 6 2 6 7
M  V30 7 1 7 8
M  V30 8 1 8 9
M  V30 9 2 9 10
M  V30 10 1 10 11
M  V30 11 2 11 12
M  V30 12 1 12 13
M  V30 13 1 13 14
M  V30 14 2 13 15
M  V30 15 1 7 16
M  V30 16 2 16 17
M  V30 17 1 17 18
M  V30 18 2 18 19
M  V30 19 1 19 20
M  V30 20 2 20 21
M  V30 21 1 21 22
M  V30 22 1 21 23
M  V30 23 2 23 24
M  V30 24 1 24 25
M  V30 25 2 25 26
M  V30 26 1 26 27
M  V30 27 1 19 2
M  V30 28 1 26 20
M  V30 29 1 18 5
M  V30 30 1 15 9
M  V30 31 1 4 28
M  V30 32 1 10 29
M  V30 33 1 11 30
M  V30 34 1 12 31
M  V30 35 1 15 32
M  V30 36 1 16 33
M  V30 37 1 17 34
M  V30 38 1 23 35
M  V30 39 1 24 36
M  V30 40 1 25 37
M  V30 END BOND
M  V30 END CTAB
M  END
>  <Dataset>  (238) 
ChEMBL_Kinases

>  <Ligand_Instance>  (238) 
nan

>  <PDB_ID>  (238) 
nan

>  <Standardized_SMILES>  (238) 
O=c1ncn2nc(Sc3cccc(Cl)c3)ccc2c1-c1c(Cl)cccc1Cl

>  <Name>  (238) 
nan

>  <Pocket>  (238) 
nan

>  <ATP_Site>  (238) 
nan

>  <Peripheral>  (238) 
nan

>  <Num_H_Atoms_ProtBoundConf>  (238) 
nan

>  <Num_Resolved_Atoms>  (238) 
nan

>  <Num_Not_Resolved_Atoms>  (238) 
nan

$$$$
CHEMBL112543
     RDKit          3D

  0  0  0  0  0  0  0  0  0  0999 V3000
M  V30 BEGIN CTAB
M  V30 COUNTS 53 56 0 0 0
M  V30 BEGIN ATOM
M  V30 1 O 0.910100 -2.690677 -0.301884 0
M  V30 2 C 0.914460 -1.426196 -0.390046 0
M  V30 3 O 1.985336 -0.610121 -0.756693 0
M  V30 4 C 1.823594 0.570826 0.043767 0
M  V30 5 C 2.075536 0.242074 1.505841 0
M  V30 6 O 1.196210 -0.727677 1.973943 0
M  V30 7 C 2.794616 1.587605 -0.425958 0
M  V30 8 O 2.625118 2.759564 0.375786 0
M  V30 9 C 3.456077 3.871096 0.189375 0
M  V30 10 O 4.275568 3.576613 -0.750679 0
M  V30 11 C 3.431293 5.138304 0.906993 0
M  V30 12 C 2.510390 5.375281 1.903172 0
M  V30 13 C 2.610134 6.627585 2.503109 0
M  V30 14 C 3.560890 7.556862 2.124317 0
M  V30 15 C 4.461638 7.269157 1.118370 0
M  V30 16 C 4.391681 6.038772 0.503102 0
M  V30 17 C 0.376800 0.880767 -0.120081 0
M  V30 18 C -0.209569 -0.501038 -0.126783 0
M  V30 19 C -1.433019 -0.952266 0.045278 0
M  V30 20 C -1.953158 -2.284684 0.024718 0
M  V30 21 C -2.728370 -2.586409 1.144940 0
M  V30 22 C -3.343778 -3.815265 1.323181 0
M  V30 23 C -3.190710 -4.788538 0.359947 0
M  V30 24 C -3.765606 -6.149268 0.390914 0
M  V30 25 C -4.109979 -6.780948 -0.797013 0
M  V30 26 C -4.649908 -8.063477 -0.811240 0
M  V30 27 C -4.856569 -8.741402 0.372960 0
M  V30 28 C -4.515348 -8.120365 1.580850 0
M  V30 29 C -3.981542 -6.848555 1.565098 0
M  V30 30 C -2.427281 -4.520028 -0.765681 0
M  V30 31 C -1.830763 -3.288183 -0.909726 0
M  V30 32 H 1.937802 1.129707 2.150317 0
M  V30 33 H 3.128789 -0.099773 1.649723 0
M  V30 34 H 0.942797 -0.565141 2.931188 0
M  V30 35 H 2.687243 1.852991 -1.501888 0
M  V30 36 H 3.818194 1.188372 -0.223450 0
M  V30 37 H 1.784558 4.628170 2.169832 0
M  V30 38 H 1.889924 6.851954 3.304913 0
M  V30 39 H 3.608220 8.512679 2.609734 0
M  V30 40 H 5.181942 8.038309 0.867495 0
M  V30 41 H 5.113278 5.851765 -0.277766 0
M  V30 42 H 0.197734 1.415446 -1.076206 0
M  V30 43 H -0.075916 1.475382 0.692389 0
M  V30 44 H -2.149392 -0.134029 0.233662 0
M  V30 45 H -2.927125 -1.910670 1.972468 0
M  V30 46 H -3.948781 -4.079556 2.177691 0
M  V30 47 H -3.974431 -6.300829 -1.773677 0
M  V30 48 H -4.926275 -8.575196 -1.728268 0
M  V30 49 H -5.272238 -9.741220 0.460284 0
M  V30 50 H -4.654468 -8.606891 2.556517 0
M  V30 51 H -3.683955 -6.279917 2.440877 0
M  V30 52 H -2.246205 -5.219299 -1.584887 0
M  V30 53 H -1.249472 -3.045642 -1.783222 0
M  V30 END ATOM
M  V30 BEGIN BOND
M  V30 1 2 1 2
M  V30 2 1 2 3
M  V30 3 1 3 4
M  V30 4 1 4 5
M  V30 5 1 5 6
M  V30 6 1 4 7
M  V30 7 1 7 8
M  V30 8 1 8 9
M  V30 9 2 9 10
M  V30 10 1 9 11
M  V30 11 2 11 12
M  V30 12 1 12 13
M  V30 13 2 13 14
M  V30 14 1 14 15
M  V30 15 2 15 16
M  V30 16 1 4 17
M  V30 17 1 17 18
M  V30 18 2 18 19
M  V30 19 1 19 20
M  V30 20 2 20 21
M  V30 21 1 21 22
M  V30 22 2 22 23
M  V30 23 1 23 24
M  V30 24 2 24 25
M  V30 25 1 25 26
M  V30 26 2 26 27
M  V30 27 1 27 28
M  V30 28 2 28 29
M  V30 29 1 23 30
M  V30 30 2 30 31
M  V30 31 1 18 2
M  V30 32 1 31 20
M  V30 33 1 16 11
M  V30 34 1 29 24
M  V30 35 1 5 32
M  V30 36 1 5 33
M  V30 37 1 6 34
M  V30 38 1 7 35
M  V30 39 1 7 36
M  V30 40 1 12 37
M  V30 41 1 13 38
M  V30 42 1 14 39
M  V30 43 1 15 40
M  V30 44 1 16 41
M  V30 45 1 17 42
M  V30 46 1 17 43
M  V30 47 1 19 44
M  V30 48 1 21 45
M  V30 49 1 22 46
M  V30 50 1 25 47
M  V30 51 1 26 48
M  V30 52 1 27 49
M  V30 53 1 28 50
M  V30 54 1 29 51
M  V30 55 1 30 52
M  V30 56 1 31 53
M  V30 END BOND
M  V30 END CTAB
M  END
>  <Dataset>  (239) 
ChEMBL_Kinases

>  <Ligand_Instance>  (239) 
nan

>  <PDB_ID>  (239) 
nan

>  <Standardized_SMILES>  (239) 
O=C1OC(CO)(COC(=O)c2ccccc2)C/C1=C/c1ccc(-c2ccccc2)cc1

>  <Name>  (239) 
nan

>  <Pocket>  (239) 
nan

>  <ATP_Site>  (239) 
nan

>  <Peripheral>  (239) 
nan

>  <Num_H_Atoms_ProtBoundConf>  (239) 
nan

>  <Num_Resolved_Atoms>  (239) 
nan

>  <Num_Not_Resolved_Atoms>  (239) 
nan

$$$$
CHEMBL1093746
     RDKit          3D

  0  0  0  0  0  0  0  0  0  0999 V3000
M  V30 BEGIN CTAB
M  V30 COUNTS 48 51 0 0 0
M  V30 BEGIN ATOM
M  V30 1 C 3.071843 -5.257777 4.237107 0
M  V30 2 C 1.801372 -5.594271 3.487311 0
M  V30 3 C 1.930911 -5.210383 2.031116 0
M  V30 4 C 2.182390 -3.773738 1.842375 0
M  V30 5 O 2.298111 -2.899239 2.739360 0
M  V30 6 N 2.299970 -3.383753 0.459461 0
M  V30 7 C 2.548150 -1.980417 0.216511 0
M  V30 8 N 3.744908 -1.334440 0.108338 0
M  V30 9 N 3.510310 -0.043396 -0.116464 0
M  V30 10 C 2.186881 0.203045 -0.163365 0
M  V30 11 C 1.483136 1.381787 -0.369567 0
M  V30 12 C 0.088866 1.342324 -0.366653 0
M  V30 13 C -0.559727 2.624701 -0.592420 0
M  V30 14 C -1.263927 3.139756 -1.659769 0
M  V30 15 C -1.789480 4.413186 -1.599881 0
M  V30 16 C -1.626266 5.201669 -0.478166 0
M  V30 17 C -0.929562 4.715885 0.600394 0
M  V30 18 C -0.401958 3.436104 0.538940 0
M  V30 19 C -0.547654 0.138350 -0.159742 0
M  V30 20 C -1.984010 0.080583 -0.151589 0
M  V30 21 C -2.935210 0.218790 -1.139818 0
M  V30 22 C -4.280252 0.124537 -0.857606 0
M  V30 23 C -4.733588 -0.113692 0.432991 0
M  V30 24 C -3.802739 -0.255321 1.433984 0
M  V30 25 C -2.444711 -0.159250 1.144755 0
M  V30 26 C 0.169606 -1.026053 0.043867 0
M  V30 27 C 1.563518 -1.020502 0.046862 0
M  V30 28 H 3.985991 -5.474288 3.651338 0
M  V30 29 H 2.996723 -4.186366 4.557809 0
M  V30 30 H 3.068237 -5.874890 5.171470 0
M  V30 31 H 0.983425 -5.002779 3.978202 0
M  V30 32 H 1.638164 -6.681168 3.618149 0
M  V30 33 H 2.853034 -5.744996 1.663765 0
M  V30 34 H 1.093005 -5.593854 1.433141 0
M  V30 35 H 2.217999 -4.043223 -0.362612 0
M  V30 36 H 4.326265 0.617497 -0.228625 0
M  V30 37 H 2.066372 2.275225 -0.522699 0
M  V30 38 H -1.312270 2.425878 -2.466780 0
M  V30 39 H -2.308082 4.654903 -2.518832 0
M  V30 40 H -2.094723 6.171813 -0.583093 0
M  V30 41 H -0.837764 5.378809 1.442185 0
M  V30 42 H 0.127239 3.186306 1.473358 0
M  V30 43 H -2.476681 0.395381 -2.101483 0
M  V30 44 H -4.954468 0.248445 -1.708950 0
M  V30 45 H -5.796660 -0.180736 0.614352 0
M  V30 46 H -4.214748 -0.439141 2.415178 0
M  V30 47 H -1.850022 -0.296644 2.054933 0
M  V30 48 H -0.347900 -1.971867 0.205586 0
M  V30 END ATOM
M  V30 BEGIN BOND
M  V30 1 1 1 2
M  V30 2 1 2 3
M  V30 3 1 3 4
M  V30 4 2 4 5
M  V30 5 1 4 6
M  V30 6 1 6 7
M  V30 7 2 7 8
M  V30 8 1 8 9
M  V30 9 1 9 10
M  V30 10 2 10 11
M  V30 11 1 11 12
M  V30 12 1 12 13
M  V30 13 2 13 14
M  V30 14 1 14 15
M  V30 15 2 15 16
M  V30 16 1 16 17
M  V30 17 2 17 18
M  V30 18 2 12 19
M  V30 19 1 19 20
M  V30 20 2 20 21
M  V30 21 1 21 22
M  V30 22 2 22 23
M  V30 23 1 23 24
M  V30 24 2 24 25
M  V30 25 1 19 26
M  V30 26 2 26 27
M  V30 27 1 27 7
M  V30 28 1 27 10
M  V30 29 1 18 13
M  V30 30 1 25 20
M  V30 31 1 1 28
M  V30 32 1 1 29
M  V30 33 1 1 30
M  V30 34 1 2 31
M  V30 35 1 2 32
M  V30 36 1 3 33
M  V30 37 1 3 34
M  V30 38 1 6 35
M  V30 39 1 9 36
M  V30 40 1 11 37
M  V30 41 1 14 38
M  V30 42 1 15 39
M  V30 43 1 16 40
M  V30 44 1 17 41
M  V30 45 1 18 42
M  V30 46 1 21 43
M  V30 47 1 22 44
M  V30 48 1 23 45
M  V30 49 1 24 46
M  V30 50 1 25 47
M  V30 51 1 26 48
M  V30 END BOND
M  V30 END CTAB
M  END
>  <Dataset>  (240) 
ChEMBL_Kinases

>  <Ligand_Instance>  (240) 
nan

>  <PDB_ID>  (240) 
nan

>  <Standardized_SMILES>  (240) 
CCCC(=O)Nc1n[nH]c2cc(-c3ccccc3)c(-c3ccccc3)cc12

>  <Name>  (240) 
nan

>  <Pocket>  (240) 
nan

>  <ATP_Site>  (240) 
nan

>  <Peripheral>  (240) 
nan

>  <Num_H_Atoms_ProtBoundConf>  (240) 
nan

>  <Num_Resolved_Atoms>  (240) 
nan

>  <Num_Not_Resolved_Atoms>  (240) 
nan

$$$$
CHEMBL1093745
     RDKit          3D

  0  0  0  0  0  0  0  0  0  0999 V3000
M  V30 BEGIN CTAB
M  V30 COUNTS 49 52 0 0 0
M  V30 BEGIN ATOM
M  V30 1 C 3.218703 -6.269802 3.989742 0
M  V30 2 C 3.168947 -4.951705 3.296954 0
M  V30 3 C 2.872040 -5.043226 1.828195 0
M  V30 4 C 2.834983 -3.690835 1.189889 0
M  V30 5 O 3.054251 -2.858673 2.110607 0
M  V30 6 N 2.593071 -3.478801 -0.193403 0
M  V30 7 C 2.637502 -2.050092 -0.419004 0
M  V30 8 N 3.734002 -1.317819 -0.739154 0
M  V30 9 N 3.410672 -0.049599 -0.868832 0
M  V30 10 C 2.085225 0.122133 -0.641425 0
M  V30 11 C 1.192023 1.183008 -0.631251 0
M  V30 12 C -0.150695 0.965006 -0.342004 0
M  V30 13 C -0.924003 2.210121 -0.380049 0
M  V30 14 C -1.974825 2.468137 -1.253309 0
M  V30 15 C -2.594952 3.695654 -1.152433 0
M  V30 16 C -2.195248 4.635464 -0.225886 0
M  V30 17 O -2.791517 5.882545 -0.090653 0
M  V30 18 C -1.149058 4.388239 0.648829 0
M  V30 19 C -0.517217 3.159449 0.558919 0
M  V30 20 C -0.631595 -0.299632 -0.059188 0
M  V30 21 C -2.049257 -0.336264 0.217005 0
M  V30 22 C -2.439308 0.378217 1.336409 0
M  V30 23 C -3.770668 0.451008 1.749960 0
M  V30 24 C -4.750886 -0.220877 1.010017 0
M  V30 25 C -4.353797 -0.935452 -0.111074 0
M  V30 26 C -3.034042 -0.998854 -0.508830 0
M  V30 27 C 0.261074 -1.354400 -0.070132 0
M  V30 28 C 1.596859 -1.141921 -0.357243 0
M  V30 29 H 4.248161 -6.525064 4.235517 0
M  V30 30 H 2.842358 -7.050179 3.285947 0
M  V30 31 H 2.577086 -6.226331 4.906196 0
M  V30 32 H 4.178552 -4.447289 3.351378 0
M  V30 33 H 2.452653 -4.221154 3.737265 0
M  V30 34 H 3.669227 -5.619322 1.332630 0
M  V30 35 H 1.928933 -5.602743 1.666965 0
M  V30 36 H 2.430819 -4.309511 -0.803257 0
M  V30 37 H 4.046724 0.760189 -1.112318 0
M  V30 38 H 1.640687 2.138780 -0.861643 0
M  V30 39 H -2.236043 1.701607 -1.945984 0
M  V30 40 H -3.419943 3.925983 -1.822465 0
M  V30 41 H -3.052174 6.309031 0.775123 0
M  V30 42 H -0.823801 5.106792 1.377164 0
M  V30 43 H 0.301939 2.977669 1.250044 0
M  V30 44 H -1.741241 0.931571 1.972453 0
M  V30 45 H -4.058380 1.008990 2.620955 0
M  V30 46 H -5.789099 -0.177040 1.312969 0
M  V30 47 H -5.097818 -1.475284 -0.716082 0
M  V30 48 H -2.663139 -1.535561 -1.368358 0
M  V30 49 H -0.174882 -2.319615 0.158445 0
M  V30 END ATOM
M  V30 BEGIN BOND
M  V30 1 1 1 2
M  V30 2 1 2 3
M  V30 3 1 3 4
M  V30 4 2 4 5
M  V30 5 1 4 6
M  V30 6 1 6 7
M  V30 7 2 7 8
M  V30 8 1 8 9
M  V30 9 1 9 10
M  V30 10 2 10 11
M  V30 11 1 11 12
M  V30 12 1 12 13
M  V30 13 2 13 14
M  V30 14 1 14 15
M  V30 15 2 15 16
M  V30 16 1 16 17
M  V30 17 1 16 18
M  V30 18 2 18 19
M  V30 19 2 12 20
M  V30 20 1 20 21
M  V30 21 2 21 22
M  V30 22 1 22 23
M  V30 23 2 23 24
M  V30 24 1 24 25
M  V30 25 2 25 26
M  V30 26 1 20 27
M  V30 27 2 27 28
M  V30 28 1 28 7
M  V30 29 1 28 10
M  V30 30 1 19 13
M  V30 31 1 26 21
M  V30 32 1 1 29
M  V30 33 1 1 30
M  V30 34 1 1 31
M  V30 35 1 2 32
M  V30 36 1 2 33
M  V30 37 1 3 34
M  V30 38 1 3 35
M  V30 39 1 6 36
M  V30 40 1 9 37
M  V30 41 1 11 38
M  V30 42 1 14 39
M  V30 43 1 15 40
M  V30 44 1 17 41
M  V30 45 1 18 42
M  V30 46 1 19 43
M  V30 47 1 22 44
M  V30 48 1 23 45
M  V30 49 1 24 46
M  V30 50 1 25 47
M  V30 51 1 26 48
M  V30 52 1 27 49
M  V30 END BOND
M  V30 END CTAB
M  END
>  <Dataset>  (241) 
ChEMBL_Kinases

>  <Ligand_Instance>  (241) 
nan

>  <PDB_ID>  (241) 
nan

>  <Standardized_SMILES>  (241) 
CCCC(=O)Nc1n[nH]c2cc(-c3ccc(O)cc3)c(-c3ccccc3)cc12

>  <Name>  (241) 
nan

>  <Pocket>  (241) 
nan

>  <ATP_Site>  (241) 
nan

>  <Peripheral>  (241) 
nan

>  <Num_H_Atoms_ProtBoundConf>  (241) 
nan

>  <Num_Resolved_Atoms>  (241) 
nan

>  <Num_Not_Resolved_Atoms>  (241) 
nan

$$$$
CHEMBL1093549
     RDKit          3D

  0  0  0  0  0  0  0  0  0  0999 V3000
M  V30 BEGIN CTAB
M  V30 COUNTS 60 63 0 0 0
M  V30 BEGIN ATOM
M  V30 1 C 3.049577 -2.795674 0.935993 0
M  V30 2 C 2.159890 -3.531200 1.889946 0 CFG=2
M  V30 3 N 2.157055 -2.821568 3.158243 0
M  V30 4 C 1.632034 -1.491364 3.192517 0
M  V30 5 N 1.637183 -0.776617 4.335246 0
M  V30 6 C 1.144800 0.470206 4.414036 0
M  V30 7 C 0.600152 1.091511 3.311240 0
M  V30 8 C 0.587463 0.371414 2.131883 0
M  V30 9 N 0.100853 0.689137 0.809340 0
M  V30 10 C 1.048269 1.342374 -0.081258 0
M  V30 11 C 0.980451 2.843004 0.041785 0
M  V30 12 C -0.349392 3.434908 -0.290943 0
M  V30 13 C -0.730957 3.126563 -1.716322 0
M  V30 14 O 0.267512 3.694208 -2.541273 0
M  V30 15 C -1.230422 0.211746 0.865047 0
M  V30 16 O -1.311083 -0.214562 2.065780 0
M  V30 17 C -2.181361 0.242833 -0.218725 0
M  V30 18 C -1.717776 -0.575700 -1.257045 0
M  V30 19 C -2.441892 -0.735452 -2.435523 0
M  V30 20 C -3.647607 -0.068679 -2.582150 0
M  V30 21 C -4.108446 0.738575 -1.562582 0
M  V30 22 C -3.385092 0.890985 -0.399881 0
M  V30 23 C -5.406438 1.346143 -1.928481 0
M  V30 24 C -5.469866 1.092362 -3.425856 0
M  V30 25 O -4.604724 -0.001009 -3.596374 0
M  V30 26 N 1.105226 -0.889736 2.126749 0
M  V30 27 C 2.452069 -4.971068 2.018010 0
M  V30 28 C 3.421759 -5.548118 2.803458 0
M  V30 29 C 3.605630 -6.933566 2.835833 0
M  V30 30 C 2.801271 -7.773801 2.063227 0
M  V30 31 C 1.810712 -7.220988 1.257638 0
M  V30 32 C 1.689471 -5.852678 1.278231 0
M  V30 33 H 3.401570 -3.451071 0.096014 0
M  V30 34 H 2.485075 -1.941538 0.514028 0
M  V30 35 H 3.972074 -2.494320 1.486768 0
M  V30 36 H 1.104424 -3.389542 1.497959 0
M  V30 37 H 2.515788 -3.227700 4.048940 0
M  V30 38 H 1.124917 1.091230 5.308452 0
M  V30 39 H 0.167559 2.054286 3.168592 0
M  V30 40 H 2.083767 1.030398 0.162728 0
M  V30 41 H 0.900941 1.058966 -1.142156 0
M  V30 42 H 1.707941 3.262281 -0.715269 0
M  V30 43 H 1.374181 3.199127 1.016681 0
M  V30 44 H -0.244300 4.537547 -0.227449 0
M  V30 45 H -1.145770 3.166085 0.429553 0
M  V30 46 H -0.700300 2.036174 -1.943093 0
M  V30 47 H -1.736079 3.544676 -1.944726 0
M  V30 48 H -0.243958 4.078571 -3.306450 0
M  V30 49 H -0.790923 -1.168153 -1.298712 0
M  V30 50 H -2.146173 -1.345453 -3.270877 0
M  V30 51 H -3.627659 1.487708 0.472766 0
M  V30 52 H -5.470629 2.408430 -1.684383 0
M  V30 53 H -6.259842 0.792142 -1.454742 0
M  V30 54 H -6.516955 0.883815 -3.730024 0
M  V30 55 H -5.128717 2.012798 -3.979149 0
M  V30 56 H 4.037715 -4.860052 3.399079 0
M  V30 57 H 4.395166 -7.347549 3.482003 0
M  V30 58 H 2.955536 -8.849317 2.098102 0
M  V30 59 H 1.177947 -7.847949 0.652518 0
M  V30 60 H 0.897058 -5.450744 0.629925 0
M  V30 END ATOM
M  V30 BEGIN BOND
M  V30 1 1 1 2
M  V30 2 1 2 3
M  V30 3 1 3 4
M  V30 4 2 4 5
M  V30 5 1 5 6
M  V30 6 2 6 7
M  V30 7 1 7 8
M  V30 8 1 8 9
M  V30 9 1 9 10
M  V30 10 1 10 11
M  V30 11 1 11 12
M  V30 12 1 12 13
M  V30 13 1 13 14
M  V30 14 1 9 15
M  V30 15 2 15 16
M  V30 16 1 15 17
M  V30 17 2 17 18
M  V30 18 1 18 19
M  V30 19 2 19 20
M  V30 20 1 20 21
M  V30 21 2 21 22
M  V30 22 1 21 23
M  V30 23 1 23 24
M  V30 24 1 24 25
M  V30 25 2 8 26
M  V30 26 1 2 27
M  V30 27 2 27 28
M  V30 28 1 28 29
M  V30 29 2 29 30
M  V30 30 1 30 31
M  V30 31 2 31 32
M  V30 32 1 26 4
M  V30 33 1 32 27
M  V30 34 1 22 17
M  V30 35 1 25 20
M  V30 36 1 1 33
M  V30 37 1 1 34
M  V30 38 1 1 35
M  V30 39 1 2 36 CFG=3
M  V30 40 1 3 37
M  V30 41 1 6 38
M  V30 42 1 7 39
M  V30 43 1 10 40
M  V30 44 1 10 41
M  V30 45 1 11 42
M  V30 46 1 11 43
M  V30 47 1 12 44
M  V30 48 1 12 45
M  V30 49 1 13 46
M  V30 50 1 13 47
M  V30 51 1 14 48
M  V30 52 1 18 49
M  V30 53 1 19 50
M  V30 54 1 22 51
M  V30 55 1 23 52
M  V30 56 1 23 53
M  V30 57 1 24 54
M  V30 58 1 24 55
M  V30 59 1 28 56
M  V30 60 1 29 57
M  V30 61 1 30 58
M  V30 62 1 31 59
M  V30 63 1 32 60
M  V30 END BOND
M  V30 END CTAB
M  END
>  <Dataset>  (242) 
ChEMBL_Kinases

>  <Ligand_Instance>  (242) 
nan

>  <PDB_ID>  (242) 
nan

>  <Standardized_SMILES>  (242) 
C[C@H](Nc1nccc(N(CCCCO)C(=O)c2ccc3c(c2)CCO3)n1)c1ccccc1

>  <Name>  (242) 
nan

>  <Pocket>  (242) 
nan

>  <ATP_Site>  (242) 
nan

>  <Peripheral>  (242) 
nan

>  <Num_H_Atoms_ProtBoundConf>  (242) 
nan

>  <Num_Resolved_Atoms>  (242) 
nan

>  <Num_Not_Resolved_Atoms>  (242) 
nan

$$$$
CHEMBL1093548
     RDKit          3D

  0  0  0  0  0  0  0  0  0  0999 V3000
M  V30 BEGIN CTAB
M  V30 COUNTS 61 64 0 0 0
M  V30 BEGIN ATOM
M  V30 1 C 1.046959 -4.449728 2.053493 0
M  V30 2 C 2.079435 -4.001149 3.061072 0 CFG=2
M  V30 3 N 1.367270 -3.216084 4.074580 0
M  V30 4 C 0.648574 -2.029117 3.882963 0
M  V30 5 N -0.009157 -1.316766 4.830234 0
M  V30 6 C -0.650187 -0.201605 4.511163 0
M  V30 7 C -0.677704 0.279550 3.219016 0
M  V30 8 C -0.008551 -0.439206 2.238335 0
M  V30 9 N 0.048886 -0.048794 0.848996 0
M  V30 10 C 1.131661 0.788377 0.438185 0
M  V30 11 C 0.900252 2.252778 0.531527 0
M  V30 12 C -0.223461 2.809814 -0.266190 0
M  V30 13 C -0.117938 2.613053 -1.749197 0
M  V30 14 N -0.069507 1.232772 -2.167081 0
M  V30 15 C -1.124364 -0.740931 0.458518 0
M  V30 16 O -1.486882 -1.257874 1.553731 0
M  V30 17 C -2.020997 -1.070333 -0.641971 0
M  V30 18 C -1.655711 -2.177144 -1.388456 0
M  V30 19 C -2.480490 -2.520530 -2.441304 0
M  V30 20 C -3.601395 -1.756598 -2.686380 0
M  V30 21 C -3.976865 -0.651480 -1.950572 0
M  V30 22 C -3.146228 -0.316774 -0.901003 0
M  V30 23 C -5.236327 -0.125572 -2.545021 0
M  V30 24 C -5.215018 -0.741034 -3.941427 0
M  V30 25 O -4.532855 -1.958275 -3.696090 0
M  V30 26 N 0.612745 -1.550473 2.637267 0
M  V30 27 C 3.009474 -3.018102 2.411763 0
M  V30 28 C 3.776931 -2.117636 3.117541 0
M  V30 29 C 4.624299 -1.221493 2.495348 0
M  V30 30 C 4.681473 -1.254597 1.112766 0
M  V30 31 C 3.928080 -2.140230 0.394124 0
M  V30 32 C 3.090430 -3.024713 1.031944 0
M  V30 33 H 1.457527 -5.207794 1.350007 0
M  V30 34 H 0.132181 -4.816152 2.571931 0
M  V30 35 H 0.793608 -3.575288 1.423112 0
M  V30 36 H 2.608888 -4.813384 3.564217 0
M  V30 37 H 1.363131 -3.540539 5.087205 0
M  V30 38 H -1.166414 0.353719 5.265900 0
M  V30 39 H -1.182048 1.178239 2.903469 0
M  V30 40 H 1.495750 0.484409 -0.574847 0
M  V30 41 H 2.011376 0.553286 1.106424 0
M  V30 42 H 1.843815 2.743658 0.143460 0
M  V30 43 H 0.868067 2.593158 1.598518 0
M  V30 44 H -0.187619 3.929638 -0.111306 0
M  V30 45 H -1.225291 2.529007 0.115628 0
M  V30 46 H -0.960033 3.154543 -2.265378 0
M  V30 47 H 0.805792 3.110192 -2.166371 0
M  V30 48 H 0.464994 1.200796 -3.078285 0
M  V30 49 H -1.063006 0.979041 -2.445916 0
M  V30 50 H -0.774652 -2.770756 -1.187857 0
M  V30 51 H -2.223483 -3.385975 -3.050533 0
M  V30 52 H -3.400637 0.542736 -0.295961 0
M  V30 53 H -6.134823 -0.531183 -2.045800 0
M  V30 54 H -5.231826 0.983709 -2.593171 0
M  V30 55 H -4.608312 -0.058930 -4.582518 0
M  V30 56 H -6.241939 -0.911725 -4.319959 0
M  V30 57 H 3.694236 -2.134373 4.205366 0
M  V30 58 H 5.227391 -0.515538 3.026687 0
M  V30 59 H 5.339774 -0.562947 0.568347 0
M  V30 60 H 4.013008 -2.121052 -0.698871 0
M  V30 61 H 2.539899 -3.681215 0.394060 0
M  V30 END ATOM
M  V30 BEGIN BOND
M  V30 1 1 1 2
M  V30 2 1 2 3
M  V30 3 1 3 4
M  V30 4 2 4 5
M  V30 5 1 5 6
M  V30 6 2 6 7
M  V30 7 1 7 8
M  V30 8 1 8 9
M  V30 9 1 9 10
M  V30 10 1 10 11
M  V30 11 1 11 12
M  V30 12 1 12 13
M  V30 13 1 13 14
M  V30 14 1 9 15
M  V30 15 2 15 16
M  V30 16 1 15 17
M  V30 17 2 17 18
M  V30 18 1 18 19
M  V30 19 2 19 20
M  V30 20 1 20 21
M  V30 21 2 21 22
M  V30 22 1 21 23
M  V30 23 1 23 24
M  V30 24 1 24 25
M  V30 25 2 8 26
M  V30 26 1 2 27
M  V30 27 2 27 28
M  V30 28 1 28 29
M  V30 29 2 29 30
M  V30 30 1 30 31
M  V30 31 2 31 32
M  V30 32 1 26 4
M  V30 33 1 32 27
M  V30 34 1 22 17
M  V30 35 1 25 20
M  V30 36 1 1 33
M  V30 37 1 1 34
M  V30 38 1 1 35
M  V30 39 1 2 36 CFG=1
M  V30 40 1 3 37
M  V30 41 1 6 38
M  V30 42 1 7 39
M  V30 43 1 10 40
M  V30 44 1 10 41
M  V30 45 1 11 42
M  V30 46 1 11 43
M  V30 47 1 12 44
M  V30 48 1 12 45
M  V30 49 1 13 46
M  V30 50 1 13 47
M  V30 51 1 14 48
M  V30 52 1 14 49
M  V30 53 1 18 50
M  V30 54 1 19 51
M  V30 55 1 22 52
M  V30 56 1 23 53
M  V30 57 1 23 54
M  V30 58 1 24 55
M  V30 59 1 24 56
M  V30 60 1 28 57
M  V30 61 1 29 58
M  V30 62 1 30 59
M  V30 63 1 31 60
M  V30 64 1 32 61
M  V30 END BOND
M  V30 END CTAB
M  END
>  <Dataset>  (243) 
ChEMBL_Kinases

>  <Ligand_Instance>  (243) 
nan

>  <PDB_ID>  (243) 
nan

>  <Standardized_SMILES>  (243) 
C[C@H](Nc1nccc(N(CCCCN)C(=O)c2ccc3c(c2)CCO3)n1)c1ccccc1

>  <Name>  (243) 
nan

>  <Pocket>  (243) 
nan

>  <ATP_Site>  (243) 
nan

>  <Peripheral>  (243) 
nan

>  <Num_H_Atoms_ProtBoundConf>  (243) 
nan

>  <Num_Resolved_Atoms>  (243) 
nan

>  <Num_Not_Resolved_Atoms>  (243) 
nan

$$$$
CHEMBL1093546
     RDKit          3D

  0  0  0  0  0  0  0  0  0  0999 V3000
M  V30 BEGIN CTAB
M  V30 COUNTS 70 74 0 0 0
M  V30 BEGIN ATOM
M  V30 1 C 5.772923 0.822896 1.952496 0
M  V30 2 C 4.507365 0.055410 1.701251 0 CFG=2
M  V30 3 N 4.583392 -1.297202 2.245985 0
M  V30 4 C 3.465842 -2.174930 2.189218 0
M  V30 5 N 3.558451 -3.455236 2.635492 0
M  V30 6 C 2.470916 -4.258557 2.569833 0
M  V30 7 C 1.272641 -3.757800 2.044617 0
M  V30 8 C 1.207728 -2.442645 1.595529 0
M  V30 9 N -0.101932 -2.191760 1.114476 0
M  V30 10 C -0.578037 -2.272099 -0.254957 0
M  V30 11 C -0.398562 -1.003190 -1.005011 0
M  V30 12 C -1.126457 0.180485 -0.389378 0
M  V30 13 C -0.891567 1.413967 -1.280839 0
M  V30 14 N -1.712496 1.238069 -2.450112 0
M  V30 15 S -3.147390 2.212084 -2.298865 0
M  V30 16 N -2.764910 3.877899 -2.193892 0
M  V30 17 O -4.054644 2.012616 -3.477394 0
M  V30 18 O -3.954273 1.803490 -1.079675 0
M  V30 19 C -2.043456 -0.122766 -2.697494 0
M  V30 20 C -0.998976 -1.144640 -2.391641 0
M  V30 21 C -0.988299 -1.793713 2.151764 0
M  V30 22 O -0.673826 -1.595583 3.345003 0
M  V30 23 C -2.424822 -1.516623 2.158757 0
M  V30 24 C -3.056107 -2.759203 1.988353 0
M  V30 25 C -4.453208 -2.878571 1.951093 0
M  V30 26 C -5.186863 -1.695896 2.092635 0
M  V30 27 C -4.550564 -0.486847 2.259014 0
M  V30 28 C -3.177029 -0.374097 2.294806 0
M  V30 29 C -5.538803 0.614671 2.386319 0
M  V30 30 C -6.761904 -0.054821 1.749315 0
M  V30 31 O -6.558153 -1.428635 2.106038 0
M  V30 32 N 2.308003 -1.677142 1.677717 0
M  V30 33 C 4.274675 -0.088948 0.222941 0
M  V30 34 C 5.156412 -1.031214 -0.317686 0
M  V30 35 C 5.099777 -1.312454 -1.683109 0
M  V30 36 C 4.207277 -0.692928 -2.507462 0
M  V30 37 C 3.348426 0.235390 -1.936629 0
M  V30 38 C 3.374515 0.537681 -0.599270 0
M  V30 39 H 5.887132 1.528344 1.109374 0
M  V30 40 H 5.648098 1.418975 2.875215 0
M  V30 41 H 6.672048 0.185523 1.964469 0
M  V30 42 H 3.676116 0.565236 2.216400 0
M  V30 43 H 5.452148 -1.652106 2.688383 0
M  V30 44 H 2.633997 -5.260730 2.945699 0
M  V30 45 H 0.502849 -4.534494 2.066328 0
M  V30 46 H -0.108507 -3.115831 -0.778195 0
M  V30 47 H -1.689754 -2.469475 -0.192210 0
M  V30 48 H 0.675753 -0.800733 -1.149925 0
M  V30 49 H -2.205776 0.037384 -0.390168 0
M  V30 50 H -0.649101 0.396990 0.572596 0
M  V30 51 H -1.175987 2.289201 -0.683175 0
M  V30 52 H 0.180308 1.512991 -1.550345 0
M  V30 53 H -1.849667 4.065597 -1.690313 0
M  V30 54 H -3.494494 4.428905 -1.692464 0
M  V30 55 H -2.229861 -0.209846 -3.807758 0
M  V30 56 H -3.027576 -0.347745 -2.247012 0
M  V30 57 H -0.216264 -1.057663 -3.197069 0
M  V30 58 H -1.490187 -2.140359 -2.465012 0
M  V30 59 H -2.633053 -3.752302 1.867287 0
M  V30 60 H -5.017945 -3.790572 1.824688 0
M  V30 61 H -2.543162 0.468271 2.414695 0
M  V30 62 H -5.245354 1.523019 1.856133 0
M  V30 63 H -5.758542 0.732099 3.464462 0
M  V30 64 H -6.747403 0.081909 0.661260 0
M  V30 65 H -7.696400 0.352245 2.141911 0
M  V30 66 H 5.913562 -1.593286 0.221194 0
M  V30 67 H 5.780165 -2.048132 -2.129848 0
M  V30 68 H 4.189917 -0.932340 -3.557789 0
M  V30 69 H 2.621178 0.757744 -2.540929 0
M  V30 70 H 2.761465 1.229699 -0.068615 0
M  V30 END ATOM
M  V30 BEGIN BOND
M  V30 1 1 1 2
M  V30 2 1 2 3
M  V30 3 1 3 4
M  V30 4 2 4 5
M  V30 5 1 5 6
M  V30 6 2 6 7
M  V30 7 1 7 8
M  V30 8 1 8 9
M  V30 9 1 9 10
M  V30 10 1 10 11
M  V30 11 1 11 12
M  V30 12 1 12 13
M  V30 13 1 13 14
M  V30 14 1 14 15
M  V30 15 1 15 16
M  V30 16 2 15 17
M  V30 17 2 15 18
M  V30 18 1 14 19
M  V30 19 1 19 20
M  V30 20 1 9 21
M  V30 21 2 21 22
M  V30 22 1 21 23
M  V30 23 2 23 24
M  V30 24 1 24 25
M  V30 25 2 25 26
M  V30 26 1 26 27
M  V30 27 2 27 28
M  V30 28 1 27 29
M  V30 29 1 29 30
M  V30 30 1 30 31
M  V30 31 2 8 32
M  V30 32 1 2 33
M  V30 33 2 33 34
M  V30 34 1 34 35
M  V30 35 2 35 36
M  V30 36 1 36 37
M  V30 37 2 37 38
M  V30 38 1 32 4
M  V30 39 1 38 33
M  V30 40 1 20 11
M  V30 41 1 28 23
M  V30 42 1 31 26
M  V30 43 1 1 39
M  V30 44 1 1 40
M  V30 45 1 1 41
M  V30 46 1 2 42 CFG=1
M  V30 47 1 3 43
M  V30 48 1 6 44
M  V30 49 1 7 45
M  V30 50 1 10 46
M  V30 51 1 10 47
M  V30 52 1 11 48
M  V30 53 1 12 49
M  V30 54 1 12 50
M  V30 55 1 13 51
M  V30 56 1 13 52
M  V30 57 1 16 53
M  V30 58 1 16 54
M  V30 59 1 19 55
M  V30 60 1 19 56
M  V30 61 1 20 57
M  V30 62 1 20 58
M  V30 63 1 24 59
M  V30 64 1 25 60
M  V30 65 1 28 61
M  V30 66 1 29 62
M  V30 67 1 29 63
M  V30 68 1 30 64
M  V30 69 1 30 65
M  V30 70 1 34 66
M  V30 71 1 35 67
M  V30 72 1 36 68
M  V30 73 1 37 69
M  V30 74 1 38 70
M  V30 END BOND
M  V30 END CTAB
M  END
>  <Dataset>  (244) 
ChEMBL_Kinases

>  <Ligand_Instance>  (244) 
nan

>  <PDB_ID>  (244) 
nan

>  <Standardized_SMILES>  (244) 
C[C@H](Nc1nccc(N(CC2CCN(S(N)(=O)=O)CC2)C(=O)c2ccc3c(c2)CCO3)n1)c1ccccc1

>  <Name>  (244) 
nan

>  <Pocket>  (244) 
nan

>  <ATP_Site>  (244) 
nan

>  <Peripheral>  (244) 
nan

>  <Num_H_Atoms_ProtBoundConf>  (244) 
nan

>  <Num_Resolved_Atoms>  (244) 
nan

>  <Num_Not_Resolved_Atoms>  (244) 
nan

$$$$
CHEMBL109354
     RDKit          3D

  0  0  0  0  0  0  0  0  0  0999 V3000
M  V30 BEGIN CTAB
M  V30 COUNTS 70 72 0 0 0
M  V30 BEGIN ATOM
M  V30 1 C 5.222965 -1.516289 2.871586 0
M  V30 2 C 4.000984 -2.074154 2.184214 0
M  V30 3 C 4.362292 -3.128996 1.167222 0
M  V30 4 C 5.255052 -2.613941 0.088474 0
M  V30 5 C 4.614728 -1.482630 -0.671763 0
M  V30 6 C 3.345671 -1.967551 -1.298712 0
M  V30 7 C 2.609139 -0.920128 -2.098341 0
M  V30 8 C 3.409583 -0.370476 -3.233490 0
M  V30 9 C 2.596167 0.688076 -3.999901 0
M  V30 10 C 2.227505 1.799237 -3.101034 0
M  V30 11 C 1.074747 2.285076 -2.740992 0
M  V30 12 C 0.572803 3.362792 -1.873433 0
M  V30 13 C -0.715816 2.755009 -1.333181 0
M  V30 14 C -1.674182 3.845617 -0.887944 0
M  V30 15 O -2.895386 3.300925 -0.508489 0
M  V30 16 C -0.317718 1.853704 -0.219493 0
M  V30 17 O -1.285881 1.056754 0.347583 0
M  V30 18 C -2.064610 0.077000 -0.182119 0
M  V30 19 O -1.953610 -0.228358 -1.391861 0
M  V30 20 C -2.984733 -0.521944 0.805760 0
M  V30 21 C -3.106935 -0.187301 2.138986 0
M  V30 22 C -4.029275 -0.862547 2.912875 0
M  V30 23 C -4.829233 -1.858966 2.392063 0
M  V30 24 C -5.776029 -2.519565 3.283540 0
M  V30 25 C -6.401851 -1.909809 4.351902 0
M  V30 26 C -7.289271 -2.624766 5.144151 0
M  V30 27 C -7.586554 -3.946801 4.914278 0
M  V30 28 C -6.976816 -4.576378 3.857108 0
M  V30 29 C -6.106303 -3.864586 3.084737 0
M  V30 30 C -4.717150 -2.203448 1.060315 0
M  V30 31 C -3.785998 -1.527338 0.262773 0
M  V30 32 O -1.209101 2.032782 -2.420267 0
M  V30 33 C -0.158242 1.708678 -3.261322 0
M  V30 34 O -0.289083 1.008683 -4.323350 0
M  V30 35 H 4.858597 -0.652541 3.498868 0
M  V30 36 H 5.893201 -1.100953 2.107428 0
M  V30 37 H 5.711599 -2.277494 3.514759 0
M  V30 38 H 3.317118 -2.565058 2.913906 0
M  V30 39 H 3.447136 -1.229082 1.736622 0
M  V30 40 H 4.941566 -3.917768 1.714778 0
M  V30 41 H 3.481151 -3.629166 0.742685 0
M  V30 42 H 6.239483 -2.324595 0.511872 0
M  V30 43 H 5.418384 -3.426766 -0.651623 0
M  V30 44 H 4.463213 -0.626800 0.010910 0
M  V30 45 H 5.367327 -1.142625 -1.408728 0
M  V30 46 H 3.479767 -2.915011 -1.853742 0
M  V30 47 H 2.647094 -2.217510 -0.446338 0
M  V30 48 H 1.670265 -1.392477 -2.431851 0
M  V30 49 H 2.341244 -0.086039 -1.421419 0
M  V30 50 H 3.565854 -1.204007 -3.974014 0
M  V30 51 H 4.405355 -0.027421 -2.962023 0
M  V30 52 H 3.242313 1.147418 -4.794626 0
M  V30 53 H 1.793877 0.140703 -4.468364 0
M  V30 54 H 3.085560 2.319466 -2.645867 0
M  V30 55 H 0.375266 4.305132 -2.421597 0
M  V30 56 H 1.234911 3.632465 -1.033722 0
M  V30 57 H -1.804162 4.618919 -1.667421 0
M  V30 58 H -1.232360 4.342846 0.005775 0
M  V30 59 H -2.841906 3.048776 0.461224 0
M  V30 60 H 0.592583 1.309823 -0.557950 0
M  V30 61 H 0.070279 2.523341 0.603658 0
M  V30 62 H -2.444961 0.599463 2.460252 0
M  V30 63 H -4.098301 -0.576507 3.947101 0
M  V30 64 H -6.154134 -0.862090 4.518604 0
M  V30 65 H -7.730264 -2.045561 5.965612 0
M  V30 66 H -8.287314 -4.469219 5.559390 0
M  V30 67 H -7.186282 -5.614008 3.646533 0
M  V30 68 H -5.615732 -4.343248 2.246917 0
M  V30 69 H -5.352130 -2.996321 0.640429 0
M  V30 70 H -3.751687 -1.848767 -0.771409 0
M  V30 END ATOM
M  V30 BEGIN BOND
M  V30 1 1 1 2
M  V30 2 1 2 3
M  V30 3 1 3 4
M  V30 4 1 4 5
M  V30 5 1 5 6
M  V30 6 1 6 7
M  V30 7 1 7 8
M  V30 8 1 8 9
M  V30 9 1 9 10
M  V30 10 2 10 11
M  V30 11 1 11 12
M  V30 12 1 12 13
M  V30 13 1 13 14
M  V30 14 1 14 15
M  V30 15 1 13 16
M  V30 16 1 16 17
M  V30 17 1 17 18
M  V30 18 2 18 19
M  V30 19 1 18 20
M  V30 20 2 20 21
M  V30 21 1 21 22
M  V30 22 2 22 23
M  V30 23 1 23 24
M  V30 24 2 24 25
M  V30 25 1 25 26
M  V30 26 2 26 27
M  V30 27 1 27 28
M  V30 28 2 28 29
M  V30 29 1 23 30
M  V30 30 2 30 31
M  V30 31 1 13 32
M  V30 32 1 32 33
M  V30 33 2 33 34
M  V30 34 1 33 11
M  V30 35 1 31 20
M  V30 36 1 29 24
M  V30 37 1 1 35
M  V30 38 1 1 36
M  V30 39 1 1 37
M  V30 40 1 2 38
M  V30 41 1 2 39
M  V30 42 1 3 40
M  V30 43 1 3 41
M  V30 44 1 4 42
M  V30 45 1 4 43
M  V30 46 1 5 44
M  V30 47 1 5 45
M  V30 48 1 6 46
M  V30 49 1 6 47
M  V30 50 1 7 48
M  V30 51 1 7 49
M  V30 52 1 8 50
M  V30 53 1 8 51
M  V30 54 1 9 52
M  V30 55 1 9 53
M  V30 56 1 10 54
M  V30 57 1 12 55
M  V30 58 1 12 56
M  V30 59 1 14 57
M  V30 60 1 14 58
M  V30 61 1 15 59
M  V30 62 1 16 60
M  V30 63 1 16 61
M  V30 64 1 21 62
M  V30 65 1 22 63
M  V30 66 1 25 64
M  V30 67 1 26 65
M  V30 68 1 27 66
M  V30 69 1 28 67
M  V30 70 1 29 68
M  V30 71 1 30 69
M  V30 72 1 31 70
M  V30 END BOND
M  V30 END CTAB
M  END
>  <Dataset>  (245) 
ChEMBL_Kinases

>  <Ligand_Instance>  (245) 
nan

>  <PDB_ID>  (245) 
nan

>  <Standardized_SMILES>  (245) 
CCCCCCCCC/C=C1/CC(CO)(COC(=O)c2ccc(-c3ccccc3)cc2)OC1=O

>  <Name>  (245) 
nan

>  <Pocket>  (245) 
nan

>  <ATP_Site>  (245) 
nan

>  <Peripheral>  (245) 
nan

>  <Num_H_Atoms_ProtBoundConf>  (245) 
nan

>  <Num_Resolved_Atoms>  (245) 
nan

>  <Num_Not_Resolved_Atoms>  (245) 
nan

$$$$
CHEMBL1093461
     RDKit          3D

  0  0  0  0  0  0  0  0  0  0999 V3000
M  V30 BEGIN CTAB
M  V30 COUNTS 44 47 0 0 0
M  V30 BEGIN ATOM
M  V30 1 C 2.829059 -3.051085 0.888945 0
M  V30 2 C 3.474454 -2.073557 -0.046698 0
M  V30 3 C 4.641497 -2.429664 -0.681399 0
M  V30 4 C 5.270050 -1.542327 -1.560428 0
M  V30 5 C 4.654085 -0.321044 -1.739819 0
M  V30 6 C 5.302292 0.611878 -2.655200 0
M  V30 7 O 6.371654 0.328971 -3.258320 0
M  V30 8 O 4.829788 1.873447 -2.954516 0
M  V30 9 C 3.489147 0.072532 -1.125232 0
M  V30 10 C 2.893550 -0.823748 -0.264682 0
M  V30 11 C 1.657060 -0.521022 0.444912 0
M  V30 12 C 1.765686 0.081667 1.700408 0
M  V30 13 C 0.583848 0.365255 2.366598 0
M  V30 14 C 0.212865 0.932900 3.578499 0
M  V30 15 N -1.143165 0.927696 3.650851 0
M  V30 16 N -1.641358 0.385798 2.546234 0
M  V30 17 C -3.060510 0.319793 2.495764 0
M  V30 18 C -3.867084 1.429168 2.243133 0
M  V30 19 F -3.253737 2.630921 2.032823 0
M  V30 20 C -5.241193 1.381603 2.193949 0
M  V30 21 C -5.878759 0.180970 2.403007 0
M  V30 22 C -5.145359 -0.948209 2.656462 0
M  V30 23 C -3.772202 -0.845078 2.694717 0
M  V30 24 F -3.111612 -1.999361 2.952696 0
M  V30 25 C -0.609770 0.039372 1.757142 0
M  V30 26 N -0.727796 -0.537739 0.555744 0
M  V30 27 C -1.995119 -0.869925 -0.063963 0
M  V30 28 C 0.426762 -0.819991 -0.105942 0
M  V30 29 O 0.357209 -1.364857 -1.242728 0
M  V30 30 H 3.581177 -3.518082 1.563462 0
M  V30 31 H 2.364880 -3.900340 0.320171 0
M  V30 32 H 2.081272 -2.551260 1.531325 0
M  V30 33 H 5.106271 -3.390077 -0.526680 0
M  V30 34 H 6.187860 -1.775518 -2.082912 0
M  V30 35 H 5.422228 2.716548 -2.999710 0
M  V30 36 H 3.034718 1.044400 -1.292852 0
M  V30 37 H 2.677121 0.339532 2.184662 0
M  V30 38 H 0.969806 1.289776 4.279622 0
M  V30 39 H -5.800158 2.279304 1.993515 0
M  V30 40 H -6.964480 0.147805 2.363242 0
M  V30 41 H -5.670085 -1.869754 2.815420 0
M  V30 42 H -1.851844 -0.999118 -1.179178 0
M  V30 43 H -2.333106 -1.833881 0.381043 0
M  V30 44 H -2.719116 -0.064517 0.063500 0
M  V30 END ATOM
M  V30 BEGIN BOND
M  V30 1 1 1 2
M  V30 2 2 2 3
M  V30 3 1 3 4
M  V30 4 2 4 5
M  V30 5 1 5 6
M  V30 6 2 6 7
M  V30 7 1 6 8
M  V30 8 1 5 9
M  V30 9 2 9 10
M  V30 10 1 10 11
M  V30 11 2 11 12
M  V30 12 1 12 13
M  V30 13 1 13 14
M  V30 14 2 14 15
M  V30 15 1 15 16
M  V30 16 1 16 17
M  V30 17 2 17 18
M  V30 18 1 18 19
M  V30 19 1 18 20
M  V30 20 2 20 21
M  V30 21 1 21 22
M  V30 22 2 22 23
M  V30 23 1 23 24
M  V30 24 1 16 25
M  V30 25 1 25 26
M  V30 26 1 26 27
M  V30 27 1 26 28
M  V30 28 2 28 29
M  V30 29 1 10 2
M  V30 30 1 28 11
M  V30 31 2 25 13
M  V30 32 1 23 17
M  V30 33 1 1 30
M  V30 34 1 1 31
M  V30 35 1 1 32
M  V30 36 1 3 33
M  V30 37 1 4 34
M  V30 38 1 8 35
M  V30 39 1 9 36
M  V30 40 1 12 37
M  V30 41 1 14 38
M  V30 42 1 20 39
M  V30 43 1 21 40
M  V30 44 1 22 41
M  V30 45 1 27 42
M  V30 46 1 27 43
M  V30 47 1 27 44
M  V30 END BOND
M  V30 END CTAB
M  END
>  <Dataset>  (246) 
ChEMBL_Kinases

>  <Ligand_Instance>  (246) 
nan

>  <PDB_ID>  (246) 
nan

>  <Standardized_SMILES>  (246) 
Cc1ccc(C(=O)O)cc1-c1cc2cnn(-c3c(F)cccc3F)c2n(C)c1=O

>  <Name>  (246) 
nan

>  <Pocket>  (246) 
nan

>  <ATP_Site>  (246) 
nan

>  <Peripheral>  (246) 
nan

>  <Num_H_Atoms_ProtBoundConf>  (246) 
nan

>  <Num_Resolved_Atoms>  (246) 
nan

>  <Num_Not_Resolved_Atoms>  (246) 
nan

$$$$
CHEMBL1093390
     RDKit          3D

  0  0  0  0  0  0  0  0  0  0999 V3000
M  V30 BEGIN CTAB
M  V30 COUNTS 50 53 0 0 0
M  V30 BEGIN ATOM
M  V30 1 C 1.292903 -7.552390 2.302026 0
M  V30 2 C 1.620165 -6.399396 1.385778 0
M  V30 3 C 2.120222 -5.193837 2.150247 0
M  V30 4 C 2.435146 -4.075482 1.221317 0
M  V30 5 O 2.253954 -4.273630 -0.008319 0
M  V30 6 N 2.916621 -2.875186 1.819369 0
M  V30 7 C 3.236272 -1.767456 0.982213 0
M  V30 8 N 4.349585 -1.358105 0.345267 0
M  V30 9 N 4.091224 -0.223927 -0.318638 0
M  V30 10 C 2.792546 0.120870 -0.118595 0
M  V30 11 C 2.099482 1.215168 -0.612829 0
M  V30 12 C 0.756078 1.334771 -0.249131 0
M  V30 13 C -0.036741 2.460614 -0.731590 0
M  V30 14 C -0.214079 2.611138 -2.102703 0
M  V30 15 C -0.964112 3.675662 -2.560315 0
M  V30 16 C -1.523518 4.567756 -1.677024 0
M  V30 17 O -2.284023 5.648354 -2.126140 0
M  V30 18 C -1.352441 4.426252 -0.307877 0
M  V30 19 C -0.605488 3.367484 0.164997 0
M  V30 20 C 0.159061 0.395978 0.567487 0
M  V30 21 C -1.215258 0.462461 0.976800 0
M  V30 22 C -2.197862 0.391759 0.018602 0
M  V30 23 C -3.553100 0.446730 0.309817 0
M  V30 24 C -3.971129 0.578695 1.616313 0
M  V30 25 O -5.321452 0.628985 1.858967 0
M  V30 26 C -2.987078 0.650668 2.588193 0
M  V30 27 C -1.643047 0.596111 2.298801 0
M  V30 28 C 0.878620 -0.695473 1.051086 0
M  V30 29 C 2.223865 -0.840949 0.703874 0
M  V30 30 H 1.680798 -8.512747 1.948556 0
M  V30 31 H 0.195641 -7.605919 2.540388 0
M  V30 32 H 1.771637 -7.315443 3.281593 0
M  V30 33 H 2.447930 -6.728592 0.722118 0
M  V30 34 H 0.767681 -6.174992 0.744418 0
M  V30 35 H 1.371628 -4.876749 2.927094 0
M  V30 36 H 3.056055 -5.440445 2.689947 0
M  V30 37 H 3.034983 -2.804316 2.855281 0
M  V30 38 H 4.855156 0.234020 -0.872686 0
M  V30 39 H 2.552742 1.952799 -1.249248 0
M  V30 40 H 0.209218 1.931931 -2.821330 0
M  V30 41 H -1.123587 3.823867 -3.631603 0
M  V30 42 H -3.205098 5.795642 -1.730468 0
M  V30 43 H -1.760574 5.085732 0.444698 0
M  V30 44 H -0.437600 3.207089 1.239218 0
M  V30 45 H -1.906182 0.287099 -1.025637 0
M  V30 46 H -4.257921 0.384135 -0.502433 0
M  V30 47 H -5.937160 -0.170244 1.701844 0
M  V30 48 H -3.327456 0.753644 3.604825 0
M  V30 49 H -0.880491 0.652889 3.063761 0
M  V30 50 H 0.437702 -1.444462 1.690936 0
M  V30 END ATOM
M  V30 BEGIN BOND
M  V30 1 1 1 2
M  V30 2 1 2 3
M  V30 3 1 3 4
M  V30 4 2 4 5
M  V30 5 1 4 6
M  V30 6 1 6 7
M  V30 7 2 7 8
M  V30 8 1 8 9
M  V30 9 1 9 10
M  V30 10 2 10 11
M  V30 11 1 11 12
M  V30 12 1 12 13
M  V30 13 2 13 14
M  V30 14 1 14 15
M  V30 15 2 15 16
M  V30 16 1 16 17
M  V30 17 1 16 18
M  V30 18 2 18 19
M  V30 19 2 12 20
M  V30 20 1 20 21
M  V30 21 2 21 22
M  V30 22 1 22 23
M  V30 23 2 23 24
M  V30 24 1 24 25
M  V30 25 1 24 26
M  V30 26 2 26 27
M  V30 27 1 20 28
M  V30 28 2 28 29
M  V30 29 1 29 7
M  V30 30 1 29 10
M  V30 31 1 19 13
M  V30 32 1 27 21
M  V30 33 1 1 30
M  V30 34 1 1 31
M  V30 35 1 1 32
M  V30 36 1 2 33
M  V30 37 1 2 34
M  V30 38 1 3 35
M  V30 39 1 3 36
M  V30 40 1 6 37
M  V30 41 1 9 38
M  V30 42 1 11 39
M  V30 43 1 14 40
M  V30 44 1 15 41
M  V30 45 1 17 42
M  V30 46 1 18 43
M  V30 47 1 19 44
M  V30 48 1 22 45
M  V30 49 1 23 46
M  V30 50 1 25 47
M  V30 51 1 26 48
M  V30 52 1 27 49
M  V30 53 1 28 50
M  V30 END BOND
M  V30 END CTAB
M  END
>  <Dataset>  (247) 
ChEMBL_Kinases

>  <Ligand_Instance>  (247) 
nan

>  <PDB_ID>  (247) 
nan

>  <Standardized_SMILES>  (247) 
CCCC(=O)Nc1n[nH]c2cc(-c3ccc(O)cc3)c(-c3ccc(O)cc3)cc12

>  <Name>  (247) 
nan

>  <Pocket>  (247) 
nan

>  <ATP_Site>  (247) 
nan

>  <Peripheral>  (247) 
nan

>  <Num_H_Atoms_ProtBoundConf>  (247) 
nan

>  <Num_Resolved_Atoms>  (247) 
nan

>  <Num_Not_Resolved_Atoms>  (247) 
nan

$$$$
CHEMBL1093317
     RDKit          3D

  0  0  0  0  0  0  0  0  0  0999 V3000
M  V30 BEGIN CTAB
M  V30 COUNTS 51 53 0 0 0
M  V30 BEGIN ATOM
M  V30 1 C -0.880455 1.927469 3.134245 0
M  V30 2 C -0.030300 0.696627 3.058191 0
M  V30 3 N 0.785943 0.630585 1.846819 0
M  V30 4 C 2.052428 1.232574 2.000270 0
M  V30 5 O 2.468081 1.775624 3.058527 0
M  V30 6 C 3.271826 1.508802 1.257655 0
M  V30 7 C 4.462962 0.771058 1.223765 0
M  V30 8 C 5.508337 1.217937 0.447919 0
M  V30 9 C 5.403706 2.374792 -0.294069 0
M  V30 10 C 4.255434 3.156436 -0.309533 0
M  V30 11 C 4.130385 4.396763 -1.093553 0
M  V30 12 F 3.432603 5.363587 -0.359832 0
M  V30 13 F 3.540422 4.184819 -2.324244 0
M  V30 14 F 5.393179 4.921658 -1.292624 0
M  V30 15 C 3.222852 2.675102 0.483644 0
M  V30 16 C 0.221070 -0.017408 0.722865 0
M  V30 17 C 0.837525 -0.246136 -0.482906 0
M  V30 18 C 0.269175 -0.885488 -1.561712 0
M  V30 19 N -0.993019 -1.309078 -1.389751 0
M  V30 20 C -1.636206 -1.111265 -0.234417 0
M  V30 21 N -2.984040 -1.531331 0.077726 0
M  V30 22 C -3.641484 -2.606937 0.835885 0 CFG=1
M  V30 23 C -5.133448 -2.547291 0.736428 0
M  V30 24 C -3.041866 -3.907666 0.538718 0
M  V30 25 C -2.746150 -4.367563 -0.724448 0
M  V30 26 C -2.170204 -5.614010 -0.975236 0
M  V30 27 C -1.892728 -6.406808 0.109771 0
M  V30 28 C -2.148399 -6.043397 1.424333 0
M  V30 29 C -2.718041 -4.791164 1.552983 0
M  V30 30 N -1.033090 -0.488084 0.767522 0
M  V30 31 H -1.011589 2.446603 2.164657 0
M  V30 32 H -1.851684 1.740336 3.655879 0
M  V30 33 H -0.365592 2.691097 3.788927 0
M  V30 34 H -0.707774 -0.197679 3.106397 0
M  V30 35 H 0.594758 0.618352 3.968801 0
M  V30 36 H 4.423018 -0.108564 1.843308 0
M  V30 37 H 6.400199 0.609389 0.463019 0
M  V30 38 H 6.257819 2.674189 -0.883547 0
M  V30 39 H 2.323887 3.305686 0.457577 0
M  V30 40 H 1.864676 0.110693 -0.595073 0
M  V30 41 H 0.787790 -1.042259 -2.487101 0
M  V30 42 H -3.616987 -0.833313 -0.404810 0
M  V30 43 H -3.352542 -2.368158 1.907151 0
M  V30 44 H -5.542912 -2.938594 1.695486 0
M  V30 45 H -5.432853 -1.489996 0.690259 0
M  V30 46 H -5.498916 -3.115232 -0.142239 0
M  V30 47 H -2.968519 -3.728118 -1.589774 0
M  V30 48 H -1.941020 -5.971355 -1.971836 0
M  V30 49 H -1.443384 -7.388850 -0.033047 0
M  V30 50 H -1.937478 -6.649270 2.288964 0
M  V30 51 H -2.939693 -4.451872 2.566723 0
M  V30 END ATOM
M  V30 BEGIN BOND
M  V30 1 1 1 2
M  V30 2 1 2 3
M  V30 3 1 3 4
M  V30 4 2 4 5
M  V30 5 1 4 6
M  V30 6 2 6 7
M  V30 7 1 7 8
M  V30 8 2 8 9
M  V30 9 1 9 10
M  V30 10 1 10 11
M  V30 11 1 11 12
M  V30 12 1 11 13
M  V30 13 1 11 14
M  V30 14 2 10 15
M  V30 15 1 3 16
M  V30 16 2 16 17
M  V30 17 1 17 18
M  V30 18 2 18 19
M  V30 19 1 19 20
M  V30 20 1 20 21
M  V30 21 1 21 22
M  V30 22 1 22 23
M  V30 23 1 22 24
M  V30 24 2 24 25
M  V30 25 1 25 26
M  V30 26 2 26 27
M  V30 27 1 27 28
M  V30 28 2 28 29
M  V30 29 2 20 30
M  V30 30 1 15 6
M  V30 31 1 30 16
M  V30 32 1 29 24
M  V30 33 1 1 31
M  V30 34 1 1 32
M  V30 35 1 1 33
M  V30 36 1 2 34
M  V30 37 1 2 35
M  V30 38 1 7 36
M  V30 39 1 8 37
M  V30 40 1 9 38
M  V30 41 1 15 39
M  V30 42 1 17 40
M  V30 43 1 18 41
M  V30 44 1 21 42
M  V30 45 1 22 43 CFG=1
M  V30 46 1 23 44
M  V30 47 1 23 45
M  V30 48 1 23 46
M  V30 49 1 25 47
M  V30 50 1 26 48
M  V30 51 1 27 49
M  V30 52 1 28 50
M  V30 53 1 29 51
M  V30 END BOND
M  V30 END CTAB
M  END
>  <Dataset>  (248) 
ChEMBL_Kinases

>  <Ligand_Instance>  (248) 
nan

>  <PDB_ID>  (248) 
nan

>  <Standardized_SMILES>  (248) 
CCN(C(=O)c1cccc(C(F)(F)F)c1)c1ccnc(N[C@@H](C)c2ccccc2)n1

>  <Name>  (248) 
nan

>  <Pocket>  (248) 
nan

>  <ATP_Site>  (248) 
nan

>  <Peripheral>  (248) 
nan

>  <Num_H_Atoms_ProtBoundConf>  (248) 
nan

>  <Num_Resolved_Atoms>  (248) 
nan

>  <Num_Not_Resolved_Atoms>  (248) 
nan

$$$$
CHEMBL109331
     RDKit          3D

  0  0  0  0  0  0  0  0  0  0999 V3000
M  V30 BEGIN CTAB
M  V30 COUNTS 50 53 0 0 0
M  V30 BEGIN ATOM
M  V30 1 C 3.465069 -5.517473 1.820416 0
M  V30 2 S 4.315937 -4.139955 2.676383 0
M  V30 3 C 3.713849 -2.599270 1.962542 0
M  V30 4 N 4.326050 -2.024331 0.891904 0
M  V30 5 C 3.657182 -0.889448 0.579465 0
M  V30 6 C 3.758444 0.170411 -0.413384 0
M  V30 7 C 2.696763 0.254962 -1.307804 0
M  V30 8 C 2.679645 1.220900 -2.300140 0
M  V30 9 C 3.735555 2.092723 -2.379608 0
M  V30 10 F 3.755778 3.042641 -3.328655 0
M  V30 11 C 4.808300 2.047076 -1.516124 0
M  V30 12 C 4.794286 1.071022 -0.537270 0
M  V30 13 C 2.618006 -0.762676 1.470121 0
M  V30 14 C 1.489650 0.128970 1.806433 0
M  V30 15 C 1.691693 1.435698 2.217215 0
M  V30 16 C 0.624793 2.252267 2.536141 0
M  V30 17 N -0.623890 1.772071 2.446602 0
M  V30 18 C -0.898923 0.515930 2.055670 0
M  V30 19 N -2.138044 -0.164544 1.908982 0
M  V30 20 C -2.789269 0.032346 0.606168 0 CFG=2
M  V30 21 C -3.140358 1.467519 0.375936 0
M  V30 22 C -3.932049 -0.891965 0.409090 0
M  V30 23 C -4.121379 -1.559307 -0.803414 0
M  V30 24 C -5.130019 -2.439617 -1.117675 0
M  V30 25 C -6.045791 -2.679420 -0.117455 0
M  V30 26 C -5.925474 -2.056678 1.108815 0
M  V30 27 C -4.882073 -1.165892 1.388311 0
M  V30 28 C 0.167736 -0.322855 1.729497 0
M  V30 29 N 2.652066 -1.823368 2.328503 0
M  V30 30 H 2.467297 -5.585561 2.306347 0
M  V30 31 H 3.381797 -5.338876 0.727396 0
M  V30 32 H 4.066813 -6.420427 2.003075 0
M  V30 33 H 1.851756 -0.396904 -1.290826 0
M  V30 34 H 1.875390 1.311409 -3.005827 0
M  V30 35 H 5.626836 2.745379 -1.600815 0
M  V30 36 H 5.605019 0.981858 0.171247 0
M  V30 37 H 2.699611 1.823085 2.289440 0
M  V30 38 H 0.728700 3.278057 2.861510 0
M  V30 39 H -2.378225 -0.696315 2.764950 0
M  V30 40 H -2.041309 -0.234324 -0.200052 0
M  V30 41 H -2.392757 2.101321 0.890091 0
M  V30 42 H -4.184344 1.721913 0.661249 0
M  V30 43 H -3.074140 1.687080 -0.708522 0
M  V30 44 H -3.376779 -1.338118 -1.554896 0
M  V30 45 H -5.146247 -2.881304 -2.104080 0
M  V30 46 H -6.851818 -3.358176 -0.311402 0
M  V30 47 H -6.679483 -2.284758 1.859851 0
M  V30 48 H -4.791657 -0.680717 2.349907 0
M  V30 49 H 0.090106 -1.355048 1.400065 0
M  V30 50 H 2.101421 -2.188749 3.163894 0
M  V30 END ATOM
M  V30 BEGIN BOND
M  V30 1 1 1 2
M  V30 2 1 2 3
M  V30 3 2 3 4
M  V30 4 1 4 5
M  V30 5 1 5 6
M  V30 6 2 6 7
M  V30 7 1 7 8
M  V30 8 2 8 9
M  V30 9 1 9 10
M  V30 10 1 9 11
M  V30 11 2 11 12
M  V30 12 2 5 13
M  V30 13 1 13 14
M  V30 14 2 14 15
M  V30 15 1 15 16
M  V30 16 2 16 17
M  V30 17 1 17 18
M  V30 18 1 18 19
M  V30 19 1 19 20
M  V30 20 1 20 21
M  V30 21 1 20 22
M  V30 22 2 22 23
M  V30 23 1 23 24
M  V30 24 2 24 25
M  V30 25 1 25 26
M  V30 26 2 26 27
M  V30 27 2 18 28
M  V30 28 1 13 29
M  V30 29 1 29 3
M  V30 30 1 12 6
M  V30 31 1 28 14
M  V30 32 1 27 22
M  V30 33 1 1 30
M  V30 34 1 1 31
M  V30 35 1 1 32
M  V30 36 1 7 33
M  V30 37 1 8 34
M  V30 38 1 11 35
M  V30 39 1 12 36
M  V30 40 1 15 37
M  V30 41 1 16 38
M  V30 42 1 19 39
M  V30 43 1 20 40 CFG=3
M  V30 44 1 21 41
M  V30 45 1 21 42
M  V30 46 1 21 43
M  V30 47 1 23 44
M  V30 48 1 24 45
M  V30 49 1 25 46
M  V30 50 1 26 47
M  V30 51 1 27 48
M  V30 52 1 28 49
M  V30 53 1 29 50
M  V30 END BOND
M  V30 END CTAB
M  END
>  <Dataset>  (249) 
ChEMBL_Kinases

>  <Ligand_Instance>  (249) 
nan

>  <PDB_ID>  (249) 
nan

>  <Standardized_SMILES>  (249) 
CSc1nc(-c2ccc(F)cc2)c(-c2ccnc(N[C@H](C)c3ccccc3)c2)[nH]1

>  <Name>  (249) 
nan

>  <Pocket>  (249) 
nan

>  <ATP_Site>  (249) 
nan

>  <Peripheral>  (249) 
nan

>  <Num_H_Atoms_ProtBoundConf>  (249) 
nan

>  <Num_Resolved_Atoms>  (249) 
nan

>  <Num_Not_Resolved_Atoms>  (249) 
nan

$$$$
CHEMBL1093219
     RDKit          3D

  0  0  0  0  0  0  0  0  0  0999 V3000
M  V30 BEGIN CTAB
M  V30 COUNTS 51 54 0 0 0
M  V30 BEGIN ATOM
M  V30 1 C 1.009607 0.479526 5.613361 0
M  V30 2 C 0.103735 0.988601 4.519520 0
M  V30 3 N 0.735250 1.043032 3.224039 0
M  V30 4 C 1.432085 2.173306 2.729721 0
M  V30 5 O 1.605689 3.300646 3.262236 0
M  V30 6 C 2.107318 2.232614 1.446598 0
M  V30 7 C 3.378259 1.644050 1.492620 0
M  V30 8 C 4.180524 1.609797 0.349782 0
M  V30 9 C 3.703871 2.166721 -0.832335 0
M  V30 10 O 4.277477 2.252511 -2.027829 0
M  V30 11 C 3.437470 2.872832 -2.851828 0
M  V30 12 C 2.278881 3.195894 -2.152457 0
M  V30 13 C 2.455523 2.738305 -0.850913 0
M  V30 14 C 1.646213 2.783854 0.260793 0
M  V30 15 C 0.651764 -0.105431 2.400228 0
M  V30 16 C 1.590652 -1.102916 2.325360 0
M  V30 17 C 1.491643 -2.204381 1.513141 0
M  V30 18 N 0.387423 -2.267652 0.760356 0
M  V30 19 C -0.571597 -1.337999 0.778595 0
M  V30 20 N -1.761135 -1.382167 -0.012459 0
M  V30 21 C -3.038846 -2.053668 -0.142327 0 CFG=1
M  V30 22 C -3.880939 -1.270912 -1.104277 0
M  V30 23 C -2.791385 -3.439515 -0.580177 0
M  V30 24 C -3.472045 -3.815028 -1.735621 0
M  V30 25 C -3.401556 -5.029977 -2.329834 0
M  V30 26 C -2.581816 -6.012739 -1.752528 0
M  V30 27 C -1.875720 -5.717213 -0.605762 0
M  V30 28 C -2.016900 -4.449745 -0.080488 0
M  V30 29 N -0.418151 -0.263065 1.607883 0
M  V30 30 H 1.665968 1.297253 6.027349 0
M  V30 31 H 0.436139 0.088530 6.484286 0
M  V30 32 H 1.691853 -0.326036 5.280226 0
M  V30 33 H -0.293521 1.965641 4.874101 0
M  V30 34 H -0.797957 0.300967 4.480279 0
M  V30 35 H 3.822426 1.184527 2.367156 0
M  V30 36 H 5.157111 1.167107 0.348193 0
M  V30 37 H 3.596727 3.109207 -3.919886 0
M  V30 38 H 1.378772 3.703819 -2.508675 0
M  V30 39 H 0.663229 3.217061 0.294581 0
M  V30 40 H 2.457570 -0.995633 2.958020 0
M  V30 41 H 2.225025 -2.990323 1.449513 0
M  V30 42 H -1.527345 -0.642775 -0.720315 0
M  V30 43 H -3.490929 -2.080999 0.872425 0
M  V30 44 H -3.951270 -0.243187 -0.661634 0
M  V30 45 H -3.390533 -1.155017 -2.087937 0
M  V30 46 H -4.910861 -1.614795 -1.203831 0
M  V30 47 H -4.136384 -3.153489 -2.283513 0
M  V30 48 H -3.897769 -5.368916 -3.207280 0
M  V30 49 H -2.415781 -7.035124 -2.106430 0
M  V30 50 H -1.203111 -6.391185 -0.061342 0
M  V30 51 H -1.494949 -4.192621 0.823975 0
M  V30 END ATOM
M  V30 BEGIN BOND
M  V30 1 1 1 2
M  V30 2 1 2 3
M  V30 3 1 3 4
M  V30 4 2 4 5
M  V30 5 1 4 6
M  V30 6 2 6 7
M  V30 7 1 7 8
M  V30 8 2 8 9
M  V30 9 1 9 10
M  V30 10 1 10 11
M  V30 11 2 11 12
M  V30 12 1 12 13
M  V30 13 2 13 14
M  V30 14 1 3 15
M  V30 15 2 15 16
M  V30 16 1 16 17
M  V30 17 2 17 18
M  V30 18 1 18 19
M  V30 19 1 19 20
M  V30 20 1 20 21
M  V30 21 1 21 22
M  V30 22 1 21 23
M  V30 23 2 23 24
M  V30 24 1 24 25
M  V30 25 2 25 26
M  V30 26 1 26 27
M  V30 27 2 27 28
M  V30 28 2 19 29
M  V30 29 1 14 6
M  V30 30 1 29 15
M  V30 31 1 13 9
M  V30 32 1 28 23
M  V30 33 1 1 30
M  V30 34 1 1 31
M  V30 35 1 1 32
M  V30 36 1 2 33
M  V30 37 1 2 34
M  V30 38 1 7 35
M  V30 39 1 8 36
M  V30 40 1 11 37
M  V30 41 1 12 38
M  V30 42 1 14 39
M  V30 43 1 16 40
M  V30 44 1 17 41
M  V30 45 1 20 42
M  V30 46 1 21 43 CFG=1
M  V30 47 1 22 44
M  V30 48 1 22 45
M  V30 49 1 22 46
M  V30 50 1 24 47
M  V30 51 1 25 48
M  V30 52 1 26 49
M  V30 53 1 27 50
M  V30 54 1 28 51
M  V30 END BOND
M  V30 END CTAB
M  END
>  <Dataset>  (250) 
ChEMBL_Kinases

>  <Ligand_Instance>  (250) 
nan

>  <PDB_ID>  (250) 
nan

>  <Standardized_SMILES>  (250) 
CCN(C(=O)c1ccc2occc2c1)c1ccnc(N[C@@H](C)c2ccccc2)n1

>  <Name>  (250) 
nan

>  <Pocket>  (250) 
nan

>  <ATP_Site>  (250) 
nan

>  <Peripheral>  (250) 
nan

>  <Num_H_Atoms_ProtBoundConf>  (250) 
nan

>  <Num_Resolved_Atoms>  (250) 
nan

>  <Num_Not_Resolved_Atoms>  (250) 
nan

$$$$
CHEMBL1093209
     RDKit          3D

  0  0  0  0  0  0  0  0  0  0999 V3000
M  V30 BEGIN CTAB
M  V30 COUNTS 51 54 0 0 0
M  V30 BEGIN ATOM
M  V30 1 C -0.026002 -0.009906 4.300097 0
M  V30 2 C -0.160539 1.090753 3.284046 0
M  V30 3 N 0.775062 0.903849 2.167848 0
M  V30 4 C 2.022918 1.536243 2.395292 0
M  V30 5 O 2.335250 2.191361 3.418412 0
M  V30 6 C 3.239560 1.629052 1.598335 0
M  V30 7 C 4.200906 0.573657 1.811047 0
M  V30 8 S 5.584703 0.989494 0.661401 0
M  V30 9 C 4.814751 2.436501 0.038860 0
M  V30 10 C 5.271336 3.329464 -0.908787 0
M  V30 11 C 4.524831 4.427922 -1.283463 0
M  V30 12 C 3.319168 4.516754 -0.621165 0
M  V30 13 C 2.839766 3.642804 0.325964 0
M  V30 14 C 3.620841 2.560512 0.667544 0
M  V30 15 C 0.344821 0.149277 1.048246 0
M  V30 16 C 1.099191 -0.117684 -0.069015 0
M  V30 17 C 0.648230 -0.856121 -1.141496 0
M  V30 18 N -0.602450 -1.341359 -1.087229 0
M  V30 19 C -1.342118 -1.084439 -0.000999 0
M  V30 20 N -2.685123 -1.576481 0.121880 0
M  V30 21 C -3.499117 -2.671408 0.609935 0 CFG=1
M  V30 22 C -4.940859 -2.400105 0.312251 0
M  V30 23 C -3.012767 -3.949476 0.094910 0
M  V30 24 C -3.927809 -4.859412 -0.425761 0
M  V30 25 C -3.533787 -6.079989 -0.923318 0
M  V30 26 C -2.173604 -6.376165 -0.887417 0
M  V30 27 C -1.236446 -5.483052 -0.371532 0
M  V30 28 C -1.671305 -4.254162 0.124744 0
M  V30 29 N -0.890221 -0.363060 1.037517 0
M  V30 30 H 0.773084 0.256300 5.037546 0
M  V30 31 H -0.989485 -0.163505 4.843269 0
M  V30 32 H 0.250764 -0.965468 3.824021 0
M  V30 33 H -1.176458 1.045023 2.850045 0
M  V30 34 H -0.036793 2.080572 3.772896 0
M  V30 35 H 4.145747 -0.286583 2.491653 0
M  V30 36 H 6.229444 3.139227 -1.345112 0
M  V30 37 H 4.852564 5.144098 -2.020269 0
M  V30 38 H 2.702102 5.387010 -0.902448 0
M  V30 39 H 1.853278 3.878067 0.745628 0
M  V30 40 H 2.094739 0.258301 -0.131361 0
M  V30 41 H 1.294418 -1.039824 -2.011502 0
M  V30 42 H -3.156010 -0.754312 -0.352758 0
M  V30 43 H -3.415245 -2.686708 1.735311 0
M  V30 44 H -5.081876 -1.293834 0.496179 0
M  V30 45 H -5.572949 -2.892653 1.079385 0
M  V30 46 H -5.246799 -2.574146 -0.726213 0
M  V30 47 H -4.972140 -4.624856 -0.450200 0
M  V30 48 H -4.235716 -6.787704 -1.327125 0
M  V30 49 H -1.894652 -7.358871 -1.292710 0
M  V30 50 H -0.194850 -5.835111 -0.400049 0
M  V30 51 H -0.914655 -3.606554 0.510328 0
M  V30 END ATOM
M  V30 BEGIN BOND
M  V30 1 1 1 2
M  V30 2 1 2 3
M  V30 3 1 3 4
M  V30 4 2 4 5
M  V30 5 1 4 6
M  V30 6 2 6 7
M  V30 7 1 7 8
M  V30 8 1 8 9
M  V30 9 2 9 10
M  V30 10 1 10 11
M  V30 11 2 11 12
M  V30 12 1 12 13
M  V30 13 2 13 14
M  V30 14 1 3 15
M  V30 15 2 15 16
M  V30 16 1 16 17
M  V30 17 2 17 18
M  V30 18 1 18 19
M  V30 19 1 19 20
M  V30 20 1 20 21
M  V30 21 1 21 22
M  V30 22 1 21 23
M  V30 23 2 23 24
M  V30 24 1 24 25
M  V30 25 2 25 26
M  V30 26 1 26 27
M  V30 27 2 27 28
M  V30 28 2 19 29
M  V30 29 1 14 6
M  V30 30 1 29 15
M  V30 31 1 14 9
M  V30 32 1 28 23
M  V30 33 1 1 30
M  V30 34 1 1 31
M  V30 35 1 1 32
M  V30 36 1 2 33
M  V30 37 1 2 34
M  V30 38 1 7 35
M  V30 39 1 10 36
M  V30 40 1 11 37
M  V30 41 1 12 38
M  V30 42 1 13 39
M  V30 43 1 16 40
M  V30 44 1 17 41
M  V30 45 1 20 42
M  V30 46 1 21 43 CFG=1
M  V30 47 1 22 44
M  V30 48 1 22 45
M  V30 49 1 22 46
M  V30 50 1 24 47
M  V30 51 1 25 48
M  V30 52 1 26 49
M  V30 53 1 27 50
M  V30 54 1 28 51
M  V30 END BOND
M  V30 END CTAB
M  END
>  <Dataset>  (251) 
ChEMBL_Kinases

>  <Ligand_Instance>  (251) 
nan

>  <PDB_ID>  (251) 
nan

>  <Standardized_SMILES>  (251) 
CCN(C(=O)c1csc2ccccc12)c1ccnc(N[C@@H](C)c2ccccc2)n1

>  <Name>  (251) 
nan

>  <Pocket>  (251) 
nan

>  <ATP_Site>  (251) 
nan

>  <Peripheral>  (251) 
nan

>  <Num_H_Atoms_ProtBoundConf>  (251) 
nan

>  <Num_Resolved_Atoms>  (251) 
nan

>  <Num_Not_Resolved_Atoms>  (251) 
nan

$$$$
CHEMBL1093079
     RDKit          3D

  0  0  0  0  0  0  0  0  0  0999 V3000
M  V30 BEGIN CTAB
M  V30 COUNTS 55 58 0 0 0
M  V30 BEGIN ATOM
M  V30 1 C 0.104817 -2.726959 5.783616 0
M  V30 2 C 1.375145 -2.537415 6.608188 0
M  V30 3 C 2.549890 -2.431879 5.643275 0
M  V30 4 C 2.366419 -1.246666 4.733942 0
M  V30 5 O 1.411098 -0.540302 5.107249 0
M  V30 6 N 3.318530 -1.206408 3.664645 0
M  V30 7 C 3.121489 -0.055078 2.816465 0
M  V30 8 N 3.767343 1.114862 2.973099 0
M  V30 9 N 3.376042 1.987610 2.054841 0
M  V30 10 C 2.458245 1.340905 1.304760 0
M  V30 11 C 1.714761 1.769861 0.212952 0
M  V30 12 C 0.801427 0.922695 -0.412861 0
M  V30 13 C 0.050896 1.438604 -1.552661 0
M  V30 14 C -0.701207 2.580411 -1.247186 0
M  V30 15 C -1.463821 3.169160 -2.248130 0
M  V30 16 C -1.480085 2.630366 -3.534302 0
M  V30 17 O -2.203292 3.135990 -4.602251 0
M  V30 18 C -0.732173 1.499881 -3.824588 0
M  V30 19 C 0.028959 0.908638 -2.838020 0
M  V30 20 C 0.648848 -0.370805 0.082216 0
M  V30 21 C -0.315074 -1.261256 -0.566756 0
M  V30 22 C -1.588544 -0.715399 -0.431929 0
M  V30 23 C -2.719206 -1.353191 -0.952988 0
M  V30 24 C -2.492510 -2.566996 -1.612478 0
M  V30 25 C -3.674062 -3.284989 -2.182898 0
M  V30 26 C -3.882221 -2.795124 -3.607363 0
M  V30 27 C -1.243130 -3.093843 -1.737370 0
M  V30 28 C -0.138582 -2.460068 -1.223945 0
M  V30 29 C 1.366871 -0.837626 1.161229 0
M  V30 30 C 2.256265 0.027533 1.750025 0
M  V30 31 H 0.406516 -3.036147 4.758902 0
M  V30 32 H -0.422856 -3.614747 6.241942 0
M  V30 33 H -0.502424 -1.818084 5.777787 0
M  V30 34 H 1.543307 -3.376711 7.304019 0
M  V30 35 H 1.250607 -1.619159 7.219955 0
M  V30 36 H 2.580056 -3.327936 5.013795 0
M  V30 37 H 3.478888 -2.232901 6.226007 0
M  V30 38 H 4.050294 -1.935324 3.535952 0
M  V30 39 H 3.662832 2.980349 1.880593 0
M  V30 40 H 1.839791 2.789584 -0.171256 0
M  V30 41 H -0.711755 3.036646 -0.244279 0
M  V30 42 H -2.068739 4.047841 -2.096003 0
M  V30 43 H -2.888248 3.856247 -4.511269 0
M  V30 44 H -0.720728 1.054662 -4.802335 0
M  V30 45 H 0.648070 0.015321 -2.970561 0
M  V30 46 H -1.875338 0.218436 0.060042 0
M  V30 47 H -3.724156 -0.995489 -0.888568 0
M  V30 48 H -3.496910 -4.360644 -2.156625 0
M  V30 49 H -4.580600 -3.005169 -1.605609 0
M  V30 50 H -4.572703 -1.940192 -3.665023 0
M  V30 51 H -2.894102 -2.426272 -4.002217 0
M  V30 52 H -4.252077 -3.665833 -4.186566 0
M  V30 53 H -1.038203 -4.025326 -2.240952 0
M  V30 54 H 0.904541 -2.748096 -1.240106 0
M  V30 55 H 1.245878 -1.854507 1.548847 0
M  V30 END ATOM
M  V30 BEGIN BOND
M  V30 1 1 1 2
M  V30 2 1 2 3
M  V30 3 1 3 4
M  V30 4 2 4 5
M  V30 5 1 4 6
M  V30 6 1 6 7
M  V30 7 2 7 8
M  V30 8 1 8 9
M  V30 9 1 9 10
M  V30 10 2 10 11
M  V30 11 1 11 12
M  V30 12 1 12 13
M  V30 13 2 13 14
M  V30 14 1 14 15
M  V30 15 2 15 16
M  V30 16 1 16 17
M  V30 17 1 16 18
M  V30 18 2 18 19
M  V30 19 2 12 20
M  V30 20 1 20 21
M  V30 21 2 21 22
M  V30 22 1 22 23
M  V30 23 2 23 24
M  V30 24 1 24 25
M  V30 25 1 25 26
M  V30 26 1 24 27
M  V30 27 2 27 28
M  V30 28 1 20 29
M  V30 29 2 29 30
M  V30 30 1 30 7
M  V30 31 1 30 10
M  V30 32 1 19 13
M  V30 33 1 28 21
M  V30 34 1 1 31
M  V30 35 1 1 32
M  V30 36 1 1 33
M  V30 37 1 2 34
M  V30 38 1 2 35
M  V30 39 1 3 36
M  V30 40 1 3 37
M  V30 41 1 6 38
M  V30 42 1 9 39
M  V30 43 1 11 40
M  V30 44 1 14 41
M  V30 45 1 15 42
M  V30 46 1 17 43
M  V30 47 1 18 44
M  V30 48 1 19 45
M  V30 49 1 22 46
M  V30 50 1 23 47
M  V30 51 1 25 48
M  V30 52 1 25 49
M  V30 53 1 26 50
M  V30 54 1 26 51
M  V30 55 1 26 52
M  V30 56 1 27 53
M  V30 57 1 28 54
M  V30 58 1 29 55
M  V30 END BOND
M  V30 END CTAB
M  END
>  <Dataset>  (252) 
ChEMBL_Kinases

>  <Ligand_Instance>  (252) 
nan

>  <PDB_ID>  (252) 
nan

>  <Standardized_SMILES>  (252) 
CCCC(=O)Nc1n[nH]c2cc(-c3ccc(O)cc3)c(-c3ccc(CC)cc3)cc12

>  <Name>  (252) 
nan

>  <Pocket>  (252) 
nan

>  <ATP_Site>  (252) 
nan

>  <Peripheral>  (252) 
nan

>  <Num_H_Atoms_ProtBoundConf>  (252) 
nan

>  <Num_Resolved_Atoms>  (252) 
nan

>  <Num_Not_Resolved_Atoms>  (252) 
nan

$$$$
CHEMBL1092975
     RDKit          3D

  0  0  0  0  0  0  0  0  0  0999 V3000
M  V30 BEGIN CTAB
M  V30 COUNTS 53 56 0 0 0
M  V30 BEGIN ATOM
M  V30 1 C -0.177443 -0.468582 5.085270 0
M  V30 2 C -0.301301 -1.373553 3.905137 0
M  V30 3 N -0.013370 -0.728754 2.664515 0
M  V30 4 C 1.371584 -0.787663 2.263026 0
M  V30 5 O 2.283050 -1.373831 2.905930 0
M  V30 6 C 2.089224 -0.250948 1.117202 0
M  V30 7 C 2.249501 -0.744691 -0.158282 0
M  V30 8 C 2.982907 -0.061618 -1.105313 0
M  V30 9 C 3.595342 1.162404 -0.808885 0
M  V30 10 C 3.441363 1.668038 0.467722 0
M  V30 11 C 2.699825 0.962062 1.399212 0
M  V30 12 C 4.193889 2.969530 0.504319 0
M  V30 13 C 4.533379 3.267205 -0.918351 0
M  V30 14 O 4.366730 2.022542 -1.569533 0
M  V30 15 C -1.133996 -0.121806 1.997874 0
M  V30 16 C -1.410234 1.205467 2.199899 0
M  V30 17 C -2.495780 1.758839 1.559029 0
M  V30 18 N -3.271754 1.019586 0.752843 0
M  V30 19 C -3.011352 -0.291677 0.544915 0
M  V30 20 N -3.838575 -1.070329 -0.307637 0
M  V30 21 C -3.723527 -2.488102 -0.588363 0 CFG=1
M  V30 22 C -4.753875 -2.990277 -1.559446 0
M  V30 23 C -2.353359 -2.891343 -0.952133 0
M  V30 24 C -1.532123 -2.202518 -1.838047 0
M  V30 25 C -0.261279 -2.670912 -2.112246 0
M  V30 26 C 0.239243 -3.819487 -1.530303 0
M  V30 27 C -0.526908 -4.548866 -0.641674 0
M  V30 28 C -1.783471 -4.045635 -0.400012 0
M  V30 29 N -1.945166 -0.843649 1.170918 0
M  V30 30 H 0.142993 -1.080824 5.963696 0
M  V30 31 H 0.615811 0.301313 4.966727 0
M  V30 32 H -1.146002 -0.004738 5.374424 0
M  V30 33 H 0.380777 -2.251680 4.055405 0
M  V30 34 H -1.366773 -1.750659 3.913413 0
M  V30 35 H 1.745589 -1.689279 -0.290647 0
M  V30 36 H 3.065186 -0.512679 -2.088372 0
M  V30 37 H 2.654712 1.470420 2.376024 0
M  V30 38 H 3.583589 3.802717 0.906853 0
M  V30 39 H 5.079297 2.899231 1.157525 0
M  V30 40 H 5.610496 3.567473 -1.001069 0
M  V30 41 H 3.864001 4.005915 -1.392086 0
M  V30 42 H -0.804158 1.826046 2.844065 0
M  V30 43 H -2.760434 2.820325 1.681581 0
M  V30 44 H -4.626558 -0.591242 -0.799221 0
M  V30 45 H -3.942168 -2.986212 0.406107 0
M  V30 46 H -5.502608 -3.636896 -1.062329 0
M  V30 47 H -4.271621 -3.617607 -2.324026 0
M  V30 48 H -5.329942 -2.140418 -1.992717 0
M  V30 49 H -1.915122 -1.310574 -2.289346 0
M  V30 50 H 0.406653 -2.153548 -2.804572 0
M  V30 51 H 1.235546 -4.199511 -1.736682 0
M  V30 52 H -0.227332 -5.455522 -0.137290 0
M  V30 53 H -2.418387 -4.587463 0.292555 0
M  V30 END ATOM
M  V30 BEGIN BOND
M  V30 1 1 1 2
M  V30 2 1 2 3
M  V30 3 1 3 4
M  V30 4 2 4 5
M  V30 5 1 4 6
M  V30 6 2 6 7
M  V30 7 1 7 8
M  V30 8 2 8 9
M  V30 9 1 9 10
M  V30 10 2 10 11
M  V30 11 1 10 12
M  V30 12 1 12 13
M  V30 13 1 13 14
M  V30 14 1 3 15
M  V30 15 2 15 16
M  V30 16 1 16 17
M  V30 17 2 17 18
M  V30 18 1 18 19
M  V30 19 1 19 20
M  V30 20 1 20 21
M  V30 21 1 21 22
M  V30 22 1 21 23
M  V30 23 2 23 24
M  V30 24 1 24 25
M  V30 25 2 25 26
M  V30 26 1 26 27
M  V30 27 2 27 28
M  V30 28 2 19 29
M  V30 29 1 11 6
M  V30 30 1 29 15
M  V30 31 1 14 9
M  V30 32 1 28 23
M  V30 33 1 1 30
M  V30 34 1 1 31
M  V30 35 1 1 32
M  V30 36 1 2 33
M  V30 37 1 2 34
M  V30 38 1 7 35
M  V30 39 1 8 36
M  V30 40 1 11 37
M  V30 41 1 12 38
M  V30 42 1 12 39
M  V30 43 1 13 40
M  V30 44 1 13 41
M  V30 45 1 16 42
M  V30 46 1 17 43
M  V30 47 1 20 44
M  V30 48 1 21 45 CFG=1
M  V30 49 1 22 46
M  V30 50 1 22 47
M  V30 51 1 22 48
M  V30 52 1 24 49
M  V30 53 1 25 50
M  V30 54 1 26 51
M  V30 55 1 27 52
M  V30 56 1 28 53
M  V30 END BOND
M  V30 END CTAB
M  END
>  <Dataset>  (253) 
ChEMBL_Kinases

>  <Ligand_Instance>  (253) 
nan

>  <PDB_ID>  (253) 
nan

>  <Standardized_SMILES>  (253) 
CCN(C(=O)c1ccc2c(c1)CCO2)c1ccnc(N[C@@H](C)c2ccccc2)n1

>  <Name>  (253) 
nan

>  <Pocket>  (253) 
nan

>  <ATP_Site>  (253) 
nan

>  <Peripheral>  (253) 
nan

>  <Num_H_Atoms_ProtBoundConf>  (253) 
nan

>  <Num_Resolved_Atoms>  (253) 
nan

>  <Num_Not_Resolved_Atoms>  (253) 
nan

$$$$
CHEMBL1092974
     RDKit          3D

  0  0  0  0  0  0  0  0  0  0999 V3000
M  V30 BEGIN CTAB
M  V30 COUNTS 54 57 0 0 0
M  V30 BEGIN ATOM
M  V30 1 C -0.543414 2.127418 4.329463 0
M  V30 2 C -0.431636 0.650397 3.939678 0
M  V30 3 N -0.226952 0.512168 2.508761 0
M  V30 4 C 1.172432 0.507106 2.151745 0
M  V30 5 O 2.139585 0.596088 2.985040 0
M  V30 6 C 1.890188 0.412726 0.885924 0
M  V30 7 C 1.755687 -0.707874 0.089335 0
M  V30 8 C 2.428838 -0.821898 -1.119510 0
M  V30 9 C 3.251586 0.203357 -1.540234 0
M  V30 10 C 3.959812 0.168234 -2.730047 0
M  V30 11 C 4.778596 1.223400 -3.112122 0
M  V30 12 C 4.918515 2.346120 -2.323108 0
M  V30 13 C 4.226213 2.414394 -1.129406 0
M  V30 14 C 3.423154 1.345574 -0.785285 0
M  V30 15 C 2.736914 1.422064 0.411252 0
M  V30 16 C -1.430150 0.409232 1.740348 0
M  V30 17 C -1.926802 1.598741 1.260217 0
M  V30 18 C -3.092807 1.550829 0.529645 0
M  V30 19 N -3.691023 0.367192 0.317007 0
M  V30 20 C -3.211665 -0.805058 0.783789 0
M  V30 21 N -3.890103 -2.029973 0.542644 0
M  V30 22 C -3.433410 -3.313094 0.996023 0 CFG=1
M  V30 23 C -4.402634 -4.421440 0.639972 0
M  V30 24 C -2.076111 -3.589858 0.452841 0
M  V30 25 C -2.020452 -3.276576 -0.901920 0
M  V30 26 C -0.847252 -3.458539 -1.620844 0
M  V30 27 C 0.267439 -3.958644 -0.961085 0
M  V30 28 C 0.197062 -4.260510 0.365254 0
M  V30 29 C -0.962674 -4.087101 1.102342 0
M  V30 30 N -2.072019 -0.767296 1.498516 0
M  V30 31 H -1.422611 2.591123 3.839397 0
M  V30 32 H 0.370947 2.655191 4.049714 0
M  V30 33 H -0.668331 2.155552 5.433560 0
M  V30 34 H -1.363138 0.115643 4.203372 0
M  V30 35 H 0.418479 0.245745 4.542490 0
M  V30 36 H 1.115639 -1.521181 0.401296 0
M  V30 37 H 2.342354 -1.683418 -1.759621 0
M  V30 38 H 3.871297 -0.700881 -3.372843 0
M  V30 39 H 5.300892 1.125206 -4.054121 0
M  V30 40 H 5.571297 3.151511 -2.659983 0
M  V30 41 H 4.321011 3.288171 -0.491373 0
M  V30 42 H 2.805902 2.290079 1.085136 0
M  V30 43 H -1.510506 2.587208 1.385704 0
M  V30 44 H -3.646792 2.359620 0.066484 0
M  V30 45 H -4.782795 -2.001500 -0.000596 0
M  V30 46 H -3.350289 -3.284740 2.098677 0
M  V30 47 H -5.231867 -4.328106 1.395306 0
M  V30 48 H -4.785866 -4.359309 -0.381961 0
M  V30 49 H -3.903708 -5.378219 0.878399 0
M  V30 50 H -2.815036 -2.883629 -1.521474 0
M  V30 51 H -0.744855 -3.231138 -2.683562 0
M  V30 52 H 1.221257 -4.134071 -1.430899 0
M  V30 53 H 1.028891 -4.651000 0.929206 0
M  V30 54 H -1.138132 -4.288487 2.150158 0
M  V30 END ATOM
M  V30 BEGIN BOND
M  V30 1 1 1 2
M  V30 2 1 2 3
M  V30 3 1 3 4
M  V30 4 2 4 5
M  V30 5 1 4 6
M  V30 6 2 6 7
M  V30 7 1 7 8
M  V30 8 2 8 9
M  V30 9 1 9 10
M  V30 10 2 10 11
M  V30 11 1 11 12
M  V30 12 2 12 13
M  V30 13 1 13 14
M  V30 14 2 14 15
M  V30 15 1 3 16
M  V30 16 2 16 17
M  V30 17 1 17 18
M  V30 18 2 18 19
M  V30 19 1 19 20
M  V30 20 1 20 21
M  V30 21 1 21 22
M  V30 22 1 22 23
M  V30 23 1 22 24
M  V30 24 2 24 25
M  V30 25 1 25 26
M  V30 26 2 26 27
M  V30 27 1 27 28
M  V30 28 2 28 29
M  V30 29 2 20 30
M  V30 30 1 15 6
M  V30 31 1 30 16
M  V30 32 1 14 9
M  V30 33 1 29 24
M  V30 34 1 1 31
M  V30 35 1 1 32
M  V30 36 1 1 33
M  V30 37 1 2 34
M  V30 38 1 2 35
M  V30 39 1 7 36
M  V30 40 1 8 37
M  V30 41 1 10 38
M  V30 42 1 11 39
M  V30 43 1 12 40
M  V30 44 1 13 41
M  V30 45 1 15 42
M  V30 46 1 17 43
M  V30 47 1 18 44
M  V30 48 1 21 45
M  V30 49 1 22 46 CFG=1
M  V30 50 1 23 47
M  V30 51 1 23 48
M  V30 52 1 23 49
M  V30 53 1 25 50
M  V30 54 1 26 51
M  V30 55 1 27 52
M  V30 56 1 28 53
M  V30 57 1 29 54
M  V30 END BOND
M  V30 END CTAB
M  END
>  <Dataset>  (254) 
ChEMBL_Kinases

>  <Ligand_Instance>  (254) 
nan

>  <PDB_ID>  (254) 
nan

>  <Standardized_SMILES>  (254) 
CCN(C(=O)c1ccc2ccccc2c1)c1ccnc(N[C@@H](C)c2ccccc2)n1

>  <Name>  (254) 
nan

>  <Pocket>  (254) 
nan

>  <ATP_Site>  (254) 
nan

>  <Peripheral>  (254) 
nan

>  <Num_H_Atoms_ProtBoundConf>  (254) 
nan

>  <Num_Resolved_Atoms>  (254) 
nan

>  <Num_Not_Resolved_Atoms>  (254) 
nan

$$$$
CHEMBL1097694
     RDKit          3D

  0  0  0  0  0  0  0  0  0  0999 V3000
M  V30 BEGIN CTAB
M  V30 COUNTS 41 43 0 0 0
M  V30 BEGIN ATOM
M  V30 1 C 3.124532 -6.176198 2.030083 0
M  V30 2 C 3.308233 -4.719875 1.620887 0
M  V30 3 C 2.381287 -4.367885 0.476581 0
M  V30 4 C 2.566881 -2.929826 0.077031 0
M  V30 5 O 3.425765 -2.246697 0.716755 0
M  V30 6 N 1.754140 -2.458434 -0.994171 0
M  V30 7 C 1.833496 -1.116636 -1.467943 0
M  V30 8 N 2.700757 -0.789221 -2.467029 0
M  V30 9 N 2.593606 0.502355 -2.731825 0
M  V30 10 C 1.670302 1.073788 -1.936324 0
M  V30 11 C 1.123418 2.323432 -1.730705 0
M  V30 12 C 0.148399 2.529621 -0.774860 0
M  V30 13 Cl -0.455324 4.166021 -0.622731 0
M  V30 14 C -0.323779 1.499121 0.017485 0
M  V30 15 C -1.357679 1.754613 1.020350 0
M  V30 16 C -1.104075 1.159987 2.262837 0
M  V30 17 C -2.021863 1.331560 3.307712 0
M  V30 18 C -3.140008 2.090886 3.040855 0
M  V30 19 C -4.126179 2.284371 4.138049 0
M  V30 20 C -3.421461 2.688810 1.835412 0
M  V30 21 C -2.501852 2.504072 0.824350 0
M  V30 22 C 0.215954 0.225635 -0.173733 0
M  V30 23 C 1.188430 0.061293 -1.139127 0
M  V30 24 H 3.382281 -6.313733 3.090680 0
M  V30 25 H 2.106874 -6.496897 1.804441 0
M  V30 26 H 3.823085 -6.755233 1.380423 0
M  V30 27 H 4.334441 -4.534974 1.265364 0
M  V30 28 H 3.072846 -4.094406 2.502573 0
M  V30 29 H 1.341830 -4.472797 0.816761 0
M  V30 30 H 2.585542 -5.034262 -0.386678 0
M  V30 31 H 1.074586 -3.103105 -1.456921 0
M  V30 32 H 3.095086 1.102826 -3.429359 0
M  V30 33 H 1.498174 3.140487 -2.359334 0
M  V30 34 H -0.238549 0.559383 2.505317 0
M  V30 35 H -1.833979 0.874815 4.273573 0
M  V30 36 H -4.762503 1.371210 4.282999 0
M  V30 37 H -3.611052 2.546706 5.085660 0
M  V30 38 H -4.824278 3.113281 3.922441 0
M  V30 39 H -4.300782 3.278310 1.646956 0
M  V30 40 H -2.638432 2.934663 -0.153575 0
M  V30 41 H -0.135315 -0.603118 0.433821 0
M  V30 END ATOM
M  V30 BEGIN BOND
M  V30 1 1 1 2
M  V30 2 1 2 3
M  V30 3 1 3 4
M  V30 4 2 4 5
M  V30 5 1 4 6
M  V30 6 1 6 7
M  V30 7 2 7 8
M  V30 8 1 8 9
M  V30 9 1 9 10
M  V30 10 2 10 11
M  V30 11 1 11 12
M  V30 12 1 12 13
M  V30 13 2 12 14
M  V30 14 1 14 15
M  V30 15 2 15 16
M  V30 16 1 16 17
M  V30 17 2 17 18
M  V30 18 1 18 19
M  V30 19 1 18 20
M  V30 20 2 20 21
M  V30 21 1 14 22
M  V30 22 2 22 23
M  V30 23 1 23 7
M  V30 24 1 23 10
M  V30 25 1 21 15
M  V30 26 1 1 24
M  V30 27 1 1 25
M  V30 28 1 1 26
M  V30 29 1 2 27
M  V30 30 1 2 28
M  V30 31 1 3 29
M  V30 32 1 3 30
M  V30 33 1 6 31
M  V30 34 1 9 32
M  V30 35 1 11 33
M  V30 36 1 16 34
M  V30 37 1 17 35
M  V30 38 1 19 36
M  V30 39 1 19 37
M  V30 40 1 19 38
M  V30 41 1 20 39
M  V30 42 1 21 40
M  V30 43 1 22 41
M  V30 END BOND
M  V30 END CTAB
M  END
>  <Dataset>  (255) 
ChEMBL_Kinases

>  <Ligand_Instance>  (255) 
nan

>  <PDB_ID>  (255) 
nan

>  <Standardized_SMILES>  (255) 
CCCC(=O)Nc1n[nH]c2cc(Cl)c(-c3ccc(C)cc3)cc12

>  <Name>  (255) 
nan

>  <Pocket>  (255) 
nan

>  <ATP_Site>  (255) 
nan

>  <Peripheral>  (255) 
nan

>  <Num_H_Atoms_ProtBoundConf>  (255) 
nan

>  <Num_Resolved_Atoms>  (255) 
nan

>  <Num_Not_Resolved_Atoms>  (255) 
nan

$$$$
CHEMBL1092011
     RDKit          3D

  0  0  0  0  0  0  0  0  0  0999 V3000
M  V30 BEGIN CTAB
M  V30 COUNTS 55 59 0 0 0
M  V30 BEGIN ATOM
M  V30 1 C 1.221722 -2.374925 3.164129 0
M  V30 2 C 1.718271 -1.192452 2.411913 0
M  V30 3 C 2.840860 -0.499305 2.815050 0
M  V30 4 C 3.304730 0.597808 2.120182 0
M  V30 5 C 2.670038 1.057600 0.987250 0
M  V30 6 C 3.065768 2.203871 0.169220 0
M  V30 7 O 2.403210 2.549146 -0.867883 0
M  V30 8 N 4.192703 3.030588 0.430179 0
M  V30 9 C 4.584963 4.157889 -0.371788 0
M  V30 10 C 5.844022 4.864995 0.148920 0
M  V30 11 C 3.635136 5.009695 -1.095722 0
M  V30 12 C 4.521690 4.123295 -1.872699 0
M  V30 13 C 1.550204 0.358707 0.593041 0
M  V30 14 C 1.079815 -0.734591 1.277252 0
M  V30 15 C -0.104961 -1.486577 0.872693 0
M  V30 16 C 0.112659 -2.539215 0.006651 0
M  V30 17 C -0.978119 -3.279206 -0.403010 0
M  V30 18 C -1.181827 -4.381238 -1.240520 0
M  V30 19 N -2.523282 -4.635915 -1.226765 0
M  V30 20 N -3.126208 -3.761079 -0.439432 0
M  V30 21 C -4.535188 -3.918067 -0.337359 0
M  V30 22 C -4.895691 -4.972492 0.509207 0
M  V30 23 F -4.007773 -5.776130 1.176403 0
M  V30 24 C -6.217956 -5.287648 0.739225 0
M  V30 25 C -7.248554 -4.563633 0.133717 0
M  V30 26 C -6.860956 -3.531745 -0.694133 0
M  V30 27 C -5.539779 -3.211418 -0.928389 0
M  V30 28 F -5.110480 -2.210136 -1.732612 0
M  V30 29 C -2.217995 -2.917365 0.081258 0
M  V30 30 N -2.470690 -1.901168 0.924098 0
M  V30 31 C -3.804179 -1.578040 1.392413 0
M  V30 32 C -1.372052 -1.187384 1.311827 0
M  V30 33 O -1.516340 -0.231141 2.089998 0
M  V30 34 H 0.981725 -2.163713 4.221779 0
M  V30 35 H 0.347735 -2.790894 2.612040 0
M  V30 36 H 1.979675 -3.199908 3.183481 0
M  V30 37 H 3.392288 -0.808362 3.703319 0
M  V30 38 H 4.183155 1.145483 2.430118 0
M  V30 39 H 4.737101 2.735064 1.295640 0
M  V30 40 H 6.221623 5.563773 -0.603355 0
M  V30 41 H 5.592676 5.357616 1.112036 0
M  V30 42 H 6.588686 4.070344 0.386090 0
M  V30 43 H 2.540693 4.866075 -1.108091 0
M  V30 44 H 3.889379 6.104202 -1.214505 0
M  V30 45 H 4.149154 3.165631 -2.289075 0
M  V30 46 H 5.365288 4.522141 -2.473716 0
M  V30 47 H 0.960213 0.612577 -0.275646 0
M  V30 48 H 1.087935 -2.812476 -0.365396 0
M  V30 49 H -0.396849 -4.899457 -1.775431 0
M  V30 50 H -6.524810 -6.107465 1.397046 0
M  V30 51 H -8.266844 -4.818588 0.320833 0
M  V30 52 H -7.610004 -2.922844 -1.201111 0
M  V30 53 H -4.325989 -2.447122 1.795775 0
M  V30 54 H -4.321233 -1.047499 0.567274 0
M  V30 55 H -3.660278 -0.848233 2.243830 0
M  V30 END ATOM
M  V30 BEGIN BOND
M  V30 1 1 1 2
M  V30 2 2 2 3
M  V30 3 1 3 4
M  V30 4 2 4 5
M  V30 5 1 5 6
M  V30 6 2 6 7
M  V30 7 1 6 8
M  V30 8 1 8 9
M  V30 9 1 9 10
M  V30 10 1 9 11
M  V30 11 1 11 12
M  V30 12 1 5 13
M  V30 13 2 13 14
M  V30 14 1 14 15
M  V30 15 2 15 16
M  V30 16 1 16 17
M  V30 17 1 17 18
M  V30 18 2 18 19
M  V30 19 1 19 20
M  V30 20 1 20 21
M  V30 21 2 21 22
M  V30 22 1 22 23
M  V30 23 1 22 24
M  V30 24 2 24 25
M  V30 25 1 25 26
M  V30 26 2 26 27
M  V30 27 1 27 28
M  V30 28 1 20 29
M  V30 29 1 29 30
M  V30 30 1 30 31
M  V30 31 1 30 32
M  V30 32 2 32 33
M  V30 33 1 14 2
M  V30 34 1 32 15
M  V30 35 1 12 9
M  V30 36 2 29 17
M  V30 37 1 27 21
M  V30 38 1 1 34
M  V30 39 1 1 35
M  V30 40 1 1 36
M  V30 41 1 3 37
M  V30 42 1 4 38
M  V30 43 1 8 39
M  V30 44 1 10 40
M  V30 45 1 10 41
M  V30 46 1 10 42
M  V30 47 1 11 43
M  V30 48 1 11 44
M  V30 49 1 12 45
M  V30 50 1 12 46
M  V30 51 1 13 47
M  V30 52 1 16 48
M  V30 53 1 18 49
M  V30 54 1 24 50
M  V30 55 1 25 51
M  V30 56 1 26 52
M  V30 57 1 31 53
M  V30 58 1 31 54
M  V30 59 1 31 55
M  V30 END BOND
M  V30 END CTAB
M  END
>  <Dataset>  (256) 
ChEMBL_Kinases

>  <Ligand_Instance>  (256) 
nan

>  <PDB_ID>  (256) 
nan

>  <Standardized_SMILES>  (256) 
Cc1ccc(C(=O)NC2(C)CC2)cc1-c1cc2cnn(-c3c(F)cccc3F)c2n(C)c1=O

>  <Name>  (256) 
nan

>  <Pocket>  (256) 
nan

>  <ATP_Site>  (256) 
nan

>  <Peripheral>  (256) 
nan

>  <Num_H_Atoms_ProtBoundConf>  (256) 
nan

>  <Num_Resolved_Atoms>  (256) 
nan

>  <Num_Not_Resolved_Atoms>  (256) 
nan

$$$$
CHEMBL1092012
     RDKit          3D

  0  0  0  0  0  0  0  0  0  0999 V3000
M  V30 BEGIN CTAB
M  V30 COUNTS 51 55 0 0 0
M  V30 BEGIN ATOM
M  V30 1 C 0.419909 -0.518358 4.228662 0
M  V30 2 C 1.334061 0.139001 3.242079 0
M  V30 3 C 2.533791 0.664893 3.677482 0
M  V30 4 C 3.427410 1.285470 2.826171 0
M  V30 5 C 3.107613 1.386432 1.471401 0
M  V30 6 C 3.937391 2.010286 0.436646 0
M  V30 7 O 3.619099 2.087263 -0.790291 0
M  V30 8 N 5.204150 2.596230 0.738460 0
M  V30 9 C 5.983503 3.193522 -0.291524 0
M  V30 10 C 6.899092 2.425144 -0.996194 0
M  V30 11 C 7.494656 3.285482 -1.922140 0
M  V30 12 O 6.954858 4.466963 -1.757114 0
M  V30 13 N 6.064230 4.453894 -0.810219 0
M  V30 14 C 1.907746 0.861069 1.032912 0
M  V30 15 C 1.007439 0.236457 1.887481 0
M  V30 16 C -0.265698 -0.323600 1.435753 0
M  V30 17 C -1.386076 0.454696 1.427824 0
M  V30 18 C -2.574236 -0.100412 0.996282 0
M  V30 19 C -3.869823 0.387201 0.860704 0
M  V30 20 N -4.595149 -0.655508 0.381529 0
M  V30 21 N -3.798670 -1.725040 0.228936 0
M  V30 22 C -4.423625 -2.902760 -0.269612 0
M  V30 23 C -4.807197 -4.035639 0.418827 0
M  V30 24 F -4.540688 -3.994297 1.746839 0
M  V30 25 C -5.401113 -5.087945 -0.211423 0
M  V30 26 C -5.655268 -5.094840 -1.552737 0
M  V30 27 C -5.288942 -3.983242 -2.281813 0
M  V30 28 C -4.678811 -2.898450 -1.643445 0
M  V30 29 F -4.366708 -1.869666 -2.461965 0
M  V30 30 C -2.541112 -1.421297 0.598709 0
M  V30 31 N -1.469268 -2.231391 0.586215 0
M  V30 32 C -1.543090 -3.606635 0.148571 0
M  V30 33 C -0.318732 -1.639732 1.020682 0
M  V30 34 O 0.722498 -2.360262 1.028903 0
M  V30 35 H 1.065612 -1.029880 4.975394 0
M  V30 36 H -0.239362 0.204754 4.723880 0
M  V30 37 H -0.143748 -1.343932 3.725670 0
M  V30 38 H 2.851670 0.626041 4.708088 0
M  V30 39 H 4.377743 1.713344 3.113007 0
M  V30 40 H 5.567783 2.593503 1.702665 0
M  V30 41 H 7.231325 1.395869 -0.993906 0
M  V30 42 H 8.244193 3.242223 -2.700377 0
M  V30 43 H 1.556109 0.884837 -0.008644 0
M  V30 44 H -1.375932 1.481331 1.744717 0
M  V30 45 H -4.215132 1.391600 1.092592 0
M  V30 46 H -5.685985 -5.957051 0.366641 0
M  V30 47 H -6.130243 -5.960691 -1.998214 0
M  V30 48 H -5.491834 -3.994130 -3.339466 0
M  V30 49 H -1.967302 -4.219378 0.968708 0
M  V30 50 H -2.025547 -3.714818 -0.823199 0
M  V30 51 H -0.464883 -3.925256 0.034513 0
M  V30 END ATOM
M  V30 BEGIN BOND
M  V30 1 1 1 2
M  V30 2 2 2 3
M  V30 3 1 3 4
M  V30 4 2 4 5
M  V30 5 1 5 6
M  V30 6 2 6 7
M  V30 7 1 6 8
M  V30 8 1 8 9
M  V30 9 1 9 10
M  V30 10 2 10 11
M  V30 11 1 11 12
M  V30 12 1 12 13
M  V30 13 1 5 14
M  V30 14 2 14 15
M  V30 15 1 15 16
M  V30 16 2 16 17
M  V30 17 1 17 18
M  V30 18 1 18 19
M  V30 19 2 19 20
M  V30 20 1 20 21
M  V30 21 1 21 22
M  V30 22 2 22 23
M  V30 23 1 23 24
M  V30 24 1 23 25
M  V30 25 2 25 26
M  V30 26 1 26 27
M  V30 27 2 27 28
M  V30 28 1 28 29
M  V30 29 1 21 30
M  V30 30 1 30 31
M  V30 31 1 31 32
M  V30 32 1 31 33
M  V30 33 2 33 34
M  V30 34 1 15 2
M  V30 35 1 33 16
M  V30 36 2 13 9
M  V30 37 2 30 18
M  V30 38 1 28 22
M  V30 39 1 1 35
M  V30 40 1 1 36
M  V30 41 1 1 37
M  V30 42 1 3 38
M  V30 43 1 4 39
M  V30 44 1 8 40
M  V30 45 1 10 41
M  V30 46 1 11 42
M  V30 47 1 14 43
M  V30 48 1 17 44
M  V30 49 1 19 45
M  V30 50 1 25 46
M  V30 51 1 26 47
M  V30 52 1 27 48
M  V30 53 1 32 49
M  V30 54 1 32 50
M  V30 55 1 32 51
M  V30 END BOND
M  V30 END CTAB
M  END
>  <Dataset>  (257) 
ChEMBL_Kinases

>  <Ligand_Instance>  (257) 
nan

>  <PDB_ID>  (257) 
nan

>  <Standardized_SMILES>  (257) 
Cc1ccc(C(=O)Nc2ccon2)cc1-c1cc2cnn(-c3c(F)cccc3F)c2n(C)c1=O

>  <Name>  (257) 
nan

>  <Pocket>  (257) 
nan

>  <ATP_Site>  (257) 
nan

>  <Peripheral>  (257) 
nan

>  <Num_H_Atoms_ProtBoundConf>  (257) 
nan

>  <Num_Resolved_Atoms>  (257) 
nan

>  <Num_Not_Resolved_Atoms>  (257) 
nan

$$$$
CHEMBL1092096
     RDKit          3D

  0  0  0  0  0  0  0  0  0  0999 V3000
M  V30 BEGIN CTAB
M  V30 COUNTS 58 61 0 0 0
M  V30 BEGIN ATOM
M  V30 1 C -2.667530 1.794133 1.144266 0
M  V30 2 C -1.922856 0.494990 1.445877 0
M  V30 3 N -1.454494 -0.005148 0.151646 0
M  V30 4 C -0.193322 0.312132 -0.448415 0
M  V30 5 O -0.277991 -0.308784 -1.557364 0
M  V30 6 C 0.738934 1.155281 0.272659 0
M  V30 7 C 1.229336 0.541345 1.426822 0
M  V30 8 C 2.130082 1.216254 2.230620 0
M  V30 9 C 2.520904 2.486564 1.866305 0
M  V30 10 C 2.025570 3.077593 0.722898 0
M  V30 11 C 1.125762 2.425841 -0.097069 0
M  V30 12 C 2.506042 4.452619 0.409918 0
M  V30 13 C 2.235799 5.271421 1.676101 0
M  V30 14 C 3.103739 4.738617 2.759299 0
M  V30 15 C 3.478493 3.297088 2.645644 0
M  V30 16 C -2.394420 -0.864839 -0.499291 0
M  V30 17 C -3.422516 -0.557139 -1.356289 0
M  V30 18 C -4.189648 -1.587106 -1.838686 0
M  V30 19 N -3.945317 -2.858313 -1.485754 0
M  V30 20 C -2.945710 -3.182109 -0.649076 0
M  V30 21 N -2.695798 -4.541852 -0.221604 0
M  V30 22 C -1.512737 -4.984470 0.493218 0 CFG=1
M  V30 23 C -1.788863 -6.306016 1.208983 0
M  V30 24 C -0.351449 -5.182526 -0.438746 0
M  V30 25 C 0.040980 -4.472483 -1.530110 0
M  V30 26 C 1.128752 -4.728678 -2.324645 0
M  V30 27 C 1.911947 -5.811771 -1.996803 0
M  V30 28 C 1.598372 -6.588945 -0.915273 0
M  V30 29 C 0.484883 -6.271804 -0.157007 0
M  V30 30 N -2.184778 -2.147773 -0.172072 0
M  V30 31 H -2.385829 2.183110 0.146291 0
M  V30 32 H -2.369008 2.564906 1.906482 0
M  V30 33 H -3.746180 1.549175 1.171158 0
M  V30 34 H -2.610303 -0.228276 1.923803 0
M  V30 35 H -1.101175 0.720839 2.139551 0
M  V30 36 H 0.969247 -0.442416 1.767966 0
M  V30 37 H 2.556690 0.816110 3.134100 0
M  V30 38 H 0.722804 2.846669 -0.985289 0
M  V30 39 H 3.622245 4.451962 0.281883 0
M  V30 40 H 2.015666 4.869445 -0.468704 0
M  V30 41 H 1.141428 5.204665 1.873106 0
M  V30 42 H 2.501125 6.313585 1.468736 0
M  V30 43 H 4.017301 5.373470 2.833872 0
M  V30 44 H 2.558994 4.948100 3.727832 0
M  V30 45 H 3.601884 2.898824 3.690792 0
M  V30 46 H 4.487795 3.229011 2.187268 0
M  V30 47 H -3.506605 0.503681 -1.556555 0
M  V30 48 H -4.982844 -1.303947 -2.504200 0
M  V30 49 H -3.454512 -5.215583 -0.468186 0
M  V30 50 H -1.228938 -4.247277 1.237882 0
M  V30 51 H -1.040826 -6.415176 2.037670 0
M  V30 52 H -1.664059 -7.184428 0.546248 0
M  V30 53 H -2.786094 -6.262337 1.688863 0
M  V30 54 H -0.581072 -3.631611 -1.785337 0
M  V30 55 H 1.311956 -4.069835 -3.162568 0
M  V30 56 H 2.776787 -5.994616 -2.653641 0
M  V30 57 H 2.253906 -7.413617 -0.724034 0
M  V30 58 H 0.352057 -6.966408 0.666221 0
M  V30 END ATOM
M  V30 BEGIN BOND
M  V30 1 1 1 2
M  V30 2 1 2 3
M  V30 3 1 3 4
M  V30 4 2 4 5
M  V30 5 1 4 6
M  V30 6 2 6 7
M  V30 7 1 7 8
M  V30 8 2 8 9
M  V30 9 1 9 10
M  V30 10 2 10 11
M  V30 11 1 10 12
M  V30 12 1 12 13
M  V30 13 1 13 14
M  V30 14 1 14 15
M  V30 15 1 3 16
M  V30 16 2 16 17
M  V30 17 1 17 18
M  V30 18 2 18 19
M  V30 19 1 19 20
M  V30 20 1 20 21
M  V30 21 1 21 22
M  V30 22 1 22 23
M  V30 23 1 22 24
M  V30 24 2 24 25
M  V30 25 1 25 26
M  V30 26 2 26 27
M  V30 27 1 27 28
M  V30 28 2 28 29
M  V30 29 2 20 30
M  V30 30 1 11 6
M  V30 31 1 30 16
M  V30 32 1 15 9
M  V30 33 1 29 24
M  V30 34 1 1 31
M  V30 35 1 1 32
M  V30 36 1 1 33
M  V30 37 1 2 34
M  V30 38 1 2 35
M  V30 39 1 7 36
M  V30 40 1 8 37
M  V30 41 1 11 38
M  V30 42 1 12 39
M  V30 43 1 12 40
M  V30 44 1 13 41
M  V30 45 1 13 42
M  V30 46 1 14 43
M  V30 47 1 14 44
M  V30 48 1 15 45
M  V30 49 1 15 46
M  V30 50 1 17 47
M  V30 51 1 18 48
M  V30 52 1 21 49
M  V30 53 1 22 50 CFG=1
M  V30 54 1 23 51
M  V30 55 1 23 52
M  V30 56 1 23 53
M  V30 57 1 25 54
M  V30 58 1 26 55
M  V30 59 1 27 56
M  V30 60 1 28 57
M  V30 61 1 29 58
M  V30 END BOND
M  V30 END CTAB
M  END
>  <Dataset>  (258) 
ChEMBL_Kinases

>  <Ligand_Instance>  (258) 
nan

>  <PDB_ID>  (258) 
nan

>  <Standardized_SMILES>  (258) 
CCN(C(=O)c1ccc2c(c1)CCCC2)c1ccnc(N[C@@H](C)c2ccccc2)n1

>  <Name>  (258) 
nan

>  <Pocket>  (258) 
nan

>  <ATP_Site>  (258) 
nan

>  <Peripheral>  (258) 
nan

>  <Num_H_Atoms_ProtBoundConf>  (258) 
nan

>  <Num_Resolved_Atoms>  (258) 
nan

>  <Num_Not_Resolved_Atoms>  (258) 
nan

$$$$
CHEMBL1092139
     RDKit          3D

  0  0  0  0  0  0  0  0  0  0999 V3000
M  V30 BEGIN CTAB
M  V30 COUNTS 31 33 0 0 0
M  V30 BEGIN ATOM
M  V30 1 O 1.969901 -1.429819 4.937612 0
M  V30 2 C 1.708649 -1.190229 3.720780 0
M  V30 3 O 2.478881 -1.004548 2.553426 0
M  V30 4 C 1.620186 -0.770471 1.493431 0
M  V30 5 C 1.907693 -0.522426 0.082489 0
M  V30 6 C 3.213856 -0.498640 -0.344013 0
M  V30 7 C 3.535822 -0.264844 -1.686391 0
M  V30 8 C 2.434086 -0.070848 -2.493118 0
M  V30 9 N 2.702842 0.171990 -3.865328 0 CHG=1 VAL=4
M  V30 10 O 3.399294 0.323529 -4.854031 0
M  V30 11 O 1.690614 0.386532 -4.781686 0 CHG=-1 VAL=1
M  V30 12 C 1.099382 -0.076259 -2.163413 0
M  V30 13 C 0.867961 -0.312960 -0.823568 0
M  V30 14 N 0.415491 -0.799993 1.925652 0
M  V30 15 C 0.318164 -1.055681 3.317906 0
M  V30 16 C -0.883670 -1.101762 3.926563 0
M  V30 17 C -2.099058 -0.910927 3.137914 0
M  V30 18 C -2.037688 -1.648845 1.948837 0
M  V30 19 C -3.091225 -1.582748 1.027935 0
M  V30 20 C -4.162988 -0.773168 1.349639 0
M  V30 21 N -4.202412 -0.073073 2.498959 0
M  V30 22 C -3.192938 -0.120727 3.407904 0
M  V30 23 H 4.066670 -0.657048 0.336327 0
M  V30 24 H 4.529155 -0.238411 -2.057123 0
M  V30 25 H 0.319419 0.085984 -2.876318 0
M  V30 26 H -0.175387 -0.334273 -0.480003 0
M  V30 27 H -0.778480 -1.285484 5.008251 0
M  V30 28 H -1.267056 -2.331673 1.585499 0
M  V30 29 H -3.097755 -2.135363 0.081484 0
M  V30 30 H -4.998298 -0.701291 0.650254 0
M  V30 31 H -3.136475 0.399166 4.349595 0
M  V30 END ATOM
M  V30 BEGIN BOND
M  V30 1 2 1 2
M  V30 2 1 2 3
M  V30 3 1 3 4
M  V30 4 1 4 5
M  V30 5 2 5 6
M  V30 6 1 6 7
M  V30 7 2 7 8
M  V30 8 1 8 9
M  V30 9 2 9 10
M  V30 10 1 9 11
M  V30 11 1 8 12
M  V30 12 2 12 13
M  V30 13 2 4 14
M  V30 14 1 14 15
M  V30 15 2 15 16
M  V30 16 1 16 17
M  V30 17 2 17 18
M  V30 18 1 18 19
M  V30 19 2 19 20
M  V30 20 1 20 21
M  V30 21 2 21 22
M  V30 22 1 15 2
M  V30 23 1 22 17
M  V30 24 1 13 5
M  V30 25 1 6 23
M  V30 26 1 7 24
M  V30 27 1 12 25
M  V30 28 1 13 26
M  V30 29 1 16 27
M  V30 30 1 18 28
M  V30 31 1 19 29
M  V30 32 1 20 30
M  V30 33 1 22 31
M  V30 END BOND
M  V30 END CTAB
M  END
>  <Dataset>  (259) 
ChEMBL_Kinases

>  <Ligand_Instance>  (259) 
nan

>  <PDB_ID>  (259) 
nan

>  <Standardized_SMILES>  (259) 
O=C1OC(c2ccc([N+](=O)[O-])cc2)=N/C1=C\c1cccnc1

>  <Name>  (259) 
nan

>  <Pocket>  (259) 
nan

>  <ATP_Site>  (259) 
nan

>  <Peripheral>  (259) 
nan

>  <Num_H_Atoms_ProtBoundConf>  (259) 
nan

>  <Num_Resolved_Atoms>  (259) 
nan

>  <Num_Not_Resolved_Atoms>  (259) 
nan

$$$$
CHEMBL1092250
     RDKit          3D

  0  0  0  0  0  0  0  0  0  0999 V3000
M  V30 BEGIN CTAB
M  V30 COUNTS 39 41 0 0 0
M  V30 BEGIN ATOM
M  V30 1 C 2.470422 -6.010892 4.004789 0
M  V30 2 C 2.109760 -5.253420 3.138726 0
M  V30 3 C 1.660957 -4.355582 2.088261 0
M  V30 4 C 0.764507 -4.867789 1.181260 0
M  V30 5 C 0.335646 -4.024369 0.184987 0
M  V30 6 C 0.819941 -2.737671 0.153166 0
M  V30 7 C 1.716839 -2.230638 1.063427 0
M  V30 8 N 2.226666 -0.911941 1.049580 0
M  V30 9 C 1.980938 0.235428 0.288594 0
M  V30 10 C 2.964806 0.850053 -0.496962 0
M  V30 11 C 2.801904 1.980334 -1.270120 0
M  V30 12 N 1.577373 2.521397 -1.249748 0
M  V30 13 C 0.540660 2.040167 -0.543573 0
M  V30 14 C -0.696254 2.652721 -0.566211 0
M  V30 15 C -1.759167 2.142870 0.175740 0
M  V30 16 O -3.000852 2.757383 0.153160 0
M  V30 17 C -3.127516 3.925718 -0.661670 0
M  V30 18 C -1.538626 1.008747 0.933012 0
M  V30 19 O -2.622744 0.534791 1.656210 0
M  V30 20 C -2.418606 -0.631029 2.442418 0
M  V30 21 C -0.291944 0.424611 0.931247 0
M  V30 22 C 0.778017 0.906929 0.206516 0
M  V30 23 C 2.154594 -3.067995 2.068189 0
M  V30 24 H 2.776948 -6.688424 4.758078 0
M  V30 25 H 0.389034 -5.865271 1.205892 0
M  V30 26 H -0.369427 -4.353682 -0.566394 0
M  V30 27 H 0.483419 -2.055434 -0.639143 0
M  V30 28 H 2.957989 -0.596488 1.709309 0
M  V30 29 H 3.968640 0.396901 -0.506522 0
M  V30 30 H 3.626609 2.367188 -1.834600 0
M  V30 31 H -0.811984 3.542988 -1.180358 0
M  V30 32 H -2.564636 4.731089 -0.134554 0
M  V30 33 H -2.788327 3.763410 -1.691683 0
M  V30 34 H -4.208887 4.240076 -0.611553 0
M  V30 35 H -1.960097 -1.442115 1.826544 0
M  V30 36 H -1.668066 -0.376933 3.213904 0
M  V30 37 H -3.370687 -0.987540 2.882228 0
M  V30 38 H -0.190178 -0.437930 1.536453 0
M  V30 39 H 2.869294 -2.768462 2.847513 0
M  V30 END ATOM
M  V30 BEGIN BOND
M  V30 1 3 1 2
M  V30 2 1 2 3
M  V30 3 2 3 4
M  V30 4 1 4 5
M  V30 5 2 5 6
M  V30 6 1 6 7
M  V30 7 1 7 8
M  V30 8 1 8 9
M  V30 9 2 9 10
M  V30 10 1 10 11
M  V30 11 2 11 12
M  V30 12 1 12 13
M  V30 13 2 13 14
M  V30 14 1 14 15
M  V30 15 1 15 16
M  V30 16 1 16 17
M  V30 17 2 15 18
M  V30 18 1 18 19
M  V30 19 1 19 20
M  V30 20 1 18 21
M  V30 21 2 21 22
M  V30 22 2 7 23
M  V30 23 1 23 3
M  V30 24 1 22 9
M  V30 25 1 22 13
M  V30 26 1 1 24
M  V30 27 1 4 25
M  V30 28 1 5 26
M  V30 29 1 6 27
M  V30 30 1 8 28
M  V30 31 1 10 29
M  V30 32 1 11 30
M  V30 33 1 14 31
M  V30 34 1 17 32
M  V30 35 1 17 33
M  V30 36 1 17 34
M  V30 37 1 20 35
M  V30 38 1 20 36
M  V30 39 1 20 37
M  V30 40 1 21 38
M  V30 41 1 23 39
M  V30 END BOND
M  V30 END CTAB
M  END
>  <Dataset>  (260) 
ChEMBL_Kinases

>  <Ligand_Instance>  (260) 
nan

>  <PDB_ID>  (260) 
nan

>  <Standardized_SMILES>  (260) 
C#Cc1cccc(Nc2ccnc3cc(OC)c(OC)cc23)c1

>  <Name>  (260) 
nan

>  <Pocket>  (260) 
nan

>  <ATP_Site>  (260) 
nan

>  <Peripheral>  (260) 
nan

>  <Num_H_Atoms_ProtBoundConf>  (260) 
nan

>  <Num_Resolved_Atoms>  (260) 
nan

>  <Num_Not_Resolved_Atoms>  (260) 
nan

$$$$
CHEMBL1092349
     RDKit          3D

  0  0  0  0  0  0  0  0  0  0999 V3000
M  V30 BEGIN CTAB
M  V30 COUNTS 48 50 0 0 0
M  V30 BEGIN ATOM
M  V30 1 C 2.003172 -2.595453 3.675346 0
M  V30 2 C 2.602690 -1.211037 3.795914 0
M  V30 3 N 2.408689 -0.443403 2.572913 0
M  V30 4 C 3.472410 -0.598199 1.621868 0
M  V30 5 O 4.515186 -1.321005 1.781863 0
M  V30 6 C 3.551655 0.038653 0.311005 0
M  V30 7 C 3.528951 1.412432 0.112202 0
M  V30 8 C 3.605816 1.978260 -1.144478 0
M  V30 9 C 3.707817 1.108246 -2.213363 0
M  V30 10 C 3.734810 -0.256485 -2.074441 0
M  V30 11 Cl 3.864317 -1.382629 -3.413099 0
M  V30 12 C 3.656660 -0.784631 -0.813492 0
M  V30 13 C 1.227899 0.358630 2.430402 0
M  V30 14 C 1.199285 1.692503 2.820174 0
M  V30 15 C 0.021191 2.397164 2.651639 0
M  V30 16 N -1.069004 1.805770 2.123918 0
M  V30 17 C -1.035555 0.494378 1.742723 0
M  V30 18 N -2.115577 -0.233790 1.175466 0
M  V30 19 C -2.353840 -0.392172 -0.242098 0 CFG=1
M  V30 20 C -1.173066 -1.101244 -0.850462 0
M  V30 21 C -3.584733 -1.209075 -0.396595 0
M  V30 22 C -4.637884 -0.806051 0.431539 0
M  V30 23 C -5.872868 -1.444378 0.435665 0
M  V30 24 C -6.028593 -2.517509 -0.427707 0
M  V30 25 C -5.005978 -2.934791 -1.254184 0
M  V30 26 C -3.791237 -2.281614 -1.236289 0
M  V30 27 N 0.108590 -0.183817 1.908054 0
M  V30 28 H 2.482175 -3.223705 4.439662 0
M  V30 29 H 0.922240 -2.597627 3.834959 0
M  V30 30 H 2.276129 -2.943004 2.644351 0
M  V30 31 H 3.694092 -1.348526 4.028266 0
M  V30 32 H 2.128280 -0.721364 4.660763 0
M  V30 33 H 3.447431 2.053643 0.986682 0
M  V30 34 H 3.586001 3.058406 -1.278921 0
M  V30 35 H 3.772309 1.476823 -3.227459 0
M  V30 36 H 3.675378 -1.862185 -0.666197 0
M  V30 37 H 2.097573 2.143682 3.244172 0
M  V30 38 H -0.029354 3.433995 2.945290 0
M  V30 39 H -2.622977 -0.578365 2.026928 0
M  V30 40 H -2.424385 0.597315 -0.772115 0
M  V30 41 H -0.266222 -0.457269 -0.691809 0
M  V30 42 H -0.971220 -2.000643 -0.220314 0
M  V30 43 H -1.314483 -1.306925 -1.913167 0
M  V30 44 H -4.560566 0.021880 1.117173 0
M  V30 45 H -6.675730 -1.117063 1.084263 0
M  V30 46 H -6.978326 -3.069261 -0.476485 0
M  V30 47 H -5.093537 -3.774808 -1.946489 0
M  V30 48 H -2.941582 -2.540964 -1.849308 0
M  V30 END ATOM
M  V30 BEGIN BOND
M  V30 1 1 1 2
M  V30 2 1 2 3
M  V30 3 1 3 4
M  V30 4 2 4 5
M  V30 5 1 4 6
M  V30 6 2 6 7
M  V30 7 1 7 8
M  V30 8 2 8 9
M  V30 9 1 9 10
M  V30 10 1 10 11
M  V30 11 2 10 12
M  V30 12 1 3 13
M  V30 13 2 13 14
M  V30 14 1 14 15
M  V30 15 2 15 16
M  V30 16 1 16 17
M  V30 17 1 17 18
M  V30 18 1 18 19
M  V30 19 1 19 20
M  V30 20 1 19 21
M  V30 21 2 21 22
M  V30 22 1 22 23
M  V30 23 2 23 24
M  V30 24 1 24 25
M  V30 25 2 25 26
M  V30 26 2 17 27
M  V30 27 1 12 6
M  V30 28 1 27 13
M  V30 29 1 26 21
M  V30 30 1 1 28
M  V30 31 1 1 29
M  V30 32 1 1 30
M  V30 33 1 2 31
M  V30 34 1 2 32
M  V30 35 1 7 33
M  V30 36 1 8 34
M  V30 37 1 9 35
M  V30 38 1 12 36
M  V30 39 1 14 37
M  V30 40 1 15 38
M  V30 41 1 18 39
M  V30 42 1 19 40 CFG=3
M  V30 43 1 20 41
M  V30 44 1 20 42
M  V30 45 1 20 43
M  V30 46 1 22 44
M  V30 47 1 23 45
M  V30 48 1 24 46
M  V30 49 1 25 47
M  V30 50 1 26 48
M  V30 END BOND
M  V30 END CTAB
M  END
>  <Dataset>  (261) 
ChEMBL_Kinases

>  <Ligand_Instance>  (261) 
nan

>  <PDB_ID>  (261) 
nan

>  <Standardized_SMILES>  (261) 
CCN(C(=O)c1cccc(Cl)c1)c1ccnc(N[C@@H](C)c2ccccc2)n1

>  <Name>  (261) 
nan

>  <Pocket>  (261) 
nan

>  <ATP_Site>  (261) 
nan

>  <Peripheral>  (261) 
nan

>  <Num_H_Atoms_ProtBoundConf>  (261) 
nan

>  <Num_Resolved_Atoms>  (261) 
nan

>  <Num_Not_Resolved_Atoms>  (261) 
nan

$$$$
CHEMBL1092350
     RDKit          3D

  0  0  0  0  0  0  0  0  0  0999 V3000
M  V30 BEGIN CTAB
M  V30 COUNTS 48 50 0 0 0
M  V30 BEGIN ATOM
M  V30 1 C 1.261271 -2.519757 3.189593 0
M  V30 2 C 2.219556 -1.367911 3.379868 0
M  V30 3 N 2.270295 -0.476153 2.243055 0
M  V30 4 C 3.220866 -0.720912 1.215196 0
M  V30 5 O 3.996648 -1.736959 1.361763 0
M  V30 6 C 3.493737 -0.013426 -0.018670 0
M  V30 7 C 2.579476 0.532169 -0.878918 0
M  V30 8 C 2.898545 1.189144 -2.049366 0
M  V30 9 C 4.217422 1.298933 -2.362817 0
M  V30 10 Cl 4.806437 2.103895 -3.819557 0
M  V30 11 C 5.223759 0.792823 -1.578365 0
M  V30 12 C 4.821861 0.144738 -0.415654 0
M  V30 13 C 1.254665 0.538038 2.389266 0
M  V30 14 C 1.243426 1.796998 2.977315 0
M  V30 15 C 0.054661 2.492676 2.921532 0
M  V30 16 N -1.027435 1.967437 2.325532 0
M  V30 17 C -0.982775 0.732741 1.759251 0
M  V30 18 N -2.114505 0.098476 1.123933 0
M  V30 19 C -2.182142 -0.594821 -0.169253 0 CFG=1
M  V30 20 C -1.125803 -1.658512 -0.261581 0
M  V30 21 C -3.512683 -1.291950 -0.150510 0
M  V30 22 C -4.584227 -0.528629 0.282743 0
M  V30 23 C -5.837745 -1.079432 0.357278 0
M  V30 24 C -5.983459 -2.398749 -0.011018 0
M  V30 25 C -4.894060 -3.162658 -0.449377 0
M  V30 26 C -3.623711 -2.634554 -0.533459 0
M  V30 27 N 0.169503 0.019881 1.795495 0
M  V30 28 H 1.463720 -3.253994 3.999519 0
M  V30 29 H 0.213085 -2.179467 3.358227 0
M  V30 30 H 1.411038 -3.042792 2.233470 0
M  V30 31 H 3.260613 -1.763972 3.509375 0
M  V30 32 H 1.972306 -0.816433 4.292876 0
M  V30 33 H 1.540384 0.434447 -0.616063 0
M  V30 34 H 2.143475 1.606973 -2.713500 0
M  V30 35 H 6.294945 0.822748 -1.727436 0
M  V30 36 H 5.575945 -0.277822 0.248190 0
M  V30 37 H 2.206750 2.010996 3.396822 0
M  V30 38 H 0.104689 3.454330 3.399349 0
M  V30 39 H -2.903706 0.231716 1.787800 0
M  V30 40 H -2.073203 0.094070 -1.014651 0
M  V30 41 H -0.100008 -1.240809 -0.143051 0
M  V30 42 H -1.235871 -2.466763 0.477824 0
M  V30 43 H -1.130408 -2.068507 -1.309200 0
M  V30 44 H -4.469326 0.507731 0.565013 0
M  V30 45 H -6.669580 -0.495126 0.696908 0
M  V30 46 H -6.960189 -2.864388 0.035449 0
M  V30 47 H -5.006980 -4.199095 -0.737553 0
M  V30 48 H -2.757237 -3.184583 -0.867918 0
M  V30 END ATOM
M  V30 BEGIN BOND
M  V30 1 1 1 2
M  V30 2 1 2 3
M  V30 3 1 3 4
M  V30 4 2 4 5
M  V30 5 1 4 6
M  V30 6 2 6 7
M  V30 7 1 7 8
M  V30 8 2 8 9
M  V30 9 1 9 10
M  V30 10 1 9 11
M  V30 11 2 11 12
M  V30 12 1 3 13
M  V30 13 2 13 14
M  V30 14 1 14 15
M  V30 15 2 15 16
M  V30 16 1 16 17
M  V30 17 1 17 18
M  V30 18 1 18 19
M  V30 19 1 19 20
M  V30 20 1 19 21
M  V30 21 2 21 22
M  V30 22 1 22 23
M  V30 23 2 23 24
M  V30 24 1 24 25
M  V30 25 2 25 26
M  V30 26 2 17 27
M  V30 27 1 12 6
M  V30 28 1 27 13
M  V30 29 1 26 21
M  V30 30 1 1 28
M  V30 31 1 1 29
M  V30 32 1 1 30
M  V30 33 1 2 31
M  V30 34 1 2 32
M  V30 35 1 7 33
M  V30 36 1 8 34
M  V30 37 1 11 35
M  V30 38 1 12 36
M  V30 39 1 14 37
M  V30 40 1 15 38
M  V30 41 1 18 39
M  V30 42 1 19 40 CFG=3
M  V30 43 1 20 41
M  V30 44 1 20 42
M  V30 45 1 20 43
M  V30 46 1 22 44
M  V30 47 1 23 45
M  V30 48 1 24 46
M  V30 49 1 25 47
M  V30 50 1 26 48
M  V30 END BOND
M  V30 END CTAB
M  END
>  <Dataset>  (262) 
ChEMBL_Kinases

>  <Ligand_Instance>  (262) 
nan

>  <PDB_ID>  (262) 
nan

>  <Standardized_SMILES>  (262) 
CCN(C(=O)c1ccc(Cl)cc1)c1ccnc(N[C@@H](C)c2ccccc2)n1

>  <Name>  (262) 
nan

>  <Pocket>  (262) 
nan

>  <ATP_Site>  (262) 
nan

>  <Peripheral>  (262) 
nan

>  <Num_H_Atoms_ProtBoundConf>  (262) 
nan

>  <Num_Resolved_Atoms>  (262) 
nan

>  <Num_Not_Resolved_Atoms>  (262) 
nan

$$$$
CHEMBL1092971
     RDKit          3D

  0  0  0  0  0  0  0  0  0  0999 V3000
M  V30 BEGIN CTAB
M  V30 COUNTS 48 50 0 0 0
M  V30 BEGIN ATOM
M  V30 1 C 1.338236 -1.806267 4.223974 0
M  V30 2 C 1.428628 -2.173340 2.756656 0
M  V30 3 N 1.658802 -1.034083 1.894700 0
M  V30 4 C 3.053333 -0.790668 1.698500 0
M  V30 5 O 4.026890 -1.419741 2.235796 0
M  V30 6 C 3.342861 0.299966 0.774119 0
M  V30 7 C 3.532456 1.656744 0.919375 0
M  V30 8 C 3.794751 2.399257 -0.210314 0
M  V30 9 C 3.878989 1.879028 -1.463364 0
M  V30 10 C 3.691510 0.510093 -1.640438 0
M  V30 11 C 3.424344 -0.263171 -0.504553 0
M  V30 12 Cl 3.221883 -1.970994 -0.945699 0
M  V30 13 C 0.610464 -0.272736 1.327978 0
M  V30 14 C 0.267625 0.782006 2.183219 0
M  V30 15 C -0.737199 1.694188 1.875646 0
M  V30 16 N -1.370255 1.500816 0.694124 0
M  V30 17 C -1.021126 0.469017 -0.121040 0
M  V30 18 N -1.840654 0.491214 -1.295282 0
M  V30 19 C -2.358500 -0.855145 -1.603447 0 CFG=1
M  V30 20 C -1.240255 -1.776015 -1.989883 0
M  V30 21 C -3.040507 -1.314745 -0.350433 0
M  V30 22 C -3.906415 -0.479698 0.311886 0
M  V30 23 C -4.561685 -0.822800 1.500116 0
M  V30 24 C -4.285667 -2.090466 1.996877 0
M  V30 25 C -3.410973 -2.955192 1.343788 0
M  V30 26 C -2.797068 -2.563834 0.178277 0
M  V30 27 N -0.056261 -0.406275 0.171814 0
M  V30 28 H 2.326333 -1.588210 4.675876 0
M  V30 29 H 0.622577 -1.013991 4.448952 0
M  V30 30 H 0.956320 -2.711682 4.782219 0
M  V30 31 H 0.476836 -2.657738 2.459947 0
M  V30 32 H 2.234241 -2.930758 2.672905 0
M  V30 33 H 3.438253 1.917699 1.956872 0
M  V30 34 H 3.930925 3.455321 0.009156 0
M  V30 35 H 4.092946 2.619083 -2.231400 0
M  V30 36 H 3.769213 0.156620 -2.656447 0
M  V30 37 H 0.733248 1.003556 3.159831 0
M  V30 38 H -1.003613 2.513292 2.537230 0
M  V30 39 H -2.016368 1.375723 -1.832085 0
M  V30 40 H -3.034401 -0.740114 -2.444968 0
M  V30 41 H -0.534791 -1.220303 -2.658899 0
M  V30 42 H -0.663005 -2.214665 -1.184882 0
M  V30 43 H -1.641734 -2.630830 -2.582317 0
M  V30 44 H -4.128599 0.524917 -0.082604 0
M  V30 45 H -5.249390 -0.166071 2.020858 0
M  V30 46 H -4.787515 -2.366883 2.925925 0
M  V30 47 H -3.292481 -3.902509 1.841888 0
M  V30 48 H -2.129179 -3.276829 -0.285724 0
M  V30 END ATOM
M  V30 BEGIN BOND
M  V30 1 1 1 2
M  V30 2 1 2 3
M  V30 3 1 3 4
M  V30 4 2 4 5
M  V30 5 1 4 6
M  V30 6 2 6 7
M  V30 7 1 7 8
M  V30 8 2 8 9
M  V30 9 1 9 10
M  V30 10 2 10 11
M  V30 11 1 11 12
M  V30 12 1 3 13
M  V30 13 2 13 14
M  V30 14 1 14 15
M  V30 15 2 15 16
M  V30 16 1 16 17
M  V30 17 1 17 18
M  V30 18 1 18 19
M  V30 19 1 19 20
M  V30 20 1 19 21
M  V30 21 2 21 22
M  V30 22 1 22 23
M  V30 23 2 23 24
M  V30 24 1 24 25
M  V30 25 2 25 26
M  V30 26 2 17 27
M  V30 27 1 11 6
M  V30 28 1 27 13
M  V30 29 1 26 21
M  V30 30 1 1 28
M  V30 31 1 1 29
M  V30 32 1 1 30
M  V30 33 1 2 31
M  V30 34 1 2 32
M  V30 35 1 7 33
M  V30 36 1 8 34
M  V30 37 1 9 35
M  V30 38 1 10 36
M  V30 39 1 14 37
M  V30 40 1 15 38
M  V30 41 1 18 39
M  V30 42 1 19 40 CFG=3
M  V30 43 1 20 41
M  V30 44 1 20 42
M  V30 45 1 20 43
M  V30 46 1 22 44
M  V30 47 1 23 45
M  V30 48 1 24 46
M  V30 49 1 25 47
M  V30 50 1 26 48
M  V30 END BOND
M  V30 END CTAB
M  END
>  <Dataset>  (263) 
ChEMBL_Kinases

>  <Ligand_Instance>  (263) 
nan

>  <PDB_ID>  (263) 
nan

>  <Standardized_SMILES>  (263) 
CCN(C(=O)c1ccccc1Cl)c1ccnc(N[C@@H](C)c2ccccc2)n1

>  <Name>  (263) 
nan

>  <Pocket>  (263) 
nan

>  <ATP_Site>  (263) 
nan

>  <Peripheral>  (263) 
nan

>  <Num_H_Atoms_ProtBoundConf>  (263) 
nan

>  <Num_Resolved_Atoms>  (263) 
nan

>  <Num_Not_Resolved_Atoms>  (263) 
nan

$$$$
CHEMBL1092676
     RDKit          3D

  0  0  0  0  0  0  0  0  0  0999 V3000
M  V30 BEGIN CTAB
M  V30 COUNTS 54 56 0 0 0
M  V30 BEGIN ATOM
M  V30 1 C 0.090804 -1.030975 3.279108 0
M  V30 2 C 0.375380 0.472211 3.191307 0
M  V30 3 N 0.168344 0.936631 1.832366 0
M  V30 4 C 0.867072 1.115899 0.617297 0
M  V30 5 O 0.088851 1.583804 -0.258186 0
M  V30 6 C 2.285370 0.732986 0.643521 0
M  V30 7 C 3.215438 1.753322 0.459844 0
M  V30 8 C 4.565532 1.375480 0.498042 0
M  V30 9 C 4.980253 0.067271 0.707149 0
M  V30 10 C 6.380546 -0.374402 0.748819 0
M  V30 11 C 4.013815 -0.897833 0.882867 0
M  V30 12 C 4.238431 -2.354283 1.129432 0
M  V30 13 C 2.661271 -0.580716 0.851974 0
M  V30 14 C -1.188123 1.351902 1.598800 0
M  V30 15 C -1.762493 2.571764 1.739919 0
M  V30 16 C -3.114817 2.602839 1.408987 0
M  V30 17 N -3.773364 1.513422 0.989359 0
M  V30 18 C -3.187631 0.325028 0.857484 0
M  V30 19 N -4.117343 -0.647992 0.369297 0
M  V30 20 C -4.205582 -1.274899 -0.908273 0 CFG=1
M  V30 21 C -4.063205 -0.199978 -1.977805 0
M  V30 22 C -3.395747 -2.462421 -1.138372 0
M  V30 23 C -2.096168 -2.715578 -0.826147 0
M  V30 24 C -1.346501 -3.836761 -1.052169 0
M  V30 25 C -1.988740 -4.881376 -1.694417 0
M  V30 26 C -3.321886 -4.744801 -2.065867 0
M  V30 27 C -4.012396 -3.558207 -1.791256 0
M  V30 28 N -1.908435 0.308521 1.174974 0
M  V30 29 H -0.705197 -1.241454 4.013044 0
M  V30 30 H 1.031507 -1.550437 3.493636 0
M  V30 31 H -0.238725 -1.406643 2.275690 0
M  V30 32 H -0.310309 0.962151 3.904895 0
M  V30 33 H 1.410144 0.661327 3.541948 0
M  V30 34 H 2.949827 2.789408 0.293109 0
M  V30 35 H 5.323667 2.128565 0.363380 0
M  V30 36 H 6.505521 -1.404387 0.366417 0
M  V30 37 H 6.820286 -0.215461 1.753076 0
M  V30 38 H 6.975002 0.264001 0.063633 0
M  V30 39 H 4.053309 -2.954843 0.227298 0
M  V30 40 H 3.512443 -2.734322 1.909139 0
M  V30 41 H 5.240172 -2.505351 1.566117 0
M  V30 42 H 1.842365 -1.285314 0.979190 0
M  V30 43 H -1.119435 3.342706 2.080666 0
M  V30 44 H -3.579530 3.590629 1.526471 0
M  V30 45 H -4.808000 -0.874391 1.151789 0
M  V30 46 H -5.300834 -1.593789 -0.998050 0
M  V30 47 H -4.167688 -0.636522 -2.986498 0
M  V30 48 H -2.988697 0.151821 -1.922031 0
M  V30 49 H -4.755395 0.606060 -1.757294 0
M  V30 50 H -1.562927 -1.937282 -0.341658 0
M  V30 51 H -0.322555 -3.929419 -0.764277 0
M  V30 52 H -1.514451 -5.816161 -1.930399 0
M  V30 53 H -3.815767 -5.555442 -2.561704 0
M  V30 54 H -5.032449 -3.529760 -2.106939 0
M  V30 END ATOM
M  V30 BEGIN BOND
M  V30 1 1 1 2
M  V30 2 1 2 3
M  V30 3 1 3 4
M  V30 4 2 4 5
M  V30 5 1 4 6
M  V30 6 2 6 7
M  V30 7 1 7 8
M  V30 8 2 8 9
M  V30 9 1 9 10
M  V30 10 1 9 11
M  V30 11 1 11 12
M  V30 12 2 11 13
M  V30 13 1 3 14
M  V30 14 2 14 15
M  V30 15 1 15 16
M  V30 16 2 16 17
M  V30 17 1 17 18
M  V30 18 1 18 19
M  V30 19 1 19 20
M  V30 20 1 20 21
M  V30 21 1 20 22
M  V30 22 2 22 23
M  V30 23 1 23 24
M  V30 24 2 24 25
M  V30 25 1 25 26
M  V30 26 2 26 27
M  V30 27 2 18 28
M  V30 28 1 13 6
M  V30 29 1 28 14
M  V30 30 1 27 22
M  V30 31 1 1 29
M  V30 32 1 1 30
M  V30 33 1 1 31
M  V30 34 1 2 32
M  V30 35 1 2 33
M  V30 36 1 7 34
M  V30 37 1 8 35
M  V30 38 1 10 36
M  V30 39 1 10 37
M  V30 40 1 10 38
M  V30 41 1 12 39
M  V30 42 1 12 40
M  V30 43 1 12 41
M  V30 44 1 13 42
M  V30 45 1 15 43
M  V30 46 1 16 44
M  V30 47 1 19 45
M  V30 48 1 20 46 CFG=1
M  V30 49 1 21 47
M  V30 50 1 21 48
M  V30 51 1 21 49
M  V30 52 1 23 50
M  V30 53 1 24 51
M  V30 54 1 25 52
M  V30 55 1 26 53
M  V30 56 1 27 54
M  V30 END BOND
M  V30 END CTAB
M  END
>  <Dataset>  (264) 
ChEMBL_Kinases

>  <Ligand_Instance>  (264) 
nan

>  <PDB_ID>  (264) 
nan

>  <Standardized_SMILES>  (264) 
CCN(C(=O)c1ccc(C)c(C)c1)c1ccnc(N[C@@H](C)c2ccccc2)n1

>  <Name>  (264) 
nan

>  <Pocket>  (264) 
nan

>  <ATP_Site>  (264) 
nan

>  <Peripheral>  (264) 
nan

>  <Num_H_Atoms_ProtBoundConf>  (264) 
nan

>  <Num_Resolved_Atoms>  (264) 
nan

>  <Num_Not_Resolved_Atoms>  (264) 
nan

$$$$
CHEMBL1092677
     RDKit          3D

  0  0  0  0  0  0  0  0  0  0999 V3000
M  V30 BEGIN CTAB
M  V30 COUNTS 54 56 0 0 0
M  V30 BEGIN ATOM
M  V30 1 C 1.123437 -1.223210 5.512976 0
M  V30 2 C 0.883731 -1.914944 4.203712 0
M  V30 3 N 0.809728 -0.955685 3.094105 0
M  V30 4 C 2.119970 -0.741761 2.533127 0
M  V30 5 O 3.230490 -1.218822 2.796866 0
M  V30 6 C 2.420040 0.171439 1.436783 0
M  V30 7 C 2.718467 1.428852 1.977302 0
M  V30 8 C 3.045436 2.507310 1.146929 0
M  V30 9 C 3.079436 2.344385 -0.243856 0
M  V30 10 C 2.777277 1.087365 -0.721423 0
M  V30 11 C 2.785705 0.818233 -2.193413 0
M  V30 12 C 2.452931 0.010916 0.071628 0
M  V30 13 C 2.119897 -1.358315 -0.334134 0
M  V30 14 C -0.415320 -0.362224 2.683717 0
M  V30 15 C -0.877337 0.847592 3.149919 0
M  V30 16 C -2.046259 1.471326 2.804067 0
M  V30 17 N -2.781118 0.768854 1.901660 0
M  V30 18 C -2.398776 -0.419304 1.399214 0
M  V30 19 N -3.259540 -1.052404 0.460428 0
M  V30 20 C -3.544099 -1.235158 -0.934511 0 CFG=1
M  V30 21 C -3.752512 0.074163 -1.689590 0
M  V30 22 C -2.677958 -2.182738 -1.640782 0
M  V30 23 C -1.305867 -2.266666 -1.555576 0
M  V30 24 C -0.541883 -3.183813 -2.242769 0
M  V30 25 C -1.155721 -4.091134 -3.078609 0
M  V30 26 C -2.525035 -4.093403 -3.236849 0
M  V30 27 C -3.210136 -3.144954 -2.514225 0
M  V30 28 N -1.217832 -0.988154 1.786483 0
M  V30 29 H 2.150690 -1.495130 5.896098 0
M  V30 30 H 0.399416 -1.494107 6.308818 0
M  V30 31 H 1.067052 -0.109727 5.410087 0
M  V30 32 H 1.552455 -2.751692 3.995428 0
M  V30 33 H -0.156926 -2.347047 4.246867 0
M  V30 34 H 2.741631 1.738974 3.022287 0
M  V30 35 H 3.285508 3.497250 1.486245 0
M  V30 36 H 3.318266 3.111921 -0.950809 0
M  V30 37 H 1.910698 0.222868 -2.511800 0
M  V30 38 H 3.754484 0.455599 -2.564540 0
M  V30 39 H 2.621936 1.822186 -2.689163 0
M  V30 40 H 1.306296 -1.810365 0.256271 0
M  V30 41 H 1.919348 -1.481649 -1.407936 0
M  V30 42 H 3.009273 -2.029614 -0.140708 0
M  V30 43 H -0.226029 1.341788 3.870724 0
M  V30 44 H -2.339476 2.422221 3.214420 0
M  V30 45 H -3.851524 -1.530143 1.209796 0
M  V30 46 H -4.581320 -1.701490 -0.967432 0
M  V30 47 H -2.822652 0.608649 -1.892642 0
M  V30 48 H -4.496945 0.659802 -1.106262 0
M  V30 49 H -4.281689 -0.217400 -2.640495 0
M  V30 50 H -0.805883 -1.563941 -0.907778 0
M  V30 51 H 0.526014 -3.259120 -2.183516 0
M  V30 52 H -0.578841 -4.819343 -3.627437 0
M  V30 53 H -3.081270 -4.767053 -3.868486 0
M  V30 54 H -4.306704 -3.124635 -2.622514 0
M  V30 END ATOM
M  V30 BEGIN BOND
M  V30 1 1 1 2
M  V30 2 1 2 3
M  V30 3 1 3 4
M  V30 4 2 4 5
M  V30 5 1 4 6
M  V30 6 2 6 7
M  V30 7 1 7 8
M  V30 8 2 8 9
M  V30 9 1 9 10
M  V30 10 1 10 11
M  V30 11 2 10 12
M  V30 12 1 12 13
M  V30 13 1 3 14
M  V30 14 2 14 15
M  V30 15 1 15 16
M  V30 16 2 16 17
M  V30 17 1 17 18
M  V30 18 1 18 19
M  V30 19 1 19 20
M  V30 20 1 20 21
M  V30 21 1 20 22
M  V30 22 2 22 23
M  V30 23 1 23 24
M  V30 24 2 24 25
M  V30 25 1 25 26
M  V30 26 2 26 27
M  V30 27 2 18 28
M  V30 28 1 12 6
M  V30 29 1 28 14
M  V30 30 1 27 22
M  V30 31 1 1 29
M  V30 32 1 1 30
M  V30 33 1 1 31
M  V30 34 1 2 32
M  V30 35 1 2 33
M  V30 36 1 7 34
M  V30 37 1 8 35
M  V30 38 1 9 36
M  V30 39 1 11 37
M  V30 40 1 11 38
M  V30 41 1 11 39
M  V30 42 1 13 40
M  V30 43 1 13 41
M  V30 44 1 13 42
M  V30 45 1 15 43
M  V30 46 1 16 44
M  V30 47 1 19 45
M  V30 48 1 20 46 CFG=1
M  V30 49 1 21 47
M  V30 50 1 21 48
M  V30 51 1 21 49
M  V30 52 1 23 50
M  V30 53 1 24 51
M  V30 54 1 25 52
M  V30 55 1 26 53
M  V30 56 1 27 54
M  V30 END BOND
M  V30 END CTAB
M  END
>  <Dataset>  (265) 
ChEMBL_Kinases

>  <Ligand_Instance>  (265) 
nan

>  <PDB_ID>  (265) 
nan

>  <Standardized_SMILES>  (265) 
CCN(C(=O)c1cccc(C)c1C)c1ccnc(N[C@@H](C)c2ccccc2)n1

>  <Name>  (265) 
nan

>  <Pocket>  (265) 
nan

>  <ATP_Site>  (265) 
nan

>  <Peripheral>  (265) 
nan

>  <Num_H_Atoms_ProtBoundConf>  (265) 
nan

>  <Num_Resolved_Atoms>  (265) 
nan

>  <Num_Not_Resolved_Atoms>  (265) 
nan

$$$$
CHEMBL109269
     RDKit          3D

  0  0  0  0  0  0  0  0  0  0999 V3000
M  V30 BEGIN CTAB
M  V30 COUNTS 34 36 0 0 0
M  V30 BEGIN ATOM
M  V30 1 C -2.786428 -0.910905 1.371512 0
M  V30 2 C -1.476162 -0.596060 2.004444 0
M  V30 3 N -0.443963 -0.156584 1.092715 0
M  V30 4 C 0.431997 -0.971536 0.426636 0
M  V30 5 C 0.555294 -2.339379 0.441853 0
M  V30 6 C 1.505424 -3.002819 -0.299932 0
M  V30 7 O 1.664307 -4.398988 -0.312202 0
M  V30 8 C 0.791759 -5.193837 0.491127 0
M  V30 9 C 2.378903 -2.295096 -1.096471 0
M  V30 10 C 2.253790 -0.919770 -1.110808 0
M  V30 11 C 1.300923 -0.253970 -0.366919 0
M  V30 12 C 0.933812 1.069956 -0.173029 0
M  V30 13 C 1.513974 2.176800 -0.754638 0
M  V30 14 C 0.966532 3.390820 -0.395808 0
M  V30 15 N -0.062055 3.431850 0.466990 0
M  V30 16 C -0.624175 2.333581 1.032640 0
M  V30 17 C -1.750831 2.461952 1.980994 0
M  V30 18 C -0.123471 1.083818 0.715592 0
M  V30 19 H -2.622848 -0.900509 0.261578 0
M  V30 20 H -3.636444 -0.271204 1.672623 0
M  V30 21 H -3.120918 -1.945193 1.588323 0
M  V30 22 H -1.093991 -1.582412 2.419853 0
M  V30 23 H -1.553363 0.006747 2.930126 0
M  V30 24 H -0.103025 -2.944649 1.048435 0
M  V30 25 H -0.263298 -4.931221 0.216059 0
M  V30 26 H 0.940996 -6.251888 0.272400 0
M  V30 27 H 0.888904 -4.935270 1.566994 0
M  V30 28 H 3.177917 -2.696056 -1.733931 0
M  V30 29 H 2.919968 -0.299017 -1.725356 0
M  V30 30 H 2.333607 2.120251 -1.440024 0
M  V30 31 H 1.337204 4.341782 -0.788041 0
M  V30 32 H -2.091961 3.542573 1.922197 0
M  V30 33 H -1.476139 2.372296 3.047851 0
M  V30 34 H -2.667844 1.920450 1.684459 0
M  V30 END ATOM
M  V30 BEGIN BOND
M  V30 1 1 1 2
M  V30 2 1 2 3
M  V30 3 1 3 4
M  V30 4 2 4 5
M  V30 5 1 5 6
M  V30 6 1 6 7
M  V30 7 1 7 8
M  V30 8 2 6 9
M  V30 9 1 9 10
M  V30 10 2 10 11
M  V30 11 1 11 12
M  V30 12 2 12 13
M  V30 13 1 13 14
M  V30 14 2 14 15
M  V30 15 1 15 16
M  V30 16 1 16 17
M  V30 17 2 16 18
M  V30 18 1 18 3
M  V30 19 1 11 4
M  V30 20 1 18 12
M  V30 21 1 1 19
M  V30 22 1 1 20
M  V30 23 1 1 21
M  V30 24 1 2 22
M  V30 25 1 2 23
M  V30 26 1 5 24
M  V30 27 1 8 25
M  V30 28 1 8 26
M  V30 29 1 8 27
M  V30 30 1 9 28
M  V30 31 1 10 29
M  V30 32 1 13 30
M  V30 33 1 14 31
M  V30 34 1 17 32
M  V30 35 1 17 33
M  V30 36 1 17 34
M  V30 END BOND
M  V30 END CTAB
M  END
>  <Dataset>  (266) 
ChEMBL_Kinases

>  <Ligand_Instance>  (266) 
nan

>  <PDB_ID>  (266) 
nan

>  <Standardized_SMILES>  (266) 
CCn1c2cc(OC)ccc2c2ccnc(C)c21

>  <Name>  (266) 
nan

>  <Pocket>  (266) 
nan

>  <ATP_Site>  (266) 
nan

>  <Peripheral>  (266) 
nan

>  <Num_H_Atoms_ProtBoundConf>  (266) 
nan

>  <Num_Resolved_Atoms>  (266) 
nan

>  <Num_Not_Resolved_Atoms>  (266) 
nan

$$$$
CHEMBL1092693
     RDKit          3D

  0  0  0  0  0  0  0  0  0  0999 V3000
M  V30 BEGIN CTAB
M  V30 COUNTS 54 56 0 0 0
M  V30 BEGIN ATOM
M  V30 1 C 1.186577 -4.999388 1.160084 0
M  V30 2 C 2.050195 -4.847543 -0.092184 0
M  V30 3 C 2.770307 -3.548355 0.055555 0
M  V30 4 C 4.037025 -3.537105 0.652422 0
M  V30 5 C 4.703646 -2.341490 0.797839 0
M  V30 6 C 4.176882 -1.136189 0.378923 0
M  V30 7 C 2.936583 -1.124032 -0.209068 0
M  V30 8 C 2.107703 -0.043951 -0.738436 0
M  V30 9 O 1.787591 0.398821 -1.854077 0
M  V30 10 N 1.520567 0.670667 0.335453 0
M  V30 11 C 1.694310 0.511372 1.781001 0
M  V30 12 C 2.804280 1.331542 2.347046 0
M  V30 13 C 0.651120 1.647672 -0.274413 0
M  V30 14 C 0.780831 2.960710 -0.650379 0
M  V30 15 C -0.253280 3.640912 -1.237693 0
M  V30 16 N -1.428749 2.981561 -1.446550 0
M  V30 17 C -1.585304 1.704849 -1.092830 0
M  V30 18 N -2.768606 0.939954 -1.272574 0
M  V30 19 C -3.971849 0.522124 -0.643103 0 CFG=1
M  V30 20 C -4.730788 -0.400097 -1.557824 0
M  V30 21 C -3.789204 -0.143200 0.655454 0
M  V30 22 C -3.043706 0.433767 1.628358 0
M  V30 23 C -2.845516 -0.182478 2.846513 0
M  V30 24 C -3.403448 -1.405385 3.102319 0
M  V30 25 C -4.185649 -2.063029 2.144724 0
M  V30 26 C -4.344566 -1.381616 0.937451 0
M  V30 27 N -0.550802 1.029334 -0.505217 0
M  V30 28 C 2.258152 -2.333173 -0.358757 0
M  V30 29 H 1.814288 -5.276185 2.025950 0
M  V30 30 H 0.319644 -5.672901 1.000032 0
M  V30 31 H 0.803703 -3.973051 1.375464 0
M  V30 32 H 2.766513 -5.690138 -0.212301 0
M  V30 33 H 1.359277 -4.775643 -0.948454 0
M  V30 34 H 4.531018 -4.432827 1.015242 0
M  V30 35 H 5.696348 -2.239887 1.253957 0
M  V30 36 H 4.590661 -0.140377 0.435942 0
M  V30 37 H 1.789554 -0.566160 1.994590 0
M  V30 38 H 0.758555 0.823810 2.314298 0
M  V30 39 H 2.451246 2.080977 3.093249 0
M  V30 40 H 3.315730 1.899498 1.533998 0
M  V30 41 H 3.513638 0.669662 2.893864 0
M  V30 42 H 1.787191 3.291721 -0.392178 0
M  V30 43 H -0.041473 4.666944 -1.490214 0
M  V30 44 H -2.532252 0.636289 -2.263308 0
M  V30 45 H -4.609226 1.430495 -0.520323 0
M  V30 46 H -4.143935 -1.359333 -1.673136 0
M  V30 47 H -5.763800 -0.568470 -1.259141 0
M  V30 48 H -4.680680 0.050177 -2.594901 0
M  V30 49 H -2.557845 1.380726 1.560108 0
M  V30 50 H -2.258395 0.223785 3.676846 0
M  V30 51 H -3.267058 -1.924200 4.058919 0
M  V30 52 H -4.645393 -3.028969 2.300518 0
M  V30 53 H -4.946305 -1.839583 0.139992 0
M  V30 54 H 1.275651 -2.476066 -0.800348 0
M  V30 END ATOM
M  V30 BEGIN BOND
M  V30 1 1 1 2
M  V30 2 1 2 3
M  V30 3 2 3 4
M  V30 4 1 4 5
M  V30 5 2 5 6
M  V30 6 1 6 7
M  V30 7 1 7 8
M  V30 8 2 8 9
M  V30 9 1 8 10
M  V30 10 1 10 11
M  V30 11 1 11 12
M  V30 12 1 10 13
M  V30 13 2 13 14
M  V30 14 1 14 15
M  V30 15 2 15 16
M  V30 16 1 16 17
M  V30 17 1 17 18
M  V30 18 1 18 19
M  V30 19 1 19 20
M  V30 20 1 19 21
M  V30 21 2 21 22
M  V30 22 1 22 23
M  V30 23 2 23 24
M  V30 24 1 24 25
M  V30 25 2 25 26
M  V30 26 2 17 27
M  V30 27 2 7 28
M  V30 28 1 28 3
M  V30 29 1 27 13
M  V30 30 1 26 21
M  V30 31 1 1 29
M  V30 32 1 1 30
M  V30 33 1 1 31
M  V30 34 1 2 32
M  V30 35 1 2 33
M  V30 36 1 4 34
M  V30 37 1 5 35
M  V30 38 1 6 36
M  V30 39 1 11 37
M  V30 40 1 11 38
M  V30 41 1 12 39
M  V30 42 1 12 40
M  V30 43 1 12 41
M  V30 44 1 14 42
M  V30 45 1 15 43
M  V30 46 1 18 44
M  V30 47 1 19 45 CFG=1
M  V30 48 1 20 46
M  V30 49 1 20 47
M  V30 50 1 20 48
M  V30 51 1 22 49
M  V30 52 1 23 50
M  V30 53 1 24 51
M  V30 54 1 25 52
M  V30 55 1 26 53
M  V30 56 1 28 54
M  V30 END BOND
M  V30 END CTAB
M  END
>  <Dataset>  (267) 
ChEMBL_Kinases

>  <Ligand_Instance>  (267) 
nan

>  <PDB_ID>  (267) 
nan

>  <Standardized_SMILES>  (267) 
CCc1cccc(C(=O)N(CC)c2ccnc(N[C@@H](C)c3ccccc3)n2)c1

>  <Name>  (267) 
nan

>  <Pocket>  (267) 
nan

>  <ATP_Site>  (267) 
nan

>  <Peripheral>  (267) 
nan

>  <Num_H_Atoms_ProtBoundConf>  (267) 
nan

>  <Num_Resolved_Atoms>  (267) 
nan

>  <Num_Not_Resolved_Atoms>  (267) 
nan

$$$$
CHEMBL1092694
     RDKit          3D

  0  0  0  0  0  0  0  0  0  0999 V3000
M  V30 BEGIN CTAB
M  V30 COUNTS 55 58 0 0 0
M  V30 BEGIN ATOM
M  V30 1 C -1.334851 0.863546 5.415216 0
M  V30 2 C -0.957871 -0.285680 4.543641 0
M  V30 3 N -0.318543 0.060282 3.304696 0
M  V30 4 C 1.123103 0.166012 3.317036 0
M  V30 5 O 1.770670 0.006287 4.408526 0
M  V30 6 C 2.089605 0.435848 2.268662 0
M  V30 7 C 3.178523 -0.429716 2.124333 0
M  V30 8 C 4.163061 -0.272107 1.158479 0
M  V30 9 C 4.053399 0.796048 0.302129 0
M  V30 10 C 2.989402 1.676535 0.413306 0
M  V30 11 C 3.028767 2.775715 -0.572142 0
M  V30 12 C 2.006675 3.914681 -0.496050 0
M  V30 13 C 1.860686 2.853112 -1.532374 0
M  V30 14 C 2.035087 1.487535 1.381052 0
M  V30 15 C -1.011949 0.289670 2.112749 0
M  V30 16 C -1.568218 1.476848 1.696006 0
M  V30 17 C -2.234700 1.677738 0.499112 0
M  V30 18 N -2.322843 0.600266 -0.286969 0
M  V30 19 C -1.804488 -0.583874 0.055080 0
M  V30 20 N -1.928413 -1.681092 -0.846754 0
M  V30 21 C -1.427285 -3.015256 -0.547871 0 CFG=1
M  V30 22 C -2.139128 -3.608633 0.671959 0
M  V30 23 C -1.605548 -3.906287 -1.701031 0
M  V30 24 C -2.050144 -5.201663 -1.656274 0
M  V30 25 C -2.174419 -5.898284 -2.832208 0
M  V30 26 C -1.875574 -5.365462 -4.059261 0
M  V30 27 C -1.422115 -4.059438 -4.150342 0
M  V30 28 C -1.297615 -3.354122 -2.950938 0
M  V30 29 N -1.167154 -0.726846 1.226587 0
M  V30 30 H -2.207343 1.407310 5.064146 0
M  V30 31 H -1.530259 0.457542 6.431758 0
M  V30 32 H -0.441546 1.521521 5.554661 0
M  V30 33 H -1.824433 -0.956461 4.355895 0
M  V30 34 H -0.226464 -0.901331 5.147433 0
M  V30 35 H 3.285875 -1.289074 2.790644 0
M  V30 36 H 4.986563 -0.971648 1.090588 0
M  V30 37 H 4.841114 0.884990 -0.438842 0
M  V30 38 H 4.023955 2.994782 -1.062124 0
M  V30 39 H 1.289935 3.870307 0.348107 0
M  V30 40 H 2.393037 4.922606 -0.768752 0
M  V30 41 H 2.066386 3.203998 -2.583120 0
M  V30 42 H 1.051870 2.104213 -1.448917 0
M  V30 43 H 1.223555 2.177743 1.452492 0
M  V30 44 H -1.475571 2.325760 2.365509 0
M  V30 45 H -2.627851 2.668550 0.291741 0
M  V30 46 H -2.404738 -1.538976 -1.777130 0
M  V30 47 H -0.353676 -2.952087 -0.307966 0
M  V30 48 H -3.106186 -4.084979 0.358183 0
M  V30 49 H -2.332861 -2.773630 1.360893 0
M  V30 50 H -1.432686 -4.307184 1.142138 0
M  V30 51 H -2.288703 -5.627074 -0.678584 0
M  V30 52 H -2.531889 -6.917285 -2.722975 0
M  V30 53 H -1.984785 -5.945228 -4.983152 0
M  V30 54 H -1.167253 -3.577331 -5.088998 0
M  V30 55 H -0.939086 -2.329635 -3.052732 0
M  V30 END ATOM
M  V30 BEGIN BOND
M  V30 1 1 1 2
M  V30 2 1 2 3
M  V30 3 1 3 4
M  V30 4 2 4 5
M  V30 5 1 4 6
M  V30 6 2 6 7
M  V30 7 1 7 8
M  V30 8 2 8 9
M  V30 9 1 9 10
M  V30 10 1 10 11
M  V30 11 1 11 12
M  V30 12 1 12 13
M  V30 13 2 10 14
M  V30 14 1 3 15
M  V30 15 2 15 16
M  V30 16 1 16 17
M  V30 17 2 17 18
M  V30 18 1 18 19
M  V30 19 1 19 20
M  V30 20 1 20 21
M  V30 21 1 21 22
M  V30 22 1 21 23
M  V30 23 2 23 24
M  V30 24 1 24 25
M  V30 25 2 25 26
M  V30 26 1 26 27
M  V30 27 2 27 28
M  V30 28 2 19 29
M  V30 29 1 14 6
M  V30 30 1 29 15
M  V30 31 1 13 11
M  V30 32 1 28 23
M  V30 33 1 1 30
M  V30 34 1 1 31
M  V30 35 1 1 32
M  V30 36 1 2 33
M  V30 37 1 2 34
M  V30 38 1 7 35
M  V30 39 1 8 36
M  V30 40 1 9 37
M  V30 41 1 11 38
M  V30 42 1 12 39
M  V30 43 1 12 40
M  V30 44 1 13 41
M  V30 45 1 13 42
M  V30 46 1 14 43
M  V30 47 1 16 44
M  V30 48 1 17 45
M  V30 49 1 20 46
M  V30 50 1 21 47 CFG=1
M  V30 51 1 22 48
M  V30 52 1 22 49
M  V30 53 1 22 50
M  V30 54 1 24 51
M  V30 55 1 25 52
M  V30 56 1 26 53
M  V30 57 1 27 54
M  V30 58 1 28 55
M  V30 END BOND
M  V30 END CTAB
M  END
>  <Dataset>  (268) 
ChEMBL_Kinases

>  <Ligand_Instance>  (268) 
nan

>  <PDB_ID>  (268) 
nan

>  <Standardized_SMILES>  (268) 
CCN(C(=O)c1cccc(C2CC2)c1)c1ccnc(N[C@@H](C)c2ccccc2)n1

>  <Name>  (268) 
nan

>  <Pocket>  (268) 
nan

>  <ATP_Site>  (268) 
nan

>  <Peripheral>  (268) 
nan

>  <Num_H_Atoms_ProtBoundConf>  (268) 
nan

>  <Num_Resolved_Atoms>  (268) 
nan

>  <Num_Not_Resolved_Atoms>  (268) 
nan

$$$$
CHEMBL1092802
     RDKit          3D

  0  0  0  0  0  0  0  0  0  0999 V3000
M  V30 BEGIN CTAB
M  V30 COUNTS 48 51 0 0 0
M  V30 BEGIN ATOM
M  V30 1 C 3.114217 -5.809282 2.710081 0
M  V30 2 C 1.887829 -6.160786 1.924486 0
M  V30 3 C 1.955397 -5.681382 0.486165 0
M  V30 4 C 2.103041 -4.192259 0.441703 0
M  V30 5 O 2.157694 -3.499635 1.498759 0
M  V30 6 N 2.193183 -3.444952 -0.761960 0
M  V30 7 C 2.327822 -2.054849 -0.384772 0
M  V30 8 N 3.560389 -1.539647 -0.197323 0
M  V30 9 N 3.483092 -0.257971 0.143395 0
M  V30 10 C 2.166194 0.103244 0.187723 0
M  V30 11 C 1.443874 1.251344 0.467150 0
M  V30 12 C 0.045259 1.213928 0.401457 0
M  V30 13 C -0.555247 2.503707 0.725405 0
M  V30 14 C -1.309959 3.140346 -0.265342 0
M  V30 15 C -1.891259 4.374968 0.030638 0
M  V30 16 C -1.671290 4.877091 1.297033 0
M  V30 17 O -2.255553 6.115940 1.590742 0
M  V30 18 C -0.925278 4.240535 2.265845 0
M  V30 19 C -0.349554 3.027683 1.987126 0
M  V30 20 C -0.622537 0.056081 0.064309 0
M  V30 21 C -2.052677 0.156953 0.034341 0
M  V30 22 C -2.949119 -0.026186 -0.998827 0
M  V30 23 C -4.304825 0.132697 -0.772896 0
M  V30 24 C -4.782221 0.471884 0.469442 0
M  V30 25 N -3.913849 0.651863 1.480891 0
M  V30 26 C -2.573436 0.501731 1.285722 0
M  V30 27 C 0.071208 -1.104345 -0.219460 0
M  V30 28 C 1.444387 -1.024028 -0.143307 0
M  V30 29 H 3.977878 -5.722420 2.005772 0
M  V30 30 H 3.323096 -6.620588 3.417448 0
M  V30 31 H 3.018836 -4.822344 3.229941 0
M  V30 32 H 1.021111 -5.624783 2.390347 0
M  V30 33 H 1.673220 -7.240657 1.987771 0
M  V30 34 H 2.810177 -6.190472 0.025551 0
M  V30 35 H 1.036084 -6.036247 -0.022296 0
M  V30 36 H 2.154583 -3.941171 -1.665060 0
M  V30 37 H 4.192062 0.462553 0.364354 0
M  V30 38 H 2.034067 2.124545 0.724506 0
M  V30 39 H -1.443257 2.694440 -1.235756 0
M  V30 40 H -2.483219 4.915598 -0.688024 0
M  V30 41 H -2.015312 6.621317 2.447412 0
M  V30 42 H -0.810764 4.720043 3.235442 0
M  V30 43 H 0.239994 2.511986 2.733862 0
M  V30 44 H -2.458459 -0.289705 -1.924917 0
M  V30 45 H -4.946760 -0.028877 -1.636903 0
M  V30 46 H -5.859382 0.591116 0.619418 0
M  V30 47 H -2.055852 0.690255 2.220949 0
M  V30 48 H -0.460861 -2.006477 -0.483617 0
M  V30 END ATOM
M  V30 BEGIN BOND
M  V30 1 1 1 2
M  V30 2 1 2 3
M  V30 3 1 3 4
M  V30 4 2 4 5
M  V30 5 1 4 6
M  V30 6 1 6 7
M  V30 7 2 7 8
M  V30 8 1 8 9
M  V30 9 1 9 10
M  V30 10 2 10 11
M  V30 11 1 11 12
M  V30 12 1 12 13
M  V30 13 2 13 14
M  V30 14 1 14 15
M  V30 15 2 15 16
M  V30 16 1 16 17
M  V30 17 1 16 18
M  V30 18 2 18 19
M  V30 19 2 12 20
M  V30 20 1 20 21
M  V30 21 2 21 22
M  V30 22 1 22 23
M  V30 23 2 23 24
M  V30 24 1 24 25
M  V30 25 2 25 26
M  V30 26 1 20 27
M  V30 27 2 27 28
M  V30 28 1 28 7
M  V30 29 1 28 10
M  V30 30 1 19 13
M  V30 31 1 26 21
M  V30 32 1 1 29
M  V30 33 1 1 30
M  V30 34 1 1 31
M  V30 35 1 2 32
M  V30 36 1 2 33
M  V30 37 1 3 34
M  V30 38 1 3 35
M  V30 39 1 6 36
M  V30 40 1 9 37
M  V30 41 1 11 38
M  V30 42 1 14 39
M  V30 43 1 15 40
M  V30 44 1 17 41
M  V30 45 1 18 42
M  V30 46 1 19 43
M  V30 47 1 22 44
M  V30 48 1 23 45
M  V30 49 1 24 46
M  V30 50 1 26 47
M  V30 51 1 27 48
M  V30 END BOND
M  V30 END CTAB
M  END
>  <Dataset>  (269) 
ChEMBL_Kinases

>  <Ligand_Instance>  (269) 
nan

>  <PDB_ID>  (269) 
nan

>  <Standardized_SMILES>  (269) 
CCCC(=O)Nc1n[nH]c2cc(-c3ccc(O)cc3)c(-c3cccnc3)cc12

>  <Name>  (269) 
nan

>  <Pocket>  (269) 
nan

>  <ATP_Site>  (269) 
nan

>  <Peripheral>  (269) 
nan

>  <Num_H_Atoms_ProtBoundConf>  (269) 
nan

>  <Num_Resolved_Atoms>  (269) 
nan

>  <Num_Not_Resolved_Atoms>  (269) 
nan

$$$$
CHEMBL1092964
     RDKit          3D

  0  0  0  0  0  0  0  0  0  0999 V3000
M  V30 BEGIN CTAB
M  V30 COUNTS 51 54 0 0 0
M  V30 BEGIN ATOM
M  V30 1 C 0.147195 -0.290873 4.721857 0
M  V30 2 C -0.229970 0.821810 3.738950 0
M  V30 3 N 0.719328 0.818106 2.619300 0
M  V30 4 C 1.860038 1.670722 2.859050 0
M  V30 5 O 2.096566 2.293654 3.907018 0
M  V30 6 C 2.953154 1.971856 1.920516 0
M  V30 7 C 4.310506 1.684081 1.959813 0
M  V30 8 C 5.120158 2.103379 0.916483 0
M  V30 9 C 4.568329 2.796668 -0.142859 0
M  V30 10 C 3.237426 3.112130 -0.243264 0
M  V30 11 C 2.425734 2.683359 0.822284 0
M  V30 12 O 3.024321 3.803602 -1.423175 0
M  V30 13 C 4.282566 4.270619 -1.889432 0
M  V30 14 O 5.167103 3.316534 -1.294135 0
M  V30 15 C 0.427467 0.007632 1.493742 0
M  V30 16 C 1.334681 -0.378441 0.526361 0
M  V30 17 C 1.038681 -1.112340 -0.597908 0
M  V30 18 N -0.268644 -1.468245 -0.732311 0
M  V30 19 C -1.174205 -1.104332 0.198672 0
M  V30 20 N -2.540212 -1.487840 0.039486 0
M  V30 21 C -3.531427 -2.506147 0.326443 0 CFG=1
M  V30 22 C -4.847351 -2.058779 -0.271522 0
M  V30 23 C -3.074854 -3.791769 -0.228414 0
M  V30 24 C -3.948641 -4.508913 -0.987860 0
M  V30 25 C -3.654783 -5.736207 -1.568035 0
M  V30 26 C -2.374763 -6.262847 -1.353569 0
M  V30 27 C -1.475868 -5.531225 -0.575941 0
M  V30 28 C -1.817256 -4.308903 -0.017464 0
M  V30 29 N -0.863131 -0.375362 1.311476 0
M  V30 30 H 1.189161 -0.067614 5.044591 0
M  V30 31 H -0.495855 -0.203861 5.611989 0
M  V30 32 H 0.010665 -1.276276 4.277308 0
M  V30 33 H -0.217307 1.782593 4.277686 0
M  V30 34 H -1.265197 0.604865 3.401834 0
M  V30 35 H 4.548103 1.138802 2.857005 0
M  V30 36 H 6.158399 1.839123 1.029317 0
M  V30 37 H 1.387461 2.966448 0.675825 0
M  V30 38 H 4.349776 4.254639 -2.989636 0
M  V30 39 H 4.544772 5.250229 -1.456407 0
M  V30 40 H 2.376200 -0.114054 0.639582 0
M  V30 41 H 1.819163 -1.376307 -1.320626 0
M  V30 42 H -2.811474 -0.619849 -0.506099 0
M  V30 43 H -3.621272 -2.534528 1.421266 0
M  V30 44 H -5.639666 -2.722249 0.134311 0
M  V30 45 H -5.040547 -1.006585 0.035556 0
M  V30 46 H -4.821616 -2.045825 -1.388118 0
M  V30 47 H -4.970260 -4.173101 -1.209573 0
M  V30 48 H -4.369693 -6.293353 -2.171972 0
M  V30 49 H -2.177338 -7.219916 -1.816641 0
M  V30 50 H -0.515004 -5.977789 -0.443325 0
M  V30 51 H -1.102918 -3.764027 0.585226 0
M  V30 END ATOM
M  V30 BEGIN BOND
M  V30 1 1 1 2
M  V30 2 1 2 3
M  V30 3 1 3 4
M  V30 4 2 4 5
M  V30 5 1 4 6
M  V30 6 2 6 7
M  V30 7 1 7 8
M  V30 8 2 8 9
M  V30 9 1 9 10
M  V30 10 2 10 11
M  V30 11 1 10 12
M  V30 12 1 12 13
M  V30 13 1 13 14
M  V30 14 1 3 15
M  V30 15 2 15 16
M  V30 16 1 16 17
M  V30 17 2 17 18
M  V30 18 1 18 19
M  V30 19 1 19 20
M  V30 20 1 20 21
M  V30 21 1 21 22
M  V30 22 1 21 23
M  V30 23 2 23 24
M  V30 24 1 24 25
M  V30 25 2 25 26
M  V30 26 1 26 27
M  V30 27 2 27 28
M  V30 28 2 19 29
M  V30 29 1 11 6
M  V30 30 1 29 15
M  V30 31 1 14 9
M  V30 32 1 28 23
M  V30 33 1 1 30
M  V30 34 1 1 31
M  V30 35 1 1 32
M  V30 36 1 2 33
M  V30 37 1 2 34
M  V30 38 1 7 35
M  V30 39 1 8 36
M  V30 40 1 11 37
M  V30 41 1 13 38
M  V30 42 1 13 39
M  V30 43 1 16 40
M  V30 44 1 17 41
M  V30 45 1 20 42
M  V30 46 1 21 43 CFG=1
M  V30 47 1 22 44
M  V30 48 1 22 45
M  V30 49 1 22 46
M  V30 50 1 24 47
M  V30 51 1 25 48
M  V30 52 1 26 49
M  V30 53 1 27 50
M  V30 54 1 28 51
M  V30 END BOND
M  V30 END CTAB
M  END
>  <Dataset>  (270) 
ChEMBL_Kinases

>  <Ligand_Instance>  (270) 
nan

>  <PDB_ID>  (270) 
nan

>  <Standardized_SMILES>  (270) 
CCN(C(=O)c1ccc2c(c1)OCO2)c1ccnc(N[C@@H](C)c2ccccc2)n1

>  <Name>  (270) 
nan

>  <Pocket>  (270) 
nan

>  <ATP_Site>  (270) 
nan

>  <Peripheral>  (270) 
nan

>  <Num_H_Atoms_ProtBoundConf>  (270) 
nan

>  <Num_Resolved_Atoms>  (270) 
nan

>  <Num_Not_Resolved_Atoms>  (270) 
nan

$$$$
CHEMBL1092970
     RDKit          3D

  0  0  0  0  0  0  0  0  0  0999 V3000
M  V30 BEGIN CTAB
M  V30 COUNTS 48 50 0 0 0
M  V30 BEGIN ATOM
M  V30 1 C 3.589665 -1.500928 4.049542 0
M  V30 2 C 2.990977 -2.060196 2.784508 0
M  V30 3 N 2.645327 -0.985619 1.865913 0
M  V30 4 C 3.689047 -0.626370 0.962312 0
M  V30 5 O 4.845949 -1.164437 0.872240 0
M  V30 6 C 3.638307 0.427669 -0.037552 0
M  V30 7 C 2.656871 0.337180 -1.020155 0
M  V30 8 C 2.547407 1.297473 -1.991863 0
M  V30 9 C 3.432285 2.382411 -1.997396 0
M  V30 10 C 4.421500 2.484261 -1.015737 0
M  V30 11 C 4.521700 1.513669 -0.046891 0
M  V30 12 C 1.366851 -0.383469 1.892188 0
M  V30 13 C 1.391913 0.823328 2.599411 0
M  V30 14 C 0.252283 1.594246 2.764863 0
M  V30 15 N -0.884708 1.157800 2.230053 0
M  V30 16 C -0.948456 -0.007234 1.539129 0
M  V30 17 N -2.063169 -0.614865 0.916093 0
M  V30 18 C -2.640183 -0.958262 -0.346302 0 CFG=1
M  V30 19 C -1.735614 -1.932576 -1.042036 0
M  V30 20 C -4.003684 -1.469678 -0.128392 0
M  V30 21 C -4.862240 -0.712087 0.647685 0
M  V30 22 C -6.166554 -1.117896 0.931457 0
M  V30 23 C -6.574579 -2.325078 0.397294 0
M  V30 24 C -5.756947 -3.135666 -0.395125 0
M  V30 25 C -4.470077 -2.669404 -0.636793 0
M  V30 26 N 0.166649 -0.747277 1.384440 0
M  V30 27 H 4.014766 -2.363791 4.630842 0
M  V30 28 H 4.444861 -0.864128 3.774952 0
M  V30 29 H 2.812343 -0.994834 4.668214 0
M  V30 30 H 3.755627 -2.750504 2.316757 0
M  V30 31 H 2.066136 -2.649329 2.965209 0
M  V30 32 H 1.951568 -0.479443 -1.059462 0
M  V30 33 H 1.792830 1.267901 -2.787306 0
M  V30 34 H 3.375569 3.154778 -2.744853 0
M  V30 35 H 5.134315 3.295911 -0.962748 0
M  V30 36 H 5.263544 1.527516 0.742297 0
M  V30 37 H 2.267583 1.268033 3.074777 0
M  V30 38 H 0.241600 2.540510 3.309286 0
M  V30 39 H -2.583767 -0.858602 1.809853 0
M  V30 40 H -2.716697 -0.049461 -0.977083 0
M  V30 41 H -0.683172 -1.646755 -0.753371 0
M  V30 42 H -1.767689 -1.846595 -2.142122 0
M  V30 43 H -1.824701 -2.969940 -0.662548 0
M  V30 44 H -4.541259 0.244714 1.069824 0
M  V30 45 H -6.840689 -0.529506 1.537862 0
M  V30 46 H -7.563240 -2.737099 0.551567 0
M  V30 47 H -6.111624 -4.080623 -0.801451 0
M  V30 48 H -3.794396 -3.252961 -1.244655 0
M  V30 END ATOM
M  V30 BEGIN BOND
M  V30 1 1 1 2
M  V30 2 1 2 3
M  V30 3 1 3 4
M  V30 4 2 4 5
M  V30 5 1 4 6
M  V30 6 2 6 7
M  V30 7 1 7 8
M  V30 8 2 8 9
M  V30 9 1 9 10
M  V30 10 2 10 11
M  V30 11 1 3 12
M  V30 12 2 12 13
M  V30 13 1 13 14
M  V30 14 2 14 15
M  V30 15 1 15 16
M  V30 16 1 16 17
M  V30 17 1 17 18
M  V30 18 1 18 19
M  V30 19 1 18 20
M  V30 20 2 20 21
M  V30 21 1 21 22
M  V30 22 2 22 23
M  V30 23 1 23 24
M  V30 24 2 24 25
M  V30 25 2 16 26
M  V30 26 1 11 6
M  V30 27 1 26 12
M  V30 28 1 25 20
M  V30 29 1 1 27
M  V30 30 1 1 28
M  V30 31 1 1 29
M  V30 32 1 2 30
M  V30 33 1 2 31
M  V30 34 1 7 32
M  V30 35 1 8 33
M  V30 36 1 9 34
M  V30 37 1 10 35
M  V30 38 1 11 36
M  V30 39 1 13 37
M  V30 40 1 14 38
M  V30 41 1 17 39
M  V30 42 1 18 40 CFG=3
M  V30 43 1 19 41
M  V30 44 1 19 42
M  V30 45 1 19 43
M  V30 46 1 21 44
M  V30 47 1 22 45
M  V30 48 1 23 46
M  V30 49 1 24 47
M  V30 50 1 25 48
M  V30 END BOND
M  V30 END CTAB
M  END
>  <Dataset>  (271) 
ChEMBL_Kinases

>  <Ligand_Instance>  (271) 
nan

>  <PDB_ID>  (271) 
nan

>  <Standardized_SMILES>  (271) 
CCN(C(=O)c1ccccc1)c1ccnc(N[C@@H](C)c2ccccc2)n1

>  <Name>  (271) 
nan

>  <Pocket>  (271) 
nan

>  <ATP_Site>  (271) 
nan

>  <Peripheral>  (271) 
nan

>  <Num_H_Atoms_ProtBoundConf>  (271) 
nan

>  <Num_Resolved_Atoms>  (271) 
nan

>  <Num_Not_Resolved_Atoms>  (271) 
nan

$$$$
CHEMBL1092675
     RDKit          3D

  0  0  0  0  0  0  0  0  0  0999 V3000
M  V30 BEGIN CTAB
M  V30 COUNTS 51 53 0 0 0
M  V30 BEGIN ATOM
M  V30 1 C 0.850607 -1.790061 4.821256 0
M  V30 2 C 0.669251 -2.117282 3.344266 0
M  V30 3 N 0.913028 -0.858588 2.630949 0
M  V30 4 C 2.275255 -0.643749 2.252703 0
M  V30 5 O 3.226647 -1.456774 2.520533 0
M  V30 6 C 2.788041 0.505986 1.518483 0
M  V30 7 C 2.765756 1.844079 1.850712 0
M  V30 8 C 3.318997 2.779779 0.989639 0
M  V30 9 C 3.896043 2.423751 -0.196726 0
M  V30 10 C 3.939770 1.106744 -0.565543 0
M  V30 11 C 4.564651 0.711320 -1.850788 0
M  V30 12 C 3.387835 0.180234 0.294973 0
M  V30 13 C -0.201828 0.023148 2.379813 0
M  V30 14 C -0.638833 1.000558 3.225389 0
M  V30 15 C -1.716694 1.774229 2.852895 0
M  V30 16 N -2.307665 1.547796 1.671530 0
M  V30 17 C -1.879998 0.573695 0.817138 0
M  V30 18 N -2.502090 0.347683 -0.463523 0
M  V30 19 C -2.198318 -0.695347 -1.383728 0 CFG=1
M  V30 20 C -0.734237 -0.876223 -1.692491 0
M  V30 21 C -2.819663 -2.003166 -1.126360 0
M  V30 22 C -2.988700 -2.684121 0.056890 0
M  V30 23 C -3.573284 -3.896479 0.217354 0
M  V30 24 C -4.066130 -4.555871 -0.890893 0
M  V30 25 C -3.959050 -3.978791 -2.137593 0
M  V30 26 C -3.349281 -2.746274 -2.197672 0
M  V30 27 N -0.813630 -0.184765 1.195795 0
M  V30 28 H 1.576034 -0.957430 4.957238 0
M  V30 29 H -0.113241 -1.391210 5.205385 0
M  V30 30 H 1.109350 -2.667047 5.428323 0
M  V30 31 H -0.400973 -2.363174 3.192319 0
M  V30 32 H 1.341684 -2.925236 3.007915 0
M  V30 33 H 2.291556 2.033380 2.803990 0
M  V30 34 H 3.268369 3.815436 1.308935 0
M  V30 35 H 4.326456 3.161294 -0.863547 0
M  V30 36 H 5.559676 1.211065 -1.987041 0
M  V30 37 H 4.714985 -0.376173 -1.933190 0
M  V30 38 H 3.945203 1.052313 -2.708028 0
M  V30 39 H 3.456627 -0.854030 -0.060744 0
M  V30 40 H -0.115510 1.128707 4.162557 0
M  V30 41 H -2.088903 2.556185 3.497927 0
M  V30 42 H -3.257576 1.065143 -0.687853 0
M  V30 43 H -2.640650 -0.352846 -2.393198 0
M  V30 44 H -0.658423 -1.433481 -2.650435 0
M  V30 45 H -0.201410 -1.466859 -0.931577 0
M  V30 46 H -0.297654 0.126432 -1.862407 0
M  V30 47 H -2.627519 -2.212231 0.935301 0
M  V30 48 H -3.662680 -4.357733 1.187223 0
M  V30 49 H -4.529776 -5.512693 -0.774896 0
M  V30 50 H -4.323053 -4.440398 -3.043329 0
M  V30 51 H -3.271350 -2.297631 -3.201208 0
M  V30 END ATOM
M  V30 BEGIN BOND
M  V30 1 1 1 2
M  V30 2 1 2 3
M  V30 3 1 3 4
M  V30 4 2 4 5
M  V30 5 1 4 6
M  V30 6 2 6 7
M  V30 7 1 7 8
M  V30 8 2 8 9
M  V30 9 1 9 10
M  V30 10 1 10 11
M  V30 11 2 10 12
M  V30 12 1 3 13
M  V30 13 2 13 14
M  V30 14 1 14 15
M  V30 15 2 15 16
M  V30 16 1 16 17
M  V30 17 1 17 18
M  V30 18 1 18 19
M  V30 19 1 19 20
M  V30 20 1 19 21
M  V30 21 2 21 22
M  V30 22 1 22 23
M  V30 23 2 23 24
M  V30 24 1 24 25
M  V30 25 2 25 26
M  V30 26 2 17 27
M  V30 27 1 12 6
M  V30 28 1 27 13
M  V30 29 1 26 21
M  V30 30 1 1 28
M  V30 31 1 1 29
M  V30 32 1 1 30
M  V30 33 1 2 31
M  V30 34 1 2 32
M  V30 35 1 7 33
M  V30 36 1 8 34
M  V30 37 1 9 35
M  V30 38 1 11 36
M  V30 39 1 11 37
M  V30 40 1 11 38
M  V30 41 1 12 39
M  V30 42 1 14 40
M  V30 43 1 15 41
M  V30 44 1 18 42
M  V30 45 1 19 43 CFG=3
M  V30 46 1 20 44
M  V30 47 1 20 45
M  V30 48 1 20 46
M  V30 49 1 22 47
M  V30 50 1 23 48
M  V30 51 1 24 49
M  V30 52 1 25 50
M  V30 53 1 26 51
M  V30 END BOND
M  V30 END CTAB
M  END
>  <Dataset>  (272) 
ChEMBL_Kinases

>  <Ligand_Instance>  (272) 
nan

>  <PDB_ID>  (272) 
nan

>  <Standardized_SMILES>  (272) 
CCN(C(=O)c1cccc(C)c1)c1ccnc(N[C@@H](C)c2ccccc2)n1

>  <Name>  (272) 
nan

>  <Pocket>  (272) 
nan

>  <ATP_Site>  (272) 
nan

>  <Peripheral>  (272) 
nan

>  <Num_H_Atoms_ProtBoundConf>  (272) 
nan

>  <Num_Resolved_Atoms>  (272) 
nan

>  <Num_Not_Resolved_Atoms>  (272) 
nan

$$$$
CHEMBL1097604
     RDKit          3D

  0  0  0  0  0  0  0  0  0  0999 V3000
M  V30 BEGIN CTAB
M  V30 COUNTS 67 72 0 0 0
M  V30 BEGIN ATOM
M  V30 1 C 7.529848 1.137788 5.576231 0
M  V30 2 O 6.190995 1.486183 5.720610 0
M  V30 3 C 5.223681 1.309384 4.740305 0
M  V30 4 C 5.688283 0.747255 3.571519 0
M  V30 5 C 4.803648 0.529185 2.535001 0
M  V30 6 N 5.250394 -0.027168 1.374842 0
M  V30 7 C 4.430747 -0.259867 0.340367 0
M  V30 8 C 3.111158 0.104106 0.539397 0
M  V30 9 C 2.206002 -0.109354 -0.481126 0
M  V30 10 N 2.581114 -0.683305 -1.727534 0
M  V30 11 N 0.906865 0.203004 -0.389695 0
M  V30 12 C 0.361577 0.758680 0.715539 0
M  V30 13 C -1.050924 1.097114 0.837627 0
M  V30 14 C -1.689412 1.663968 1.914120 0
M  V30 15 N -3.037127 1.909045 1.876918 0
M  V30 16 C -3.720583 1.568643 0.732804 0
M  V30 17 C -3.145422 0.979613 -0.425926 0
M  V30 18 O -4.193283 0.859246 -1.209262 0
M  V30 19 C -4.514862 0.403826 -2.413365 0
M  V30 20 C -4.410571 -1.034368 -2.790389 0 CFG=2
M  V30 21 N -5.256761 -1.873503 -1.935077 0
M  V30 22 C -3.020659 -1.537077 -2.858455 0
M  V30 23 C -2.970493 -2.997980 -3.269176 0
M  V30 24 C -2.731950 -3.481246 -4.545903 0
M  V30 25 N -2.796616 -4.824939 -4.503665 0
M  V30 26 C -3.063164 -5.256480 -3.274074 0
M  V30 27 C -3.222625 -6.520612 -2.715065 0
M  V30 28 C -3.493465 -6.635991 -1.362170 0
M  V30 29 C -3.607662 -5.515333 -0.559826 0
M  V30 30 C -3.441029 -4.283665 -1.163635 0
M  V30 31 C -3.172098 -4.121835 -2.500720 0
M  V30 32 C -1.798649 0.785250 -0.270081 0
M  V30 33 C 1.240206 0.990499 1.766673 0
M  V30 34 C 2.577477 0.670418 1.677479 0
M  V30 35 C 3.462730 0.888735 2.710676 0
M  V30 36 C 3.022084 1.448755 3.887111 0
M  V30 37 C 3.902872 1.674702 4.941702 0
M  V30 38 O 3.645137 2.221143 6.184589 0
M  V30 39 C 2.376430 2.662426 6.603927 0
M  V30 40 H 8.044828 1.820701 4.888347 0
M  V30 41 H 7.604312 0.082155 5.253174 0
M  V30 42 H 8.011592 1.261587 6.584809 0
M  V30 43 H 6.721633 0.467049 3.429673 0
M  V30 44 H 4.743511 -0.700504 -0.601535 0
M  V30 45 H 2.940678 -0.225636 -2.578726 0
M  V30 46 H 2.581823 -1.684071 -2.070153 0
M  V30 47 H -1.077724 1.898582 2.768348 0
M  V30 48 H -4.753661 1.879993 1.002677 0
M  V30 49 H -3.996905 0.983057 -3.262678 0
M  V30 50 H -5.608752 0.705316 -2.628664 0
M  V30 51 H -4.838516 -1.153982 -3.824271 0
M  V30 52 H -6.058701 -1.279915 -1.629850 0
M  V30 53 H -5.633653 -2.631912 -2.537422 0
M  V30 54 H -2.577532 -1.473488 -1.835022 0
M  V30 55 H -2.416613 -0.928839 -3.529181 0
M  V30 56 H -2.529864 -2.845342 -5.405542 0
M  V30 57 H -2.654894 -5.448564 -5.336482 0
M  V30 58 H -3.133313 -7.385408 -3.345217 0
M  V30 59 H -3.621298 -7.607119 -0.901928 0
M  V30 60 H -3.817320 -5.615043 0.485718 0
M  V30 61 H -3.529970 -3.447100 -0.494509 0
M  V30 62 H -1.421641 0.365782 -1.167166 0
M  V30 63 H 0.830210 1.420901 2.627936 0
M  V30 64 H 2.029670 1.741085 4.085017 0
M  V30 65 H 2.367175 3.741818 6.913744 0
M  V30 66 H 1.575255 2.556319 5.870219 0
M  V30 67 H 2.056536 2.066117 7.491166 0
M  V30 END ATOM
M  V30 BEGIN BOND
M  V30 1 1 1 2
M  V30 2 1 2 3
M  V30 3 2 3 4
M  V30 4 1 4 5
M  V30 5 2 5 6
M  V30 6 1 6 7
M  V30 7 2 7 8
M  V30 8 1 8 9
M  V30 9 1 9 10
M  V30 10 2 9 11
M  V30 11 1 11 12
M  V30 12 1 12 13
M  V30 13 2 13 14
M  V30 14 1 14 15
M  V30 15 2 15 16
M  V30 16 1 16 17
M  V30 17 1 17 18
M  V30 18 1 18 19
M  V30 19 1 19 20
M  V30 20 1 20 21
M  V30 21 1 20 22
M  V30 22 1 22 23
M  V30 23 2 23 24
M  V30 24 1 24 25
M  V30 25 1 25 26
M  V30 26 2 26 27
M  V30 27 1 27 28
M  V30 28 2 28 29
M  V30 29 1 29 30
M  V30 30 2 30 31
M  V30 31 2 17 32
M  V30 32 2 12 33
M  V30 33 1 33 34
M  V30 34 2 34 35
M  V30 35 1 35 36
M  V30 36 2 36 37
M  V30 37 1 37 38
M  V30 38 1 38 39
M  V30 39 1 37 3
M  V30 40 1 35 5
M  V30 41 1 34 8
M  V30 42 1 32 13
M  V30 43 1 31 23
M  V30 44 1 31 26
M  V30 45 1 1 40
M  V30 46 1 1 41
M  V30 47 1 1 42
M  V30 48 1 4 43
M  V30 49 1 7 44
M  V30 50 1 10 45
M  V30 51 1 10 46
M  V30 52 1 14 47
M  V30 53 1 16 48
M  V30 54 1 19 49
M  V30 55 1 19 50
M  V30 56 1 20 51 CFG=3
M  V30 57 1 21 52
M  V30 58 1 21 53
M  V30 59 1 22 54
M  V30 60 1 22 55
M  V30 61 1 24 56
M  V30 62 1 25 57
M  V30 63 1 27 58
M  V30 64 1 28 59
M  V30 65 1 29 60
M  V30 66 1 30 61
M  V30 67 1 32 62
M  V30 68 1 33 63
M  V30 69 1 36 64
M  V30 70 1 39 65
M  V30 71 1 39 66
M  V30 72 1 39 67
M  V30 END BOND
M  V30 END CTAB
M  END
>  <Dataset>  (273) 
ChEMBL_Kinases

>  <Ligand_Instance>  (273) 
nan

>  <PDB_ID>  (273) 
nan

>  <Standardized_SMILES>  (273) 
COc1cc2ncc3c(N)nc(-c4cncc(OC[C@H](N)Cc5c[nH]c6ccccc56)c4)cc3c2cc1OC

>  <Name>  (273) 
nan

>  <Pocket>  (273) 
nan

>  <ATP_Site>  (273) 
nan

>  <Peripheral>  (273) 
nan

>  <Num_H_Atoms_ProtBoundConf>  (273) 
nan

>  <Num_Resolved_Atoms>  (273) 
nan

>  <Num_Not_Resolved_Atoms>  (273) 
nan

$$$$
CHEMBL1097602
     RDKit          3D

  0  0  0  0  0  0  0  0  0  0999 V3000
M  V30 BEGIN CTAB
M  V30 COUNTS 63 67 0 0 0
M  V30 BEGIN ATOM
M  V30 1 C 5.625567 -4.509609 -2.459909 0
M  V30 2 O 4.307708 -4.267497 -2.005533 0
M  V30 3 C 3.992975 -3.077939 -1.362790 0
M  V30 4 C 4.914221 -2.075669 -1.127309 0
M  V30 5 C 4.613936 -0.888095 -0.489031 0
M  V30 6 N 5.558554 0.046342 -0.291025 0
M  V30 7 C 5.290124 1.195398 0.321376 0
M  V30 8 C 3.985969 1.390827 0.750346 0
M  V30 9 C 3.647160 2.563419 1.393526 0
M  V30 10 N 4.631522 3.584163 1.621786 0
M  V30 11 N 2.385140 2.760108 1.813419 0
M  V30 12 C 1.382675 1.877398 1.654763 0
M  V30 13 C 0.066902 2.243509 2.171203 0
M  V30 14 C -0.074082 3.464674 2.790044 0
M  V30 15 N -1.258089 3.864488 3.287426 0
M  V30 16 C -2.386521 3.135978 3.232340 0
M  V30 17 C -2.253772 1.892967 2.605131 0
M  V30 18 O -3.405316 1.121109 2.535048 0
M  V30 19 C -3.518463 -0.142050 1.960758 0
M  V30 20 C -4.967792 -0.574262 2.131211 0 CFG=1
M  V30 21 N -5.848138 0.352420 1.479743 0
M  V30 22 C -5.198798 -1.994691 1.665352 0
M  V30 23 C -4.873674 -2.186063 0.237448 0
M  V30 24 C -5.916219 -1.973038 -0.667942 0
M  V30 25 C -5.733599 -2.123069 -2.045617 0
M  V30 26 C -4.501886 -2.489951 -2.546039 0
M  V30 27 C -3.485234 -2.696396 -1.645690 0
M  V30 28 C -3.647296 -2.552431 -0.275477 0
M  V30 29 C -1.045604 1.436560 2.074559 0
M  V30 30 C 1.689993 0.693650 1.014411 0
M  V30 31 C 2.975191 0.469875 0.575770 0
M  V30 32 C 3.316820 -0.696089 -0.063634 0
M  V30 33 C 2.377314 -1.676552 -0.284174 0
M  V30 34 C 2.682558 -2.875843 -0.929183 0
M  V30 35 O 1.769776 -3.875729 -1.165752 0
M  V30 36 C 0.422434 -3.853316 -0.807504 0
M  V30 37 H 5.775297 -4.137712 -3.494140 0
M  V30 38 H 5.823025 -5.617556 -2.540489 0
M  V30 39 H 6.408742 -4.139795 -1.779558 0
M  V30 40 H 5.922874 -2.191205 -1.442419 0
M  V30 41 H 6.052380 1.946834 0.479897 0
M  V30 42 H 5.068854 3.206938 2.503424 0
M  V30 43 H 4.481544 4.237566 0.827323 0
M  V30 44 H 0.753366 4.148519 2.901810 0
M  V30 45 H -3.337990 3.447162 3.627248 0
M  V30 46 H -2.819031 -0.857587 2.403125 0
M  V30 47 H -3.331528 -0.153394 0.856165 0
M  V30 48 H -5.182819 -0.546592 3.217747 0
M  V30 49 H -6.729943 0.530279 2.002530 0
M  V30 50 H -5.391925 1.218225 1.128049 0
M  V30 51 H -4.555184 -2.659006 2.308428 0
M  V30 52 H -6.272374 -2.203554 1.846100 0
M  V30 53 H -6.895882 -1.685144 -0.325266 0
M  V30 54 H -6.536129 -1.960181 -2.754500 0
M  V30 55 H -4.315826 -2.617521 -3.603873 0
M  V30 56 H -2.521700 -2.984173 -2.044774 0
M  V30 57 H -2.849618 -2.713901 0.439441 0
M  V30 58 H -0.969467 0.475651 1.596592 0
M  V30 59 H 0.877552 0.000646 0.896140 0
M  V30 60 H 1.349343 -1.630099 0.002936 0
M  V30 61 H 0.188543 -3.303178 0.116452 0
M  V30 62 H -0.197055 -3.406109 -1.628588 0
M  V30 63 H 0.027435 -4.902277 -0.668559 0
M  V30 END ATOM
M  V30 BEGIN BOND
M  V30 1 1 1 2
M  V30 2 1 2 3
M  V30 3 2 3 4
M  V30 4 1 4 5
M  V30 5 2 5 6
M  V30 6 1 6 7
M  V30 7 2 7 8
M  V30 8 1 8 9
M  V30 9 1 9 10
M  V30 10 2 9 11
M  V30 11 1 11 12
M  V30 12 1 12 13
M  V30 13 2 13 14
M  V30 14 1 14 15
M  V30 15 2 15 16
M  V30 16 1 16 17
M  V30 17 1 17 18
M  V30 18 1 18 19
M  V30 19 1 19 20
M  V30 20 1 20 21
M  V30 21 1 20 22
M  V30 22 1 22 23
M  V30 23 2 23 24
M  V30 24 1 24 25
M  V30 25 2 25 26
M  V30 26 1 26 27
M  V30 27 2 27 28
M  V30 28 2 17 29
M  V30 29 2 12 30
M  V30 30 1 30 31
M  V30 31 2 31 32
M  V30 32 1 32 33
M  V30 33 2 33 34
M  V30 34 1 34 35
M  V30 35 1 35 36
M  V30 36 1 34 3
M  V30 37 1 32 5
M  V30 38 1 31 8
M  V30 39 1 29 13
M  V30 40 1 28 23
M  V30 41 1 1 37
M  V30 42 1 1 38
M  V30 43 1 1 39
M  V30 44 1 4 40
M  V30 45 1 7 41
M  V30 46 1 10 42
M  V30 47 1 10 43
M  V30 48 1 14 44
M  V30 49 1 16 45
M  V30 50 1 19 46
M  V30 51 1 19 47
M  V30 52 1 20 48 CFG=1
M  V30 53 1 21 49
M  V30 54 1 21 50
M  V30 55 1 22 51
M  V30 56 1 22 52
M  V30 57 1 24 53
M  V30 58 1 25 54
M  V30 59 1 26 55
M  V30 60 1 27 56
M  V30 61 1 28 57
M  V30 62 1 29 58
M  V30 63 1 30 59
M  V30 64 1 33 60
M  V30 65 1 36 61
M  V30 66 1 36 62
M  V30 67 1 36 63
M  V30 END BOND
M  V30 END CTAB
M  END
>  <Dataset>  (274) 
ChEMBL_Kinases

>  <Ligand_Instance>  (274) 
nan

>  <PDB_ID>  (274) 
nan

>  <Standardized_SMILES>  (274) 
COc1cc2ncc3c(N)nc(-c4cncc(OC[C@@H](N)Cc5ccccc5)c4)cc3c2cc1OC

>  <Name>  (274) 
nan

>  <Pocket>  (274) 
nan

>  <ATP_Site>  (274) 
nan

>  <Peripheral>  (274) 
nan

>  <Num_H_Atoms_ProtBoundConf>  (274) 
nan

>  <Num_Resolved_Atoms>  (274) 
nan

>  <Num_Not_Resolved_Atoms>  (274) 
nan

$$$$
CHEMBL1097003
     RDKit          3D

  0  0  0  0  0  0  0  0  0  0999 V3000
M  V30 BEGIN CTAB
M  V30 COUNTS 38 40 0 0 0
M  V30 BEGIN ATOM
M  V30 1 C 3.174413 -6.127231 2.060413 0
M  V30 2 C 3.702545 -4.764737 1.613483 0
M  V30 3 C 2.504039 -3.856744 1.458450 0
M  V30 4 C 2.871460 -2.480307 1.022201 0
M  V30 5 O 4.000200 -1.982887 0.772462 0
M  V30 6 N 1.759791 -1.606210 0.869525 0
M  V30 7 C 2.000938 -0.264980 0.455241 0
M  V30 8 N 3.174442 0.326981 0.173705 0
M  V30 9 N 3.012358 1.591837 -0.180953 0
M  V30 10 C 1.710836 1.900140 -0.150674 0
M  V30 11 C 0.938360 3.008963 -0.403268 0
M  V30 12 Cl 1.732766 4.496180 -0.911373 0
M  V30 13 C -0.433510 2.960667 -0.262264 0
M  V30 14 Cl -1.364520 4.393834 -0.594948 0
M  V30 15 C -1.101273 1.819438 0.133015 0
M  V30 16 C -2.548487 1.725621 0.294308 0
M  V30 17 C -3.428020 2.238138 -0.636953 0
M  V30 18 C -4.804395 2.169615 -0.521021 0
M  V30 19 C -5.340807 1.552779 0.590628 0
M  V30 20 C -4.507582 1.022658 1.553437 0
M  V30 21 C -3.140349 1.116312 1.392043 0
M  V30 22 C -0.311666 0.696048 0.388282 0
M  V30 23 C 1.075440 0.737750 0.247795 0
M  V30 24 H 2.297628 -5.987173 2.741059 0
M  V30 25 H 3.935839 -6.683367 2.658570 0
M  V30 26 H 2.809301 -6.719175 1.207240 0
M  V30 27 H 4.286313 -4.843387 0.696215 0
M  V30 28 H 4.310765 -4.363195 2.450302 0
M  V30 29 H 1.981010 -3.747765 2.414298 0
M  V30 30 H 1.810796 -4.359248 0.751435 0
M  V30 31 H 0.771036 -1.889852 1.043845 0
M  V30 32 H 3.738976 2.297528 -0.454400 0
M  V30 33 H -3.063971 2.731984 -1.527357 0
M  V30 34 H -5.485511 2.568774 -1.246285 0
M  V30 35 H -6.424550 1.493848 0.690904 0
M  V30 36 H -4.892505 0.532909 2.436298 0
M  V30 37 H -2.483259 0.696258 2.154993 0
M  V30 38 H -0.794127 -0.223138 0.701530 0
M  V30 END ATOM
M  V30 BEGIN BOND
M  V30 1 1 1 2
M  V30 2 1 2 3
M  V30 3 1 3 4
M  V30 4 2 4 5
M  V30 5 1 4 6
M  V30 6 1 6 7
M  V30 7 2 7 8
M  V30 8 1 8 9
M  V30 9 1 9 10
M  V30 10 2 10 11
M  V30 11 1 11 12
M  V30 12 1 11 13
M  V30 13 1 13 14
M  V30 14 2 13 15
M  V30 15 1 15 16
M  V30 16 2 16 17
M  V30 17 1 17 18
M  V30 18 2 18 19
M  V30 19 1 19 20
M  V30 20 2 20 21
M  V30 21 1 15 22
M  V30 22 2 22 23
M  V30 23 1 23 7
M  V30 24 1 23 10
M  V30 25 1 21 16
M  V30 26 1 1 24
M  V30 27 1 1 25
M  V30 28 1 1 26
M  V30 29 1 2 27
M  V30 30 1 2 28
M  V30 31 1 3 29
M  V30 32 1 3 30
M  V30 33 1 6 31
M  V30 34 1 9 32
M  V30 35 1 17 33
M  V30 36 1 18 34
M  V30 37 1 19 35
M  V30 38 1 20 36
M  V30 39 1 21 37
M  V30 40 1 22 38
M  V30 END BOND
M  V30 END CTAB
M  END
>  <Dataset>  (275) 
ChEMBL_Kinases

>  <Ligand_Instance>  (275) 
nan

>  <PDB_ID>  (275) 
nan

>  <Standardized_SMILES>  (275) 
CCCC(=O)Nc1n[nH]c2c(Cl)c(Cl)c(-c3ccccc3)cc12

>  <Name>  (275) 
nan

>  <Pocket>  (275) 
nan

>  <ATP_Site>  (275) 
nan

>  <Peripheral>  (275) 
nan

>  <Num_H_Atoms_ProtBoundConf>  (275) 
nan

>  <Num_Resolved_Atoms>  (275) 
nan

>  <Num_Not_Resolved_Atoms>  (275) 
nan

$$$$
CHEMBL1096830
     RDKit          3D

  0  0  0  0  0  0  0  0  0  0999 V3000
M  V30 BEGIN CTAB
M  V30 COUNTS 44 47 0 0 0
M  V30 BEGIN ATOM
M  V30 1 C 0.244718 -3.304764 -6.760530 0
M  V30 2 O 0.382577 -2.774921 -5.489196 0
M  V30 3 C 0.742089 -1.447501 -5.178858 0
M  V30 4 O 0.422184 -2.628684 -5.455143 0
M  V30 5 C 0.831537 -1.094142 -3.739380 0
M  V30 6 C 1.174780 0.234972 -3.449972 0
M  V30 7 C 1.265003 0.560428 -2.111754 0
M  V30 8 F 1.581806 1.785512 -1.626792 0
M  V30 9 C 1.036305 -0.349063 -1.103519 0
M  V30 10 C 1.087297 -0.183745 0.341447 0
M  V30 11 C 2.365190 -0.438553 0.815474 0
M  V30 12 O 3.385461 -0.763123 0.155218 0
M  V30 13 C 2.644876 -0.346838 2.184072 0
M  V30 14 C 1.586333 0.007930 3.024490 0
M  V30 15 N 0.351108 0.249721 2.527763 0
M  V30 16 C -0.692096 0.597088 3.339831 0
M  V30 17 C -0.347643 0.673995 4.758604 0
M  V30 18 C 0.111249 1.769714 5.454304 0
M  V30 19 C 0.406536 1.719089 6.794080 0
M  V30 20 C 0.219196 0.489484 7.434357 0
M  V30 21 F 0.526780 0.496309 8.758960 0
M  V30 22 C -0.239534 -0.617776 6.753761 0
M  V30 23 C -0.537410 -0.558640 5.392594 0
M  V30 24 F -0.978854 -1.687368 4.813776 0
M  V30 25 C -1.956837 0.841526 2.803295 0
M  V30 26 C -2.187169 0.739739 1.447597 0
M  V30 27 C -1.127877 0.385184 0.609510 0
M  V30 28 C 0.076924 0.163903 1.219083 0
M  V30 29 C 0.696004 -1.666167 -1.411335 0
M  V30 30 F 0.440441 -2.678711 -0.543672 0
M  V30 31 C 0.595395 -2.031116 -2.758184 0
M  V30 32 H 0.468147 -4.409402 -6.663572 0
M  V30 33 H -0.753720 -3.223397 -7.226249 0
M  V30 34 H 1.020463 -2.870113 -7.428904 0
M  V30 35 H 1.370836 1.011414 -4.173278 0
M  V30 36 H 3.618968 -0.531370 2.627011 0
M  V30 37 H 1.752316 0.092702 4.096281 0
M  V30 38 H 0.222030 2.671056 4.869415 0
M  V30 39 H 0.759758 2.626576 7.251502 0
M  V30 40 H -0.332504 -1.491311 7.382115 0
M  V30 41 H -2.690984 1.108423 3.573197 0
M  V30 42 H -3.182717 0.941506 1.103944 0
M  V30 43 H -1.294696 0.302616 -0.443801 0
M  V30 44 H 0.333619 -3.043000 -3.089955 0
M  V30 END ATOM
M  V30 BEGIN BOND
M  V30 1 1 1 2
M  V30 2 1 2 3
M  V30 3 2 3 4
M  V30 4 1 3 5
M  V30 5 2 5 6
M  V30 6 1 6 7
M  V30 7 1 7 8
M  V30 8 2 7 9
M  V30 9 1 9 10
M  V30 10 1 10 11
M  V30 11 2 11 12
M  V30 12 1 11 13
M  V30 13 2 13 14
M  V30 14 1 14 15
M  V30 15 1 15 16
M  V30 16 1 16 17
M  V30 17 2 17 18
M  V30 18 1 18 19
M  V30 19 2 19 20
M  V30 20 1 20 21
M  V30 21 1 20 22
M  V30 22 2 22 23
M  V30 23 1 23 24
M  V30 24 2 16 25
M  V30 25 1 25 26
M  V30 26 2 26 27
M  V30 27 1 27 28
M  V30 28 1 9 29
M  V30 29 1 29 30
M  V30 30 2 29 31
M  V30 31 1 31 5
M  V30 32 2 28 10
M  V30 33 1 28 15
M  V30 34 1 23 17
M  V30 35 1 1 32
M  V30 36 1 1 33
M  V30 37 1 1 34
M  V30 38 1 6 35
M  V30 39 1 13 36
M  V30 40 1 14 37
M  V30 41 1 18 38
M  V30 42 1 19 39
M  V30 43 1 22 40
M  V30 44 1 25 41
M  V30 45 1 26 42
M  V30 46 1 27 43
M  V30 47 1 31 44
M  V30 END BOND
M  V30 END CTAB
M  END
>  <Dataset>  (276) 
ChEMBL_Kinases

>  <Ligand_Instance>  (276) 
nan

>  <PDB_ID>  (276) 
nan

>  <Standardized_SMILES>  (276) 
COC(=O)c1cc(F)c(-c2c(=O)ccn3c(-c4ccc(F)cc4F)cccc23)c(F)c1

>  <Name>  (276) 
nan

>  <Pocket>  (276) 
nan

>  <ATP_Site>  (276) 
nan

>  <Peripheral>  (276) 
nan

>  <Num_H_Atoms_ProtBoundConf>  (276) 
nan

>  <Num_Resolved_Atoms>  (276) 
nan

>  <Num_Not_Resolved_Atoms>  (276) 
nan

$$$$
CHEMBL1096634
     RDKit          3D

  0  0  0  0  0  0  0  0  0  0999 V3000
M  V30 BEGIN CTAB
M  V30 COUNTS 58 61 0 0 0
M  V30 BEGIN ATOM
M  V30 1 C 4.227542 -2.076300 1.034782 0
M  V30 2 C 3.616368 -0.978381 0.201138 0
M  V30 3 N 2.544492 -0.269790 0.851375 0
M  V30 4 C 2.639267 0.794069 1.650091 0
M  V30 5 C 3.725302 1.593747 2.188171 0
M  V30 6 N 3.564373 2.668982 2.963513 0
M  V30 7 O 4.675892 3.222557 3.299766 0
M  V30 8 N 5.677600 2.565066 2.778424 0
M  V30 9 C 5.088981 1.553578 2.088622 0
M  V30 10 N 5.916911 0.652742 1.426110 0
M  V30 11 N 1.374260 1.102381 1.963372 0
M  V30 12 C 0.530186 0.273361 1.391868 0
M  V30 13 C -0.843246 0.212897 1.435158 0
M  V30 14 C -1.547268 1.190235 2.218254 0
M  V30 15 C -2.135366 2.027076 2.875401 0
M  V30 16 C -2.836941 3.032357 3.676727 0
M  V30 17 C -1.763463 3.703748 4.528411 0
M  V30 18 C -3.828861 2.405201 4.626080 0
M  V30 19 O -3.454556 3.996507 2.858185 0
M  V30 20 N -1.465594 -0.758703 0.742281 0
M  V30 21 C -0.792883 -1.671277 0.010103 0
M  V30 22 O -1.396073 -2.669888 -0.704381 0
M  V30 23 C -2.777852 -2.911544 -0.797247 0
M  V30 24 C -2.933538 -4.134685 -1.710134 0 CFG=2
M  V30 25 N -2.208942 -5.229191 -1.046922 0
M  V30 26 C -2.353032 -3.858965 -3.043700 0
M  V30 27 C -2.065429 -4.944062 -3.840985 0
M  V30 28 C -1.519284 -4.820099 -5.110775 0
M  V30 29 C -1.248281 -3.562444 -5.607134 0
M  V30 30 C -1.526348 -2.461083 -4.830445 0
M  V30 31 C -2.074097 -2.619476 -3.560735 0
M  V30 32 C 0.604941 -1.631900 -0.050695 0
M  V30 33 C 1.242732 -0.637451 0.658410 0
M  V30 34 H 4.343548 -1.742586 2.090794 0
M  V30 35 H 3.656924 -3.010551 1.046191 0
M  V30 36 H 5.279358 -2.244581 0.679425 0
M  V30 37 H 4.341276 -0.336825 -0.310849 0
M  V30 38 H 3.147298 -1.529411 -0.701224 0
M  V30 39 H 6.464947 0.393082 0.588888 0
M  V30 40 H 6.423681 0.532895 0.509503 0
M  V30 41 H -1.236510 4.412737 3.841234 0
M  V30 42 H -1.102172 2.876506 4.863430 0
M  V30 43 H -2.191968 4.228791 5.408585 0
M  V30 44 H -3.531821 1.347418 4.788656 0
M  V30 45 H -4.858490 2.409709 4.175767 0
M  V30 46 H -3.813607 2.925656 5.608128 0
M  V30 47 H -4.278961 4.325814 3.326553 0
M  V30 48 H -3.205994 -3.117465 0.196604 0
M  V30 49 H -3.355718 -2.053962 -1.204025 0
M  V30 50 H -4.006948 -4.387193 -1.828440 0
M  V30 51 H -1.378416 -4.809645 -0.560395 0
M  V30 52 H -2.837576 -5.581571 -0.284056 0
M  V30 53 H -2.256429 -5.975710 -3.507392 0
M  V30 54 H -1.279563 -5.645978 -5.766544 0
M  V30 55 H -0.827410 -3.299169 -6.566901 0
M  V30 56 H -1.350618 -1.437031 -5.129006 0
M  V30 57 H -2.298873 -1.768110 -2.937242 0
M  V30 58 H 1.240857 -2.309936 -0.603509 0
M  V30 END ATOM
M  V30 BEGIN BOND
M  V30 1 1 1 2
M  V30 2 1 2 3
M  V30 3 1 3 4
M  V30 4 1 4 5
M  V30 5 2 5 6
M  V30 6 1 6 7
M  V30 7 1 7 8
M  V30 8 2 8 9
M  V30 9 1 9 10
M  V30 10 2 4 11
M  V30 11 1 11 12
M  V30 12 2 12 13
M  V30 13 1 13 14
M  V30 14 3 14 15
M  V30 15 1 15 16
M  V30 16 1 16 17
M  V30 17 1 16 18
M  V30 18 1 16 19
M  V30 19 1 13 20
M  V30 20 2 20 21
M  V30 21 1 21 22
M  V30 22 1 22 23
M  V30 23 1 23 24
M  V30 24 1 24 25
M  V30 25 1 24 26
M  V30 26 2 26 27
M  V30 27 1 27 28
M  V30 28 2 28 29
M  V30 29 1 29 30
M  V30 30 2 30 31
M  V30 31 1 21 32
M  V30 32 2 32 33
M  V30 33 1 33 3
M  V30 34 1 9 5
M  V30 35 1 33 12
M  V30 36 1 31 26
M  V30 37 1 1 34
M  V30 38 1 1 35
M  V30 39 1 1 36
M  V30 40 1 2 37
M  V30 41 1 2 38
M  V30 42 1 10 39
M  V30 43 1 10 40
M  V30 44 1 17 41
M  V30 45 1 17 42
M  V30 46 1 17 43
M  V30 47 1 18 44
M  V30 48 1 18 45
M  V30 49 1 18 46
M  V30 50 1 19 47
M  V30 51 1 23 48
M  V30 52 1 23 49
M  V30 53 1 24 50 CFG=3
M  V30 54 1 25 51
M  V30 55 1 25 52
M  V30 56 1 27 53
M  V30 57 1 28 54
M  V30 58 1 29 55
M  V30 59 1 30 56
M  V30 60 1 31 57
M  V30 61 1 32 58
M  V30 END BOND
M  V30 END CTAB
M  END
>  <Dataset>  (277) 
ChEMBL_Kinases

>  <Ligand_Instance>  (277) 
nan

>  <PDB_ID>  (277) 
nan

>  <Standardized_SMILES>  (277) 
CCn1c(-c2nonc2N)nc2c(C#CC(C)(C)O)nc(OC[C@H](N)c3ccccc3)cc21

>  <Name>  (277) 
GSK-943949A

>  <Pocket>  (277) 
nan

>  <ATP_Site>  (277) 
nan

>  <Peripheral>  (277) 
nan

>  <Num_H_Atoms_ProtBoundConf>  (277) 
nan

>  <Num_Resolved_Atoms>  (277) 
nan

>  <Num_Not_Resolved_Atoms>  (277) 
nan

$$$$
CHEMBL1096626
     RDKit          3D

  0  0  0  0  0  0  0  0  0  0999 V3000
M  V30 BEGIN CTAB
M  V30 COUNTS 58 61 0 0 0
M  V30 BEGIN ATOM
M  V30 1 C 4.584942 -1.874877 0.984837 0
M  V30 2 C 3.871648 -0.841774 0.149571 0
M  V30 3 N 2.768363 -0.206664 0.779358 0
M  V30 4 C 2.774297 0.884223 1.551398 0
M  V30 5 C 3.803969 1.777154 2.056883 0
M  V30 6 N 3.568010 2.864811 2.811425 0
M  V30 7 O 4.641532 3.503707 3.118154 0
M  V30 8 N 5.675336 2.900976 2.598684 0
M  V30 9 C 5.167931 1.858588 1.958684 0
M  V30 10 N 6.043352 1.001782 1.309015 0
M  V30 11 N 1.494325 1.115458 1.876377 0
M  V30 12 C 0.704437 0.201653 1.330535 0
M  V30 13 C -0.662452 0.061458 1.405198 0
M  V30 14 C -1.427131 1.006084 2.170013 0
M  V30 15 C -2.059866 1.813178 2.819086 0
M  V30 16 C -2.827924 2.796718 3.583594 0
M  V30 17 C -1.814972 3.645387 4.323583 0
M  V30 18 C -3.784861 2.120395 4.550962 0
M  V30 19 O -3.527744 3.675825 2.742877 0
M  V30 20 N -1.224567 -0.972696 0.745802 0
M  V30 21 C -0.478782 -1.849864 0.031104 0
M  V30 22 O -1.066676 -2.915226 -0.647062 0
M  V30 23 C -2.465619 -3.116211 -0.611287 0
M  V30 24 C -2.805110 -4.327260 -1.424000 0 CFG=1
M  V30 25 N -4.222077 -4.616108 -1.448049 0
M  V30 26 C -2.300413 -4.067483 -2.818328 0
M  V30 27 C -1.136376 -4.600233 -3.329511 0
M  V30 28 C -0.764103 -4.292323 -4.635900 0
M  V30 29 C -1.557713 -3.462870 -5.401502 0
M  V30 30 C -2.716616 -2.943734 -4.865658 0
M  V30 31 C -3.122761 -3.225574 -3.569641 0
M  V30 32 C 0.900644 -1.707035 -0.043301 0
M  V30 33 C 1.488983 -0.666018 0.617601 0
M  V30 34 H 4.619553 -1.562875 2.064057 0
M  V30 35 H 4.088797 -2.880631 0.958738 0
M  V30 36 H 5.632262 -2.000024 0.679028 0
M  V30 37 H 4.581456 -0.217443 -0.392171 0
M  V30 38 H 3.431886 -1.476984 -0.712742 0
M  V30 39 H 6.644503 0.606286 0.581665 0
M  V30 40 H 6.617657 0.727515 0.463135 0
M  V30 41 H -2.177898 4.682695 4.479441 0
M  V30 42 H -1.642486 3.180795 5.328781 0
M  V30 43 H -0.853728 3.720394 3.783278 0
M  V30 44 H -3.648299 1.010570 4.435604 0
M  V30 45 H -4.840417 2.346803 4.317598 0
M  V30 46 H -3.564296 2.361727 5.605515 0
M  V30 47 H -3.982058 4.303150 3.365544 0
M  V30 48 H -2.789412 -3.204371 0.439317 0
M  V30 49 H -2.965239 -2.195064 -1.012504 0
M  V30 50 H -2.207406 -5.175334 -1.002494 0
M  V30 51 H -4.426305 -5.327581 -0.707507 0
M  V30 52 H -4.818588 -3.795874 -1.239596 0
M  V30 53 H -0.576071 -5.238576 -2.662968 0
M  V30 54 H 0.155982 -4.736442 -4.984931 0
M  V30 55 H -1.225786 -3.260200 -6.394577 0
M  V30 56 H -3.343289 -2.287273 -5.473780 0
M  V30 57 H -4.050271 -2.800792 -3.163009 0
M  V30 58 H 1.562053 -2.359764 -0.588655 0
M  V30 END ATOM
M  V30 BEGIN BOND
M  V30 1 1 1 2
M  V30 2 1 2 3
M  V30 3 1 3 4
M  V30 4 1 4 5
M  V30 5 2 5 6
M  V30 6 1 6 7
M  V30 7 1 7 8
M  V30 8 2 8 9
M  V30 9 1 9 10
M  V30 10 2 4 11
M  V30 11 1 11 12
M  V30 12 2 12 13
M  V30 13 1 13 14
M  V30 14 3 14 15
M  V30 15 1 15 16
M  V30 16 1 16 17
M  V30 17 1 16 18
M  V30 18 1 16 19
M  V30 19 1 13 20
M  V30 20 2 20 21
M  V30 21 1 21 22
M  V30 22 1 22 23
M  V30 23 1 23 24
M  V30 24 1 24 25
M  V30 25 1 24 26
M  V30 26 2 26 27
M  V30 27 1 27 28
M  V30 28 2 28 29
M  V30 29 1 29 30
M  V30 30 2 30 31
M  V30 31 1 21 32
M  V30 32 2 32 33
M  V30 33 1 33 3
M  V30 34 1 9 5
M  V30 35 1 33 12
M  V30 36 1 31 26
M  V30 37 1 1 34
M  V30 38 1 1 35
M  V30 39 1 1 36
M  V30 40 1 2 37
M  V30 41 1 2 38
M  V30 42 1 10 39
M  V30 43 1 10 40
M  V30 44 1 17 41
M  V30 45 1 17 42
M  V30 46 1 17 43
M  V30 47 1 18 44
M  V30 48 1 18 45
M  V30 49 1 18 46
M  V30 50 1 19 47
M  V30 51 1 23 48
M  V30 52 1 23 49
M  V30 53 1 24 50 CFG=1
M  V30 54 1 25 51
M  V30 55 1 25 52
M  V30 56 1 27 53
M  V30 57 1 28 54
M  V30 58 1 29 55
M  V30 59 1 30 56
M  V30 60 1 31 57
M  V30 61 1 32 58
M  V30 END BOND
M  V30 END CTAB
M  END
>  <Dataset>  (278) 
ChEMBL_Kinases

>  <Ligand_Instance>  (278) 
nan

>  <PDB_ID>  (278) 
nan

>  <Standardized_SMILES>  (278) 
CCn1c(-c2nonc2N)nc2c(C#CC(C)(C)O)nc(OC[C@@H](N)c3ccccc3)cc21

>  <Name>  (278) 
GSK-938890A

>  <Pocket>  (278) 
nan

>  <ATP_Site>  (278) 
nan

>  <Peripheral>  (278) 
nan

>  <Num_H_Atoms_ProtBoundConf>  (278) 
nan

>  <Num_Resolved_Atoms>  (278) 
nan

>  <Num_Not_Resolved_Atoms>  (278) 
nan

$$$$
CHEMBL1096291
     RDKit          3D

  0  0  0  0  0  0  0  0  0  0999 V3000
M  V30 BEGIN CTAB
M  V30 COUNTS 48 50 0 0 0
M  V30 BEGIN ATOM
M  V30 1 C 0.738598 -4.759859 -1.771864 0
M  V30 2 C 0.612208 -3.390217 -2.374858 0
M  V30 3 N 0.756595 -2.323061 -1.402540 0
M  V30 4 C 1.885814 -1.696726 -1.025451 0
M  V30 5 C 3.235894 -1.959130 -1.521352 0
M  V30 6 N 3.575547 -2.873557 -2.440402 0
M  V30 7 O 4.853048 -2.810246 -2.617949 0
M  V30 8 N 5.339339 -1.893843 -1.850159 0
M  V30 9 C 4.377613 -1.308738 -1.124099 0
M  V30 10 N 4.503728 -0.266200 -0.171446 0
M  V30 11 N 1.582124 -0.761341 -0.093477 0
M  V30 12 C 0.258635 -0.814661 0.101878 0
M  V30 13 C -0.649204 -0.137995 0.903561 0
M  V30 14 C -0.127146 0.888240 1.767527 0
M  V30 15 C 0.318180 1.751696 2.509389 0
M  V30 16 C 0.877216 2.782906 3.396218 0
M  V30 17 C 2.410054 2.740013 3.364239 0
M  V30 18 C 0.440978 4.114172 2.828102 0
M  V30 19 O 0.431356 2.641253 4.693933 0
M  V30 20 N -1.967795 -0.403860 0.898990 0
M  V30 21 C -2.508932 -1.349233 0.114233 0
M  V30 22 O -3.847792 -1.701284 0.032682 0
M  V30 23 C -4.776170 -1.029260 0.833999 0
M  V30 24 C -4.526951 -1.153092 2.308399 0
M  V30 25 N -5.565376 -0.408503 2.996247 0
M  V30 26 C -1.650761 -2.057106 -0.707458 0
M  V30 27 C -0.282146 -1.790506 -0.711470 0
M  V30 28 H 1.388093 -5.435134 -2.401524 0
M  V30 29 H -0.226015 -5.252539 -1.613480 0
M  V30 30 H 1.275462 -4.670874 -0.803331 0
M  V30 31 H -0.392178 -3.256054 -2.871290 0
M  V30 32 H 1.353984 -3.295306 -3.183907 0
M  V30 33 H 4.914348 -0.246338 0.805527 0
M  V30 34 H 4.173529 0.704194 -0.336009 0
M  V30 35 H 2.802439 3.588341 2.770541 0
M  V30 36 H 2.708527 1.807072 2.838454 0
M  V30 37 H 2.837652 2.679306 4.369707 0
M  V30 38 H -0.546064 4.087469 2.342557 0
M  V30 39 H 0.338713 4.805285 3.714640 0
M  V30 40 H 1.243628 4.510309 2.175446 0
M  V30 41 H 0.373749 1.715387 5.005937 0
M  V30 42 H -5.801433 -1.334803 0.603188 0
M  V30 43 H -4.721285 0.063009 0.601751 0
M  V30 44 H -4.520487 -2.190036 2.659607 0
M  V30 45 H -3.571545 -0.703595 2.629256 0
M  V30 46 H -5.433204 -0.460396 4.017223 0
M  V30 47 H -5.727895 0.524655 2.602614 0
M  V30 48 H -2.020650 -2.837028 -1.369052 0
M  V30 END ATOM
M  V30 BEGIN BOND
M  V30 1 1 1 2
M  V30 2 1 2 3
M  V30 3 1 3 4
M  V30 4 1 4 5
M  V30 5 2 5 6
M  V30 6 1 6 7
M  V30 7 1 7 8
M  V30 8 2 8 9
M  V30 9 1 9 10
M  V30 10 2 4 11
M  V30 11 1 11 12
M  V30 12 2 12 13
M  V30 13 1 13 14
M  V30 14 3 14 15
M  V30 15 1 15 16
M  V30 16 1 16 17
M  V30 17 1 16 18
M  V30 18 1 16 19
M  V30 19 1 13 20
M  V30 20 2 20 21
M  V30 21 1 21 22
M  V30 22 1 22 23
M  V30 23 1 23 24
M  V30 24 1 24 25
M  V30 25 1 21 26
M  V30 26 2 26 27
M  V30 27 1 27 3
M  V30 28 1 9 5
M  V30 29 1 27 12
M  V30 30 1 1 28
M  V30 31 1 1 29
M  V30 32 1 1 30
M  V30 33 1 2 31
M  V30 34 1 2 32
M  V30 35 1 10 33
M  V30 36 1 10 34
M  V30 37 1 17 35
M  V30 38 1 17 36
M  V30 39 1 17 37
M  V30 40 1 18 38
M  V30 41 1 18 39
M  V30 42 1 18 40
M  V30 43 1 19 41
M  V30 44 1 23 42
M  V30 45 1 23 43
M  V30 46 1 24 44
M  V30 47 1 24 45
M  V30 48 1 25 46
M  V30 49 1 25 47
M  V30 50 1 26 48
M  V30 END BOND
M  V30 END CTAB
M  END
>  <Dataset>  (279) 
ChEMBL_Kinases

>  <Ligand_Instance>  (279) 
nan

>  <PDB_ID>  (279) 
nan

>  <Standardized_SMILES>  (279) 
CCn1c(-c2nonc2N)nc2c(C#CC(C)(C)O)nc(OCCN)cc21

>  <Name>  (279) 
nan

>  <Pocket>  (279) 
nan

>  <ATP_Site>  (279) 
nan

>  <Peripheral>  (279) 
nan

>  <Num_H_Atoms_ProtBoundConf>  (279) 
nan

>  <Num_Resolved_Atoms>  (279) 
nan

>  <Num_Not_Resolved_Atoms>  (279) 
nan

$$$$
CHEMBL1096290
     RDKit          3D

  0  0  0  0  0  0  0  0  0  0999 V3000
M  V30 BEGIN CTAB
M  V30 COUNTS 54 57 0 0 0
M  V30 BEGIN ATOM
M  V30 1 C 2.845013 -1.497757 -2.786289 0
M  V30 2 C 2.385879 -0.129636 -2.378857 0
M  V30 3 N 1.929528 -0.029088 -1.022063 0
M  V30 4 C 2.657228 0.207431 0.073174 0
M  V30 5 C 4.064535 0.399048 0.368498 0
M  V30 6 N 4.550121 0.669102 1.579312 0
M  V30 7 O 5.827476 0.821004 1.600600 0
M  V30 8 N 6.302947 0.660614 0.381636 0
M  V30 9 C 5.208391 0.400197 -0.371128 0
M  V30 10 N 5.419122 0.163698 -1.713414 0
M  V30 11 N 1.760625 0.251459 1.055065 0
M  V30 12 C 0.538742 0.055756 0.630295 0
M  V30 13 C -0.660763 0.017827 1.285291 0
M  V30 14 C -0.665259 0.222844 2.710225 0
M  V30 15 C -0.670851 0.415386 3.901594 0
M  V30 16 C -0.658717 0.635846 5.348694 0
M  V30 17 C -0.527531 2.104166 5.645103 0
M  V30 18 C 0.458902 -0.179161 6.009313 0
M  V30 19 O -1.858512 0.146467 5.902303 0
M  V30 20 N -1.776032 -0.209278 0.565927 0
M  V30 21 C -1.735970 -0.397730 -0.769471 0
M  V30 22 C -2.984139 -0.646899 -1.538178 0
M  V30 23 N -3.200632 -2.081585 -1.568183 0
M  V30 24 C -3.338217 -2.618561 -0.246331 0
M  V30 25 C -3.761948 -4.045928 -0.537455 0
M  V30 26 C -4.661718 -3.858577 -1.726275 0
M  V30 27 C -4.482380 -2.418192 -2.156902 0
M  V30 28 C -0.535397 -0.363351 -1.450059 0
M  V30 29 C 0.600710 -0.132904 -0.723644 0
M  V30 30 H 3.737837 -1.461651 -3.464917 0
M  V30 31 H 3.123714 -2.131054 -1.910686 0
M  V30 32 H 2.049628 -2.020314 -3.327873 0
M  V30 33 H 3.116419 0.624750 -2.617161 0
M  V30 34 H 1.488812 0.150199 -3.045149 0
M  V30 35 H 5.700902 0.997753 -2.302447 0
M  V30 36 H 5.562704 -0.072499 -2.706486 0
M  V30 37 H -1.173804 2.383174 6.528303 0
M  V30 38 H -0.920398 2.732562 4.802669 0
M  V30 39 H 0.492970 2.411508 5.957387 0
M  V30 40 H 0.548815 -1.151554 5.446885 0
M  V30 41 H 0.220615 -0.375209 7.073156 0
M  V30 42 H 1.429665 0.345037 5.889462 0
M  V30 43 H -1.764197 -0.855148 5.951206 0
M  V30 44 H -3.829878 -0.155856 -0.979589 0
M  V30 45 H -2.992739 -0.212085 -2.538177 0
M  V30 46 H -4.108639 -2.113997 0.345050 0
M  V30 47 H -2.365155 -2.708076 0.292336 0
M  V30 48 H -4.262020 -4.506330 0.336932 0
M  V30 49 H -2.911136 -4.695852 -0.799620 0
M  V30 50 H -5.725604 -4.096070 -1.472906 0
M  V30 51 H -4.386827 -4.582336 -2.530682 0
M  V30 52 H -4.452901 -2.325747 -3.265005 0
M  V30 53 H -5.296800 -1.761989 -1.805963 0
M  V30 54 H -0.422176 -0.504867 -2.516804 0
M  V30 END ATOM
M  V30 BEGIN BOND
M  V30 1 1 1 2
M  V30 2 1 2 3
M  V30 3 1 3 4
M  V30 4 1 4 5
M  V30 5 2 5 6
M  V30 6 1 6 7
M  V30 7 1 7 8
M  V30 8 2 8 9
M  V30 9 1 9 10
M  V30 10 2 4 11
M  V30 11 1 11 12
M  V30 12 2 12 13
M  V30 13 1 13 14
M  V30 14 3 14 15
M  V30 15 1 15 16
M  V30 16 1 16 17
M  V30 17 1 16 18
M  V30 18 1 16 19
M  V30 19 1 13 20
M  V30 20 2 20 21
M  V30 21 1 21 22
M  V30 22 1 22 23
M  V30 23 1 23 24
M  V30 24 1 24 25
M  V30 25 1 25 26
M  V30 26 1 26 27
M  V30 27 1 21 28
M  V30 28 2 28 29
M  V30 29 1 29 3
M  V30 30 1 9 5
M  V30 31 1 29 12
M  V30 32 1 27 23
M  V30 33 1 1 30
M  V30 34 1 1 31
M  V30 35 1 1 32
M  V30 36 1 2 33
M  V30 37 1 2 34
M  V30 38 1 10 35
M  V30 39 1 10 36
M  V30 40 1 17 37
M  V30 41 1 17 38
M  V30 42 1 17 39
M  V30 43 1 18 40
M  V30 44 1 18 41
M  V30 45 1 18 42
M  V30 46 1 19 43
M  V30 47 1 22 44
M  V30 48 1 22 45
M  V30 49 1 24 46
M  V30 50 1 24 47
M  V30 51 1 25 48
M  V30 52 1 25 49
M  V30 53 1 26 50
M  V30 54 1 26 51
M  V30 55 1 27 52
M  V30 56 1 27 53
M  V30 57 1 28 54
M  V30 END BOND
M  V30 END CTAB
M  END
>  <Dataset>  (280) 
ChEMBL_Kinases

>  <Ligand_Instance>  (280) 
nan

>  <PDB_ID>  (280) 
nan

>  <Standardized_SMILES>  (280) 
CCn1c(-c2nonc2N)nc2c(C#CC(C)(C)O)nc(CN3CCCC3)cc21

>  <Name>  (280) 
GSK-1000163A

>  <Pocket>  (280) 
nan

>  <ATP_Site>  (280) 
nan

>  <Peripheral>  (280) 
nan

>  <Num_H_Atoms_ProtBoundConf>  (280) 
nan

>  <Num_Resolved_Atoms>  (280) 
nan

>  <Num_Not_Resolved_Atoms>  (280) 
nan

$$$$
CHEMBL1096271
     RDKit          3D

  0  0  0  0  0  0  0  0  0  0999 V3000
M  V30 BEGIN CTAB
M  V30 COUNTS 63 67 0 0 0
M  V30 BEGIN ATOM
M  V30 1 C 6.434859 -3.009573 3.235559 0
M  V30 2 O 5.254913 -3.073544 2.460503 0
M  V30 3 C 4.532463 -1.951953 2.083936 0
M  V30 4 C 4.919244 -0.658372 2.446407 0
M  V30 5 C 4.159808 0.442034 2.043792 0
M  V30 6 N 4.595751 1.653657 2.426787 0
M  V30 7 C 3.903312 2.745807 2.062724 0
M  V30 8 C 2.783139 2.545768 1.314592 0
M  V30 9 C 2.031337 3.636230 0.912948 0
M  V30 10 N 2.437893 4.967502 1.288209 0
M  V30 11 N 0.915297 3.546048 0.178721 0
M  V30 12 C 0.453255 2.328052 -0.221288 0
M  V30 13 C -0.770106 2.336834 -1.008988 0
M  V30 14 C -1.391262 3.545465 -1.312332 0
M  V30 15 N -2.546543 3.535236 -2.038622 0
M  V30 16 C -3.072036 2.342583 -2.453690 0
M  V30 17 C -2.474288 1.098624 -2.167161 0
M  V30 18 O -3.271442 0.190138 -2.732791 0
M  V30 19 C -3.352567 -1.152982 -2.867698 0
M  V30 20 C -3.500196 -2.015323 -1.663399 0 CFG=1
M  V30 21 N -2.460093 -1.966018 -0.697045 0
M  V30 22 C -4.817669 -1.803224 -0.942305 0
M  V30 23 C -4.848788 -2.712348 0.227624 0
M  V30 24 C -5.382731 -3.971791 -0.051859 0
M  V30 25 C -5.492533 -4.948699 0.938820 0
M  V30 26 C -5.076486 -4.689789 2.216538 0
M  V30 27 C -4.539284 -3.442046 2.526075 0
M  V30 28 Cl -3.976379 -2.997011 4.125823 0
M  V30 29 C -4.446280 -2.505990 1.526120 0
M  V30 30 C -1.327409 1.160771 -1.443261 0
M  V30 31 C 1.170467 1.207997 0.154144 0
M  V30 32 C 2.319948 1.314938 0.912001 0
M  V30 33 C 3.030314 0.207517 1.285937 0
M  V30 34 C 2.612909 -1.049288 0.906665 0
M  V30 35 C 3.393412 -2.106899 1.326609 0
M  V30 36 O 3.025417 -3.397726 0.975861 0
M  V30 37 C 1.876743 -3.680792 0.200412 0
M  V30 38 H 6.331029 -2.229241 4.013884 0
M  V30 39 H 6.619631 -3.966105 3.775783 0
M  V30 40 H 7.303256 -2.720996 2.611295 0
M  V30 41 H 5.823790 -0.512778 3.048576 0
M  V30 42 H 4.245436 3.729028 2.364826 0
M  V30 43 H 3.369563 5.419058 1.150749 0
M  V30 44 H 1.905542 5.716029 1.755666 0
M  V30 45 H -0.954488 4.471866 -0.972282 0
M  V30 46 H -3.987786 2.612195 -3.008031 0
M  V30 47 H -4.274133 -1.370385 -3.501894 0
M  V30 48 H -2.517903 -1.610862 -3.472089 0
M  V30 49 H -3.551268 -3.078752 -2.049181 0
M  V30 50 H -1.507972 -2.164082 -1.074342 0
M  V30 51 H -2.481451 -1.145980 -0.058422 0
M  V30 52 H -5.703038 -1.903131 -1.568634 0
M  V30 53 H -4.770727 -0.759013 -0.531564 0
M  V30 54 H -5.740468 -4.255832 -1.048990 0
M  V30 55 H -5.914812 -5.923778 0.681816 0
M  V30 56 H -5.144057 -5.412222 3.019570 0
M  V30 57 H -4.044861 -1.526066 1.697484 0
M  V30 58 H -0.924666 0.200772 -1.270744 0
M  V30 59 H 0.770339 0.300831 -0.181697 0
M  V30 60 H 1.759385 -1.269109 0.328749 0
M  V30 61 H 1.961400 -3.240744 -0.793814 0
M  V30 62 H 1.000248 -3.192655 0.706625 0
M  V30 63 H 1.668157 -4.772449 0.220586 0
M  V30 END ATOM
M  V30 BEGIN BOND
M  V30 1 1 1 2
M  V30 2 1 2 3
M  V30 3 2 3 4
M  V30 4 1 4 5
M  V30 5 2 5 6
M  V30 6 1 6 7
M  V30 7 2 7 8
M  V30 8 1 8 9
M  V30 9 1 9 10
M  V30 10 2 9 11
M  V30 11 1 11 12
M  V30 12 1 12 13
M  V30 13 2 13 14
M  V30 14 1 14 15
M  V30 15 2 15 16
M  V30 16 1 16 17
M  V30 17 1 17 18
M  V30 18 1 18 19
M  V30 19 1 19 20
M  V30 20 1 20 21
M  V30 21 1 20 22
M  V30 22 1 22 23
M  V30 23 2 23 24
M  V30 24 1 24 25
M  V30 25 2 25 26
M  V30 26 1 26 27
M  V30 27 1 27 28
M  V30 28 2 27 29
M  V30 29 2 17 30
M  V30 30 2 12 31
M  V30 31 1 31 32
M  V30 32 2 32 33
M  V30 33 1 33 34
M  V30 34 2 34 35
M  V30 35 1 35 36
M  V30 36 1 36 37
M  V30 37 1 35 3
M  V30 38 1 33 5
M  V30 39 1 32 8
M  V30 40 1 30 13
M  V30 41 1 29 23
M  V30 42 1 1 38
M  V30 43 1 1 39
M  V30 44 1 1 40
M  V30 45 1 4 41
M  V30 46 1 7 42
M  V30 47 1 10 43
M  V30 48 1 10 44
M  V30 49 1 14 45
M  V30 50 1 16 46
M  V30 51 1 19 47
M  V30 52 1 19 48
M  V30 53 1 20 49 CFG=3
M  V30 54 1 21 50
M  V30 55 1 21 51
M  V30 56 1 22 52
M  V30 57 1 22 53
M  V30 58 1 24 54
M  V30 59 1 25 55
M  V30 60 1 26 56
M  V30 61 1 29 57
M  V30 62 1 30 58
M  V30 63 1 31 59
M  V30 64 1 34 60
M  V30 65 1 37 61
M  V30 66 1 37 62
M  V30 67 1 37 63
M  V30 END BOND
M  V30 END CTAB
M  END
>  <Dataset>  (281) 
ChEMBL_Kinases

>  <Ligand_Instance>  (281) 
nan

>  <PDB_ID>  (281) 
nan

>  <Standardized_SMILES>  (281) 
COc1cc2ncc3c(N)nc(-c4cncc(OC[C@@H](N)Cc5cccc(Cl)c5)c4)cc3c2cc1OC

>  <Name>  (281) 
nan

>  <Pocket>  (281) 
nan

>  <ATP_Site>  (281) 
nan

>  <Peripheral>  (281) 
nan

>  <Num_H_Atoms_ProtBoundConf>  (281) 
nan

>  <Num_Resolved_Atoms>  (281) 
nan

>  <Num_Not_Resolved_Atoms>  (281) 
nan

$$$$
CHEMBL1095931
     RDKit          3D

  0  0  0  0  0  0  0  0  0  0999 V3000
M  V30 BEGIN CTAB
M  V30 COUNTS 63 67 0 0 0
M  V30 BEGIN ATOM
M  V30 1 C 5.110562 -2.673089 5.011212 0
M  V30 2 O 3.871628 -2.019496 4.889486 0
M  V30 3 C 3.486417 -1.228133 3.830527 0
M  V30 4 C 4.222980 -0.916913 2.711946 0
M  V30 5 C 3.829034 -0.132596 1.658528 0
M  V30 6 N 4.615360 0.043911 0.571797 0
M  V30 7 C 4.113833 0.768988 -0.489926 0
M  V30 8 C 2.827425 1.259721 -0.341991 0
M  V30 9 C 2.211339 1.914806 -1.391599 0
M  V30 10 N 2.835653 2.204699 -2.616680 0
M  V30 11 N 1.064446 2.175733 -1.032183 0
M  V30 12 C -0.004344 2.301232 -0.413067 0
M  V30 13 C -1.237996 2.446839 0.306204 0
M  V30 14 C -1.725600 2.780590 1.530611 0
M  V30 15 N -2.978986 2.450145 1.876639 0
M  V30 16 C -3.791722 1.767491 1.011942 0
M  V30 17 C -3.388347 1.366976 -0.279087 0
M  V30 18 O -4.465067 0.715308 -0.777309 0
M  V30 19 C -4.704818 0.034910 -1.958319 0
M  V30 20 C -3.877788 -1.195730 -2.194535 0 CFG=1
M  V30 21 N -2.497662 -1.151749 -2.273071 0
M  V30 22 C -4.360661 -2.446439 -1.484911 0
M  V30 23 C -3.336112 -3.500573 -1.773901 0
M  V30 24 C -3.222636 -4.393821 -2.803630 0
M  V30 25 C -2.140990 -5.239169 -2.940261 0
M  V30 26 C -1.106640 -5.219569 -2.027925 0
M  V30 27 C -1.183321 -4.334286 -0.975563 0
M  V30 28 C -2.287078 -3.475990 -0.837639 0
M  V30 29 Cl -2.099633 -2.540066 0.662816 0
M  V30 30 C -2.084566 1.752600 -0.569512 0
M  V30 31 C 0.692201 1.612224 0.662749 0
M  V30 32 C 2.001737 1.091241 0.780586 0
M  V30 33 C 2.564579 0.344294 1.826161 0
M  V30 34 C 1.726179 0.122568 2.873269 0
M  V30 35 C 2.203455 -0.674104 3.880927 0
M  V30 36 O 1.393274 -0.960397 5.005341 0
M  V30 37 C 0.077407 -0.424929 5.070501 0
M  V30 38 H 5.023118 -3.674387 5.507483 0
M  V30 39 H 5.600013 -2.839061 4.025702 0
M  V30 40 H 5.774574 -2.058387 5.660707 0
M  V30 41 H 5.231005 -1.343099 2.658930 0
M  V30 42 H 4.680133 0.962302 -1.404862 0
M  V30 43 H 3.028940 3.189735 -2.947885 0
M  V30 44 H 3.168102 1.536324 -3.313567 0
M  V30 45 H -0.912424 3.301813 2.011617 0
M  V30 46 H -4.720528 1.653449 1.573195 0
M  V30 47 H -5.799235 -0.233275 -2.043202 0
M  V30 48 H -4.501772 0.713255 -2.810794 0
M  V30 49 H -4.193371 -1.479484 -3.311666 0
M  V30 50 H -2.059838 -1.127394 -3.235898 0
M  V30 51 H -1.885085 -0.852606 -1.538758 0
M  V30 52 H -5.354476 -2.755583 -1.875801 0
M  V30 53 H -4.470734 -2.361163 -0.402995 0
M  V30 54 H -4.066893 -4.350098 -3.467568 0
M  V30 55 H -2.146035 -5.913760 -3.803567 0
M  V30 56 H -0.264664 -5.908533 -2.188190 0
M  V30 57 H -0.307463 -4.414247 -0.325478 0
M  V30 58 H -1.976361 1.409339 -1.595398 0
M  V30 59 H 0.249045 1.383603 1.668382 0
M  V30 60 H 0.741453 0.477906 3.029955 0
M  V30 61 H -0.534132 -0.737166 4.181268 0
M  V30 62 H -0.413505 -0.815197 5.969983 0
M  V30 63 H 0.101125 0.675918 5.018565 0
M  V30 END ATOM
M  V30 BEGIN BOND
M  V30 1 1 1 2
M  V30 2 1 2 3
M  V30 3 2 3 4
M  V30 4 1 4 5
M  V30 5 2 5 6
M  V30 6 1 6 7
M  V30 7 2 7 8
M  V30 8 1 8 9
M  V30 9 1 9 10
M  V30 10 2 9 11
M  V30 11 1 11 12
M  V30 12 1 12 13
M  V30 13 2 13 14
M  V30 14 1 14 15
M  V30 15 2 15 16
M  V30 16 1 16 17
M  V30 17 1 17 18
M  V30 18 1 18 19
M  V30 19 1 19 20
M  V30 20 1 20 21
M  V30 21 1 20 22
M  V30 22 1 22 23
M  V30 23 2 23 24
M  V30 24 1 24 25
M  V30 25 2 25 26
M  V30 26 1 26 27
M  V30 27 2 27 28
M  V30 28 1 28 29
M  V30 29 2 17 30
M  V30 30 2 12 31
M  V30 31 1 31 32
M  V30 32 2 32 33
M  V30 33 1 33 34
M  V30 34 2 34 35
M  V30 35 1 35 36
M  V30 36 1 36 37
M  V30 37 1 35 3
M  V30 38 1 33 5
M  V30 39 1 32 8
M  V30 40 1 30 13
M  V30 41 1 28 23
M  V30 42 1 1 38
M  V30 43 1 1 39
M  V30 44 1 1 40
M  V30 45 1 4 41
M  V30 46 1 7 42
M  V30 47 1 10 43
M  V30 48 1 10 44
M  V30 49 1 14 45
M  V30 50 1 16 46
M  V30 51 1 19 47
M  V30 52 1 19 48
M  V30 53 1 20 49 CFG=3
M  V30 54 1 21 50
M  V30 55 1 21 51
M  V30 56 1 22 52
M  V30 57 1 22 53
M  V30 58 1 24 54
M  V30 59 1 25 55
M  V30 60 1 26 56
M  V30 61 1 27 57
M  V30 62 1 30 58
M  V30 63 1 31 59
M  V30 64 1 34 60
M  V30 65 1 37 61
M  V30 66 1 37 62
M  V30 67 1 37 63
M  V30 END BOND
M  V30 END CTAB
M  END
>  <Dataset>  (282) 
ChEMBL_Kinases

>  <Ligand_Instance>  (282) 
nan

>  <PDB_ID>  (282) 
nan

>  <Standardized_SMILES>  (282) 
COc1cc2ncc3c(N)nc(-c4cncc(OC[C@@H](N)Cc5ccccc5Cl)c4)cc3c2cc1OC

>  <Name>  (282) 
nan

>  <Pocket>  (282) 
nan

>  <ATP_Site>  (282) 
nan

>  <Peripheral>  (282) 
nan

>  <Num_H_Atoms_ProtBoundConf>  (282) 
nan

>  <Num_Resolved_Atoms>  (282) 
nan

>  <Num_Not_Resolved_Atoms>  (282) 
nan

$$$$
CHEMBL1095624
     RDKit          3D

  0  0  0  0  0  0  0  0  0  0999 V3000
M  V30 BEGIN CTAB
M  V30 COUNTS 47 49 0 0 0
M  V30 BEGIN ATOM
M  V30 1 C 0.503254 -4.822597 -0.360487 0
M  V30 2 C -0.249224 -3.730135 -1.076361 0
M  V30 3 N 0.083924 -2.404729 -0.586535 0
M  V30 4 C 1.051175 -1.573718 -1.015914 0
M  V30 5 C 1.999607 -1.830442 -2.094611 0
M  V30 6 N 2.156577 -2.895774 -2.900927 0
M  V30 7 O 3.132993 -2.695496 -3.726392 0
M  V30 8 N 3.674911 -1.529768 -3.537280 0
M  V30 9 C 2.987188 -0.969475 -2.525419 0
M  V30 10 N 3.279316 0.341209 -2.004733 0
M  V30 11 N 1.055174 -0.424985 -0.314835 0
M  V30 12 C 0.069486 -0.479910 0.608713 0
M  V30 13 C -0.454851 0.315071 1.605761 0
M  V30 14 C 0.174642 1.595178 1.780096 0
M  V30 15 C 0.700917 2.676324 1.947277 0
M  V30 16 C 1.333883 3.986916 2.165354 0
M  V30 17 C 2.787370 3.974047 1.757860 0
M  V30 18 C 1.244768 4.382276 3.615785 0
M  V30 19 O 0.619153 4.899502 1.357264 0
M  V30 20 N -1.503808 -0.101462 2.368764 0
M  V30 21 C -2.079413 -1.325078 2.176805 0
M  V30 22 C -3.188312 -1.509321 3.142761 0
M  V30 23 C -3.875667 -2.841764 2.987427 0
M  V30 24 N -4.418560 -2.922406 1.659500 0
M  V30 25 C -1.582632 -2.147245 1.189930 0
M  V30 26 C -0.520632 -1.712737 0.425243 0
M  V30 27 H 0.824693 -5.641923 -1.031152 0
M  V30 28 H 1.450129 -4.351510 0.029900 0
M  V30 29 H -0.020459 -5.218000 0.526430 0
M  V30 30 H -1.343924 -3.890579 -1.082121 0
M  V30 31 H 0.048867 -3.763329 -2.157241 0
M  V30 32 H 2.615295 1.088774 -2.300302 0
M  V30 33 H 3.985609 0.819871 -1.386852 0
M  V30 34 H 3.443297 4.306561 2.595586 0
M  V30 35 H 3.011026 4.696394 0.936494 0
M  V30 36 H 3.109334 2.936301 1.503214 0
M  V30 37 H 0.859753 3.512980 4.188693 0
M  V30 38 H 0.660096 5.307363 3.794544 0
M  V30 39 H 2.251131 4.593375 4.035361 0
M  V30 40 H 1.028815 5.801904 1.408173 0
M  V30 41 H -2.771755 -1.480328 4.185588 0
M  V30 42 H -3.892918 -0.655378 3.070185 0
M  V30 43 H -3.061363 -3.609935 3.132814 0
M  V30 44 H -4.627882 -3.004538 3.778083 0
M  V30 45 H -5.437497 -2.632293 1.731463 0
M  V30 46 H -4.410496 -3.942409 1.378021 0
M  V30 47 H -2.112906 -3.071054 1.139671 0
M  V30 END ATOM
M  V30 BEGIN BOND
M  V30 1 1 1 2
M  V30 2 1 2 3
M  V30 3 1 3 4
M  V30 4 1 4 5
M  V30 5 2 5 6
M  V30 6 1 6 7
M  V30 7 1 7 8
M  V30 8 2 8 9
M  V30 9 1 9 10
M  V30 10 2 4 11
M  V30 11 1 11 12
M  V30 12 2 12 13
M  V30 13 1 13 14
M  V30 14 3 14 15
M  V30 15 1 15 16
M  V30 16 1 16 17
M  V30 17 1 16 18
M  V30 18 1 16 19
M  V30 19 1 13 20
M  V30 20 2 20 21
M  V30 21 1 21 22
M  V30 22 1 22 23
M  V30 23 1 23 24
M  V30 24 1 21 25
M  V30 25 2 25 26
M  V30 26 1 26 3
M  V30 27 1 9 5
M  V30 28 1 26 12
M  V30 29 1 1 27
M  V30 30 1 1 28
M  V30 31 1 1 29
M  V30 32 1 2 30
M  V30 33 1 2 31
M  V30 34 1 10 32
M  V30 35 1 10 33
M  V30 36 1 17 34
M  V30 37 1 17 35
M  V30 38 1 17 36
M  V30 39 1 18 37
M  V30 40 1 18 38
M  V30 41 1 18 39
M  V30 42 1 19 40
M  V30 43 1 22 41
M  V30 44 1 22 42
M  V30 45 1 23 43
M  V30 46 1 23 44
M  V30 47 1 24 45
M  V30 48 1 24 46
M  V30 49 1 25 47
M  V30 END BOND
M  V30 END CTAB
M  END
>  <Dataset>  (283) 
ChEMBL_Kinases

>  <Ligand_Instance>  (283) 
nan

>  <PDB_ID>  (283) 
nan

>  <Standardized_SMILES>  (283) 
CCn1c(-c2nonc2N)nc2c(C#CC(C)(C)O)nc(CCN)cc21

>  <Name>  (283) 
nan

>  <Pocket>  (283) 
nan

>  <ATP_Site>  (283) 
nan

>  <Peripheral>  (283) 
nan

>  <Num_H_Atoms_ProtBoundConf>  (283) 
nan

>  <Num_Resolved_Atoms>  (283) 
nan

>  <Num_Not_Resolved_Atoms>  (283) 
nan

$$$$
CHEMBL1095622
     RDKit          3D

  0  0  0  0  0  0  0  0  0  0999 V3000
M  V30 BEGIN CTAB
M  V30 COUNTS 63 67 0 0 0
M  V30 BEGIN ATOM
M  V30 1 C 5.552233 -2.566214 4.326175 0
M  V30 2 O 4.220793 -2.648464 3.852745 0
M  V30 3 C 3.622580 -1.619541 3.138886 0
M  V30 4 C 4.410166 -0.508163 2.917946 0
M  V30 5 C 3.863914 0.545880 2.212521 0
M  V30 6 N 4.650628 1.626701 2.004849 0
M  V30 7 C 4.187910 2.701768 1.320811 0
M  V30 8 C 2.888691 2.598898 0.871160 0
M  V30 9 C 2.381460 3.661735 0.176102 0
M  V30 10 N 3.168923 4.822998 -0.069167 0
M  V30 11 N 1.123886 3.645557 -0.298199 0
M  V30 12 C 0.280050 2.588332 -0.123487 0
M  V30 13 C -1.050642 2.719522 -0.694750 0
M  V30 14 C -1.378108 3.875477 -1.365041 0
M  V30 15 N -2.625175 4.008959 -1.904376 0
M  V30 16 C -3.524913 2.992623 -1.768993 0
M  V30 17 C -3.221934 1.801776 -1.091716 0
M  V30 18 O -4.294776 0.977764 -1.112681 0
M  V30 19 C -4.512014 -0.277518 -0.607665 0
M  V30 20 C -3.661026 -1.395528 -1.086455 0 CFG=2
M  V30 21 N -3.747456 -1.620947 -2.513832 0
M  V30 22 C -4.244824 -2.668364 -0.449267 0
M  V30 23 C -3.487296 -3.870457 -0.844122 0
M  V30 24 C -2.409670 -4.279926 -0.066324 0
M  V30 25 C -1.661238 -5.406180 -0.393534 0
M  V30 26 C -1.994136 -6.127927 -1.507650 0
M  V30 27 F -1.333667 -7.239932 -1.917794 0
M  V30 28 C -3.060632 -5.719835 -2.274557 0
M  V30 29 C -3.816006 -4.606189 -1.968053 0
M  V30 30 C -1.967406 1.700380 -0.564391 0
M  V30 31 C 0.782379 1.511825 0.576090 0
M  V30 32 C 2.068361 1.508245 1.070514 0
M  V30 33 C 2.563603 0.439100 1.764156 0
M  V30 34 C 1.784700 -0.673132 1.988809 0
M  V30 35 C 2.311876 -1.758793 2.701765 0
M  V30 36 O 1.678078 -2.942953 3.015775 0
M  V30 37 C 0.362579 -3.258676 2.658959 0
M  V30 38 H 5.760410 -3.354450 5.086832 0
M  V30 39 H 6.314945 -2.504805 3.549718 0
M  V30 40 H 5.599344 -1.609141 4.924679 0
M  V30 41 H 5.415653 -0.436886 3.269862 0
M  V30 42 H 4.770235 3.602909 1.119627 0
M  V30 43 H 3.368292 5.694905 0.503345 0
M  V30 44 H 3.692548 4.921625 -0.972290 0
M  V30 45 H -0.668144 4.701581 -1.483814 0
M  V30 46 H -4.459062 3.275098 -2.259025 0
M  V30 47 H -5.588254 -0.555626 -0.797260 0
M  V30 48 H -4.432197 -0.235510 0.506497 0
M  V30 49 H -2.642684 -1.332145 -0.691732 0
M  V30 50 H -2.866329 -1.871722 -2.970056 0
M  V30 51 H -4.366588 -0.975236 -3.019487 0
M  V30 52 H -5.301388 -2.785279 -0.749489 0
M  V30 53 H -4.212956 -2.608436 0.664454 0
M  V30 54 H -2.156136 -3.702825 0.810111 0
M  V30 55 H -0.819898 -5.732603 0.206554 0
M  V30 56 H -3.419738 -6.216898 -3.186377 0
M  V30 57 H -4.667289 -4.264299 -2.563900 0
M  V30 58 H -1.789949 0.787491 -0.062768 0
M  V30 59 H 0.085847 0.701809 0.690922 0
M  V30 60 H 0.788789 -0.799719 1.666990 0
M  V30 61 H -0.120516 -2.591648 1.947951 0
M  V30 62 H -0.238717 -3.283085 3.594096 0
M  V30 63 H 0.386424 -4.296473 2.259647 0
M  V30 END ATOM
M  V30 BEGIN BOND
M  V30 1 1 1 2
M  V30 2 1 2 3
M  V30 3 2 3 4
M  V30 4 1 4 5
M  V30 5 2 5 6
M  V30 6 1 6 7
M  V30 7 2 7 8
M  V30 8 1 8 9
M  V30 9 1 9 10
M  V30 10 2 9 11
M  V30 11 1 11 12
M  V30 12 1 12 13
M  V30 13 2 13 14
M  V30 14 1 14 15
M  V30 15 2 15 16
M  V30 16 1 16 17
M  V30 17 1 17 18
M  V30 18 1 18 19
M  V30 19 1 19 20
M  V30 20 1 20 21
M  V30 21 1 20 22
M  V30 22 1 22 23
M  V30 23 2 23 24
M  V30 24 1 24 25
M  V30 25 2 25 26
M  V30 26 1 26 27
M  V30 27 1 26 28
M  V30 28 2 28 29
M  V30 29 2 17 30
M  V30 30 2 12 31
M  V30 31 1 31 32
M  V30 32 2 32 33
M  V30 33 1 33 34
M  V30 34 2 34 35
M  V30 35 1 35 36
M  V30 36 1 36 37
M  V30 37 1 35 3
M  V30 38 1 33 5
M  V30 39 1 32 8
M  V30 40 1 30 13
M  V30 41 1 29 23
M  V30 42 1 1 38
M  V30 43 1 1 39
M  V30 44 1 1 40
M  V30 45 1 4 41
M  V30 46 1 7 42
M  V30 47 1 10 43
M  V30 48 1 10 44
M  V30 49 1 14 45
M  V30 50 1 16 46
M  V30 51 1 19 47
M  V30 52 1 19 48
M  V30 53 1 20 49 CFG=1
M  V30 54 1 21 50
M  V30 55 1 21 51
M  V30 56 1 22 52
M  V30 57 1 22 53
M  V30 58 1 24 54
M  V30 59 1 25 55
M  V30 60 1 28 56
M  V30 61 1 29 57
M  V30 62 1 30 58
M  V30 63 1 31 59
M  V30 64 1 34 60
M  V30 65 1 37 61
M  V30 66 1 37 62
M  V30 67 1 37 63
M  V30 END BOND
M  V30 END CTAB
M  END
>  <Dataset>  (284) 
ChEMBL_Kinases

>  <Ligand_Instance>  (284) 
nan

>  <PDB_ID>  (284) 
nan

>  <Standardized_SMILES>  (284) 
COc1cc2ncc3c(N)nc(-c4cncc(OC[C@H](N)Cc5ccc(F)cc5)c4)cc3c2cc1OC

>  <Name>  (284) 
nan

>  <Pocket>  (284) 
nan

>  <ATP_Site>  (284) 
nan

>  <Peripheral>  (284) 
nan

>  <Num_H_Atoms_ProtBoundConf>  (284) 
nan

>  <Num_Resolved_Atoms>  (284) 
nan

>  <Num_Not_Resolved_Atoms>  (284) 
nan

$$$$
CHEMBL1095621
     RDKit          3D

  0  0  0  0  0  0  0  0  0  0999 V3000
M  V30 BEGIN CTAB
M  V30 COUNTS 63 67 0 0 0
M  V30 BEGIN ATOM
M  V30 1 C 6.511063 0.143327 6.682308 0
M  V30 2 O 5.128711 0.438549 6.657448 0
M  V30 3 C 4.392635 0.382115 5.466755 0
M  V30 4 C 5.039145 0.026418 4.279080 0
M  V30 5 C 4.233646 -0.002072 3.159277 0
M  V30 6 N 4.866901 -0.346445 2.018187 0
M  V30 7 C 4.203119 -0.418462 0.828053 0
M  V30 8 C 2.880056 -0.119776 0.892975 0
M  V30 9 C 2.144009 -0.172965 -0.278492 0
M  V30 10 N 2.732846 -0.529628 -1.539958 0
M  V30 11 N 0.832310 0.107977 -0.296500 0
M  V30 12 C 0.115174 0.462141 0.798245 0
M  V30 13 C -1.311027 0.751162 0.689218 0
M  V30 14 C -2.126260 1.117945 1.736829 0
M  V30 15 N -3.453932 1.372942 1.559276 0
M  V30 16 C -3.978741 1.257162 0.298743 0
M  V30 17 C -3.199994 0.885861 -0.815748 0
M  V30 18 O -4.011514 0.868015 -1.883878 0
M  V30 19 C -3.950890 0.602770 -3.209702 0
M  V30 20 C -3.580864 -0.757513 -3.679476 0 CFG=1
M  V30 21 N -2.313984 -1.264282 -3.309727 0
M  V30 22 C -4.623730 -1.801305 -3.320692 0
M  V30 23 C -4.213034 -3.141608 -3.809918 0
M  V30 24 C -3.473805 -4.065921 -3.104176 0
M  V30 25 C -3.122996 -5.295675 -3.617609 0
M  V30 26 C -3.505970 -5.662632 -4.890202 0
M  V30 27 F -3.141066 -6.878661 -5.356673 0
M  V30 28 C -4.245820 -4.763780 -5.624511 0
M  V30 29 C -4.590353 -3.536067 -5.098871 0
M  V30 30 C -1.882309 0.652204 -0.535520 0
M  V30 31 C 0.821277 0.524104 1.982203 0
M  V30 32 C 2.168555 0.238067 2.014777 0
M  V30 33 C 2.893010 0.292601 3.181087 0
M  V30 34 C 2.284480 0.637062 4.352193 0
M  V30 35 C 3.047241 0.683302 5.518662 0
M  V30 36 O 2.488357 1.025254 6.734929 0
M  V30 37 C 1.150722 1.352739 6.940083 0
M  V30 38 H 6.738267 -0.929920 6.495996 0
M  V30 39 H 7.061429 0.764938 5.921001 0
M  V30 40 H 6.889621 0.407688 7.695094 0
M  V30 41 H 6.086905 -0.194403 4.313981 0
M  V30 42 H 4.696026 -0.692497 -0.093241 0
M  V30 43 H 3.604625 -0.009061 -1.785032 0
M  V30 44 H 2.201776 -1.281599 -2.063550 0
M  V30 45 H -1.707486 1.205241 2.716286 0
M  V30 46 H -5.053336 1.500869 0.359518 0
M  V30 47 H -3.350448 1.370056 -3.777694 0
M  V30 48 H -4.997123 0.783142 -3.628194 0
M  V30 49 H -3.585600 -0.699416 -4.812813 0
M  V30 50 H -2.102029 -2.076896 -3.941913 0
M  V30 51 H -2.263102 -1.594275 -2.345671 0
M  V30 52 H -5.554164 -1.529573 -3.859304 0
M  V30 53 H -4.763456 -1.821750 -2.219585 0
M  V30 54 H -3.166821 -3.794027 -2.103998 0
M  V30 55 H -2.539767 -5.980086 -3.013227 0
M  V30 56 H -4.533220 -5.079208 -6.622353 0
M  V30 57 H -5.180520 -2.853391 -5.721549 0
M  V30 58 H -1.327533 0.388205 -1.389832 0
M  V30 59 H 0.252305 0.804646 2.848240 0
M  V30 60 H 1.262147 0.882727 4.483995 0
M  V30 61 H 0.970268 2.399726 6.577512 0
M  V30 62 H 0.476441 0.607107 6.507957 0
M  V30 63 H 1.022366 1.424260 8.059994 0
M  V30 END ATOM
M  V30 BEGIN BOND
M  V30 1 1 1 2
M  V30 2 1 2 3
M  V30 3 2 3 4
M  V30 4 1 4 5
M  V30 5 2 5 6
M  V30 6 1 6 7
M  V30 7 2 7 8
M  V30 8 1 8 9
M  V30 9 1 9 10
M  V30 10 2 9 11
M  V30 11 1 11 12
M  V30 12 1 12 13
M  V30 13 2 13 14
M  V30 14 1 14 15
M  V30 15 2 15 16
M  V30 16 1 16 17
M  V30 17 1 17 18
M  V30 18 1 18 19
M  V30 19 1 19 20
M  V30 20 1 20 21
M  V30 21 1 20 22
M  V30 22 1 22 23
M  V30 23 2 23 24
M  V30 24 1 24 25
M  V30 25 2 25 26
M  V30 26 1 26 27
M  V30 27 1 26 28
M  V30 28 2 28 29
M  V30 29 2 17 30
M  V30 30 2 12 31
M  V30 31 1 31 32
M  V30 32 2 32 33
M  V30 33 1 33 34
M  V30 34 2 34 35
M  V30 35 1 35 36
M  V30 36 1 36 37
M  V30 37 1 35 3
M  V30 38 1 33 5
M  V30 39 1 32 8
M  V30 40 1 30 13
M  V30 41 1 29 23
M  V30 42 1 1 38
M  V30 43 1 1 39
M  V30 44 1 1 40
M  V30 45 1 4 41
M  V30 46 1 7 42
M  V30 47 1 10 43
M  V30 48 1 10 44
M  V30 49 1 14 45
M  V30 50 1 16 46
M  V30 51 1 19 47
M  V30 52 1 19 48
M  V30 53 1 20 49 CFG=3
M  V30 54 1 21 50
M  V30 55 1 21 51
M  V30 56 1 22 52
M  V30 57 1 22 53
M  V30 58 1 24 54
M  V30 59 1 25 55
M  V30 60 1 28 56
M  V30 61 1 29 57
M  V30 62 1 30 58
M  V30 63 1 31 59
M  V30 64 1 34 60
M  V30 65 1 37 61
M  V30 66 1 37 62
M  V30 67 1 37 63
M  V30 END BOND
M  V30 END CTAB
M  END
>  <Dataset>  (285) 
ChEMBL_Kinases

>  <Ligand_Instance>  (285) 
nan

>  <PDB_ID>  (285) 
nan

>  <Standardized_SMILES>  (285) 
COc1cc2ncc3c(N)nc(-c4cncc(OC[C@@H](N)Cc5ccc(F)cc5)c4)cc3c2cc1OC

>  <Name>  (285) 
nan

>  <Pocket>  (285) 
nan

>  <ATP_Site>  (285) 
nan

>  <Peripheral>  (285) 
nan

>  <Num_H_Atoms_ProtBoundConf>  (285) 
nan

>  <Num_Resolved_Atoms>  (285) 
nan

>  <Num_Not_Resolved_Atoms>  (285) 
nan

$$$$
CHEMBL1095612
     RDKit          3D

  0  0  0  0  0  0  0  0  0  0999 V3000
M  V30 BEGIN CTAB
M  V30 COUNTS 67 72 0 0 0
M  V30 BEGIN ATOM
M  V30 1 C 8.539544 1.787722 3.897132 0
M  V30 2 O 7.235176 2.143936 4.316353 0
M  V30 3 C 6.101469 1.740152 3.592827 0
M  V30 4 C 6.219933 0.983568 2.448386 0
M  V30 5 C 5.101594 0.578450 1.724797 0
M  V30 6 N 5.264322 -0.158730 0.613773 0
M  V30 7 C 4.199272 -0.574666 -0.120882 0
M  V30 8 C 2.952943 -0.179917 0.366256 0
M  V30 9 C 1.841160 -0.579887 -0.344640 0
M  V30 10 N 1.956421 -1.365415 -1.532502 0
M  V30 11 N 0.608055 -0.238901 0.064680 0
M  V30 12 C 0.380762 0.506725 1.182394 0
M  V30 13 C -1.003300 0.813650 1.537074 0
M  V30 14 C -1.398984 1.552184 2.631816 0
M  V30 15 N -2.691196 1.802372 2.918048 0
M  V30 16 C -3.669801 1.329241 2.126998 0
M  V30 17 C -3.363203 0.581069 1.011131 0
M  V30 18 O -4.326637 0.046401 0.129029 0
M  V30 19 C -3.912473 -0.706128 -0.995917 0
M  V30 20 C -5.124540 -1.160302 -1.756037 0 CFG=1
M  V30 21 N -5.840250 0.064698 -2.150740 0
M  V30 22 C -4.756085 -1.835334 -3.059247 0
M  V30 23 C -3.913434 -3.030518 -2.885350 0
M  V30 24 C -2.541763 -2.976339 -3.145820 0
M  V30 25 N -1.963469 -4.153513 -2.926921 0
M  V30 26 C -2.938414 -4.984302 -2.524897 0
M  V30 27 C -2.931265 -6.325964 -2.160824 0
M  V30 28 C -4.104616 -6.939658 -1.784634 0
M  V30 29 C -5.310176 -6.229078 -1.763198 0
M  V30 30 C -5.359042 -4.885519 -2.120354 0
M  V30 31 C -4.153373 -4.325998 -2.487567 0
M  V30 32 C -2.032414 0.346061 0.750350 0
M  V30 33 C 1.477406 0.919453 1.910988 0
M  V30 34 C 2.734746 0.575229 1.499169 0
M  V30 35 C 3.865887 0.955934 2.185938 0
M  V30 36 C 3.727175 1.711886 3.327572 0
M  V30 37 C 4.856514 2.115669 4.049870 0
M  V30 38 O 4.786048 2.878515 5.207868 0
M  V30 39 C 3.495214 3.261688 5.671674 0
M  V30 40 H 8.623309 0.705969 3.673330 0
M  V30 41 H 9.236569 1.969345 4.745840 0
M  V30 42 H 8.811217 2.443988 3.047304 0
M  V30 43 H 7.232633 0.736738 2.166017 0
M  V30 44 H 4.266673 -1.170498 -1.024976 0
M  V30 45 H 2.556191 -1.084825 -2.358260 0
M  V30 46 H 1.497733 -2.285467 -1.766077 0
M  V30 47 H -0.636919 1.946032 3.286203 0
M  V30 48 H -4.734997 1.503438 2.313785 0
M  V30 49 H -3.239796 -1.540265 -0.713144 0
M  V30 50 H -3.308026 -0.075422 -1.711107 0
M  V30 51 H -5.743093 -1.827128 -1.139704 0
M  V30 52 H -6.262581 -0.008364 -3.084604 0
M  V30 53 H -6.534985 0.305724 -1.426982 0
M  V30 54 H -5.730790 -2.195703 -3.502428 0
M  V30 55 H -4.351855 -1.136370 -3.814999 0
M  V30 56 H -1.954791 -2.114526 -3.486757 0
M  V30 57 H -0.939992 -4.396161 -3.044063 0
M  V30 58 H -1.959623 -6.816696 -2.200163 0
M  V30 59 H -4.039419 -7.971870 -1.515546 0
M  V30 60 H -6.222746 -6.728438 -1.464349 0
M  V30 61 H -6.268823 -4.300959 -2.116869 0
M  V30 62 H -1.783775 -0.239764 -0.123200 0
M  V30 63 H 1.264951 1.493432 2.767293 0
M  V30 64 H 2.811325 2.058919 3.771596 0
M  V30 65 H 3.025218 3.993801 4.963600 0
M  V30 66 H 2.814818 2.405623 5.809468 0
M  V30 67 H 3.573125 3.784800 6.648975 0
M  V30 END ATOM
M  V30 BEGIN BOND
M  V30 1 1 1 2
M  V30 2 1 2 3
M  V30 3 2 3 4
M  V30 4 1 4 5
M  V30 5 2 5 6
M  V30 6 1 6 7
M  V30 7 2 7 8
M  V30 8 1 8 9
M  V30 9 1 9 10
M  V30 10 2 9 11
M  V30 11 1 11 12
M  V30 12 1 12 13
M  V30 13 2 13 14
M  V30 14 1 14 15
M  V30 15 2 15 16
M  V30 16 1 16 17
M  V30 17 1 17 18
M  V30 18 1 18 19
M  V30 19 1 19 20
M  V30 20 1 20 21
M  V30 21 1 20 22
M  V30 22 1 22 23
M  V30 23 2 23 24
M  V30 24 1 24 25
M  V30 25 1 25 26
M  V30 26 2 26 27
M  V30 27 1 27 28
M  V30 28 2 28 29
M  V30 29 1 29 30
M  V30 30 2 30 31
M  V30 31 2 17 32
M  V30 32 2 12 33
M  V30 33 1 33 34
M  V30 34 2 34 35
M  V30 35 1 35 36
M  V30 36 2 36 37
M  V30 37 1 37 38
M  V30 38 1 38 39
M  V30 39 1 37 3
M  V30 40 1 35 5
M  V30 41 1 34 8
M  V30 42 1 32 13
M  V30 43 1 31 23
M  V30 44 1 31 26
M  V30 45 1 1 40
M  V30 46 1 1 41
M  V30 47 1 1 42
M  V30 48 1 4 43
M  V30 49 1 7 44
M  V30 50 1 10 45
M  V30 51 1 10 46
M  V30 52 1 14 47
M  V30 53 1 16 48
M  V30 54 1 19 49
M  V30 55 1 19 50
M  V30 56 1 20 51 CFG=1
M  V30 57 1 21 52
M  V30 58 1 21 53
M  V30 59 1 22 54
M  V30 60 1 22 55
M  V30 61 1 24 56
M  V30 62 1 25 57
M  V30 63 1 27 58
M  V30 64 1 28 59
M  V30 65 1 29 60
M  V30 66 1 30 61
M  V30 67 1 32 62
M  V30 68 1 33 63
M  V30 69 1 36 64
M  V30 70 1 39 65
M  V30 71 1 39 66
M  V30 72 1 39 67
M  V30 END BOND
M  V30 END CTAB
M  END
>  <Dataset>  (286) 
ChEMBL_Kinases

>  <Ligand_Instance>  (286) 
nan

>  <PDB_ID>  (286) 
nan

>  <Standardized_SMILES>  (286) 
COc1cc2ncc3c(N)nc(-c4cncc(OC[C@@H](N)Cc5c[nH]c6ccccc56)c4)cc3c2cc1OC

>  <Name>  (286) 
nan

>  <Pocket>  (286) 
nan

>  <ATP_Site>  (286) 
nan

>  <Peripheral>  (286) 
nan

>  <Num_H_Atoms_ProtBoundConf>  (286) 
nan

>  <Num_Resolved_Atoms>  (286) 
nan

>  <Num_Not_Resolved_Atoms>  (286) 
nan

$$$$
CHEMBL1095366
     RDKit          3D

  0  0  0  0  0  0  0  0  0  0999 V3000
M  V30 BEGIN CTAB
M  V30 COUNTS 39 41 0 0 0
M  V30 BEGIN ATOM
M  V30 1 C 2.241900 -6.366779 1.006806 0
M  V30 2 C 2.666548 -4.910882 0.829536 0
M  V30 3 C 1.662381 -4.209896 -0.077814 0
M  V30 4 C 2.047657 -2.777744 -0.274341 0
M  V30 5 O 3.021958 -2.146118 0.186100 0
M  V30 6 N 1.109843 -2.131387 -1.119177 0
M  V30 7 C 1.179663 -0.763867 -1.509569 0
M  V30 8 N 1.837114 -0.369803 -2.620672 0
M  V30 9 N 1.760009 0.933623 -2.767768 0
M  V30 10 C 1.041576 1.414401 -1.740928 0
M  V30 11 C 0.640248 2.682351 -1.372745 0
M  V30 12 C -0.111286 2.840597 -0.227763 0
M  V30 13 Cl -0.579265 4.481593 0.168226 0
M  V30 14 C -0.497870 1.800218 0.591786 0
M  V30 15 C -1.295473 2.001068 1.800156 0
M  V30 16 C -0.925625 1.337483 2.976521 0
M  V30 17 C -1.687577 1.529336 4.130930 0
M  V30 18 C -2.791476 2.356265 4.132098 0
M  V30 19 O -3.567208 2.563545 5.270981 0
M  V30 20 C -3.174740 3.025624 2.968762 0
M  V30 21 C -2.406684 2.820730 1.840137 0
M  V30 22 C -0.096290 0.509567 0.227874 0
M  V30 23 C 0.654905 0.369331 -0.920280 0
M  V30 24 H 3.142482 -7.027417 1.114455 0
M  V30 25 H 1.710556 -6.645897 0.074837 0
M  V30 26 H 1.542536 -6.464337 1.860810 0
M  V30 27 H 3.656956 -4.816831 0.352948 0
M  V30 28 H 2.679852 -4.443378 1.834507 0
M  V30 29 H 0.669076 -4.242609 0.385519 0
M  V30 30 H 1.604658 -4.770770 -1.028717 0
M  V30 31 H 0.247168 -2.532936 -1.577375 0
M  V30 32 H 2.161099 1.555157 -3.523944 0
M  V30 33 H 0.938933 3.504664 -2.009757 0
M  V30 34 H -0.074969 0.681635 3.032298 0
M  V30 35 H -1.486162 1.066034 5.081809 0
M  V30 36 H -3.828464 1.834505 5.921878 0
M  V30 37 H -4.031476 3.672371 2.954545 0
M  V30 38 H -2.718451 3.342949 0.961592 0
M  V30 39 H -0.357136 -0.343203 0.811853 0
M  V30 END ATOM
M  V30 BEGIN BOND
M  V30 1 1 1 2
M  V30 2 1 2 3
M  V30 3 1 3 4
M  V30 4 2 4 5
M  V30 5 1 4 6
M  V30 6 1 6 7
M  V30 7 2 7 8
M  V30 8 1 8 9
M  V30 9 1 9 10
M  V30 10 2 10 11
M  V30 11 1 11 12
M  V30 12 1 12 13
M  V30 13 2 12 14
M  V30 14 1 14 15
M  V30 15 2 15 16
M  V30 16 1 16 17
M  V30 17 2 17 18
M  V30 18 1 18 19
M  V30 19 1 18 20
M  V30 20 2 20 21
M  V30 21 1 14 22
M  V30 22 2 22 23
M  V30 23 1 23 7
M  V30 24 1 23 10
M  V30 25 1 21 15
M  V30 26 1 1 24
M  V30 27 1 1 25
M  V30 28 1 1 26
M  V30 29 1 2 27
M  V30 30 1 2 28
M  V30 31 1 3 29
M  V30 32 1 3 30
M  V30 33 1 6 31
M  V30 34 1 9 32
M  V30 35 1 11 33
M  V30 36 1 16 34
M  V30 37 1 17 35
M  V30 38 1 19 36
M  V30 39 1 20 37
M  V30 40 1 21 38
M  V30 41 1 22 39
M  V30 END BOND
M  V30 END CTAB
M  END
>  <Dataset>  (287) 
ChEMBL_Kinases

>  <Ligand_Instance>  (287) 
nan

>  <PDB_ID>  (287) 
nan

>  <Standardized_SMILES>  (287) 
CCCC(=O)Nc1n[nH]c2cc(Cl)c(-c3ccc(O)cc3)cc12

>  <Name>  (287) 
nan

>  <Pocket>  (287) 
nan

>  <ATP_Site>  (287) 
nan

>  <Peripheral>  (287) 
nan

>  <Num_H_Atoms_ProtBoundConf>  (287) 
nan

>  <Num_Resolved_Atoms>  (287) 
nan

>  <Num_Not_Resolved_Atoms>  (287) 
nan

$$$$
CHEMBL1093747
     RDKit          3D

  0  0  0  0  0  0  0  0  0  0999 V3000
M  V30 BEGIN CTAB
M  V30 COUNTS 39 41 0 0 0
M  V30 BEGIN ATOM
M  V30 1 C 3.878969 2.626433 2.027425 0
M  V30 2 C 4.415383 1.262082 1.662394 0
M  V30 3 C 4.663373 1.127558 0.206880 0
M  V30 4 C 3.464228 1.287532 -0.652264 0
M  V30 5 O 3.008184 1.214713 0.575870 0
M  V30 6 N 2.337146 1.450590 -1.606679 0
M  V30 7 C 1.224617 1.449967 -0.861168 0
M  V30 8 N 0.628615 2.513925 -0.297246 0
M  V30 9 N -0.451761 2.130331 0.353497 0
M  V30 10 C -0.550901 0.777466 0.201694 0
M  V30 11 C -1.509884 -0.078287 0.699014 0
M  V30 12 C -1.384911 -1.439707 0.397732 0
M  V30 13 C -2.438306 -2.340271 0.946858 0
M  V30 14 C -3.733569 -1.968878 0.817977 0
M  V30 15 C -4.643695 -2.899313 1.369012 0
M  V30 16 C -4.332698 -4.123199 2.008070 0
M  V30 17 O -5.268910 -4.999960 2.532758 0
M  V30 18 C -2.925184 -4.337998 2.045389 0
M  V30 19 C -1.976505 -3.477281 1.532588 0
M  V30 20 C -0.323329 -1.938009 -0.384187 0
M  V30 21 Br -0.221913 -3.808509 -0.764675 0
M  V30 22 C 0.629317 -1.052676 -0.871267 0
M  V30 23 C 0.498036 0.301554 -0.568163 0
M  V30 24 H 3.739899 3.290229 1.130150 0
M  V30 25 H 4.563180 3.170557 2.732486 0
M  V30 26 H 2.872540 2.514600 2.472466 0
M  V30 27 H 3.835657 0.445321 2.097416 0
M  V30 28 H 5.455433 1.240264 2.132680 0
M  V30 29 H 5.080323 0.095970 -0.013268 0
M  V30 30 H 5.470037 1.819654 -0.155882 0
M  V30 31 H 3.291835 1.449670 -2.213327 0
M  V30 32 H -1.029843 2.838830 0.848012 0
M  V30 33 H -2.305435 0.332472 1.290146 0
M  V30 34 H -4.109092 -1.072531 0.356594 0
M  V30 35 H -5.741305 -2.735065 1.339177 0
M  V30 36 H -5.268201 -5.135300 3.576557 0
M  V30 37 H -2.725703 -5.294177 2.550503 0
M  V30 38 H -0.988193 -3.871432 1.707933 0
M  V30 39 H 1.459529 -1.407931 -1.477040 0
M  V30 END ATOM
M  V30 BEGIN BOND
M  V30 1 1 1 2
M  V30 2 1 2 3
M  V30 3 1 3 4
M  V30 4 2 4 5
M  V30 5 1 4 6
M  V30 6 1 6 7
M  V30 7 2 7 8
M  V30 8 1 8 9
M  V30 9 1 9 10
M  V30 10 2 10 11
M  V30 11 1 11 12
M  V30 12 1 12 13
M  V30 13 2 13 14
M  V30 14 1 14 15
M  V30 15 2 15 16
M  V30 16 1 16 17
M  V30 17 1 16 18
M  V30 18 2 18 19
M  V30 19 2 12 20
M  V30 20 1 20 21
M  V30 21 1 20 22
M  V30 22 2 22 23
M  V30 23 1 23 7
M  V30 24 1 23 10
M  V30 25 1 19 13
M  V30 26 1 1 24
M  V30 27 1 1 25
M  V30 28 1 1 26
M  V30 29 1 2 27
M  V30 30 1 2 28
M  V30 31 1 3 29
M  V30 32 1 3 30
M  V30 33 1 6 31
M  V30 34 1 9 32
M  V30 35 1 11 33
M  V30 36 1 14 34
M  V30 37 1 15 35
M  V30 38 1 17 36
M  V30 39 1 18 37
M  V30 40 1 19 38
M  V30 41 1 22 39
M  V30 END BOND
M  V30 END CTAB
M  END
>  <Dataset>  (288) 
ChEMBL_Kinases

>  <Ligand_Instance>  (288) 
nan

>  <PDB_ID>  (288) 
nan

>  <Standardized_SMILES>  (288) 
CCCC(=O)Nc1n[nH]c2cc(-c3ccc(O)cc3)c(Br)cc12

>  <Name>  (288) 
nan

>  <Pocket>  (288) 
nan

>  <ATP_Site>  (288) 
nan

>  <Peripheral>  (288) 
nan

>  <Num_H_Atoms_ProtBoundConf>  (288) 
nan

>  <Num_Resolved_Atoms>  (288) 
nan

>  <Num_Not_Resolved_Atoms>  (288) 
nan

$$$$
CHEMBL1093833
     RDKit          3D

  0  0  0  0  0  0  0  0  0  0999 V3000
M  V30 BEGIN CTAB
M  V30 COUNTS 62 65 0 0 0
M  V30 BEGIN ATOM
M  V30 1 C 1.227521 2.083782 5.120072 0
M  V30 2 C 0.361361 0.849521 4.956866 0 CFG=2
M  V30 3 N 1.039938 -0.234098 4.312603 0
M  V30 4 C 1.828056 -0.744712 3.248144 0
M  V30 5 N 3.154788 -0.998916 3.439702 0
M  V30 6 C 3.865280 -1.483981 2.410322 0
M  V30 7 C 3.239843 -1.707901 1.211463 0
M  V30 8 C 1.905187 -1.462691 0.983157 0
M  V30 9 N 1.176539 -1.700834 -0.219637 0
M  V30 10 C 1.069054 -1.116144 -1.499012 0
M  V30 11 C 0.049644 -0.081257 -1.750638 0
M  V30 12 C 0.194957 1.158311 -0.918794 0
M  V30 13 S 1.726308 2.001270 -1.176790 0
M  V30 14 C 1.915382 2.509719 -2.867599 0
M  V30 15 O 2.929398 1.257557 -0.767545 0
M  V30 16 O 1.697643 3.261175 -0.350489 0
M  V30 17 C 0.418733 -2.864729 0.049728 0
M  V30 18 O 0.452527 -3.604942 1.082666 0
M  V30 19 C -0.568943 -3.376465 -0.909146 0
M  V30 20 C -1.831175 -2.940028 -0.482699 0
M  V30 21 C -3.000065 -3.236013 -1.155510 0
M  V30 22 C -2.875319 -4.013899 -2.316212 0
M  V30 23 C -1.632599 -4.434101 -2.720147 0
M  V30 24 C -0.482160 -4.127187 -2.036164 0
M  V30 25 C -1.798664 -5.224100 -3.954981 0
M  V30 26 C -3.221798 -4.913244 -4.380294 0
M  V30 27 O -3.859088 -4.471782 -3.198291 0
M  V30 28 N 1.232085 -0.971161 2.058704 0
M  V30 29 C -0.919598 1.235781 4.318332 0
M  V30 30 C -1.092342 1.492883 2.980420 0
M  V30 31 C -2.298895 1.829384 2.395047 0
M  V30 32 C -3.397081 1.904282 3.249954 0
M  V30 33 C -3.304173 1.660645 4.599411 0
M  V30 34 C -2.069401 1.329688 5.119719 0
M  V30 35 H 0.541854 2.958495 5.205860 0
M  V30 36 H 1.898186 2.245011 4.244116 0
M  V30 37 H 1.835359 1.971688 6.019495 0
M  V30 38 H 0.141285 0.519927 6.015906 0
M  V30 39 H 0.952258 -1.164579 4.821670 0
M  V30 40 H 4.913138 -1.704451 2.497780 0
M  V30 41 H 3.784154 -2.094026 0.385064 0
M  V30 42 H 1.022572 -1.971231 -2.242786 0
M  V30 43 H 2.061277 -0.644792 -1.767949 0
M  V30 44 H -1.003191 -0.383108 -1.681353 0
M  V30 45 H 0.173281 0.246688 -2.827081 0
M  V30 46 H 0.042626 0.961020 0.139498 0
M  V30 47 H -0.616400 1.851942 -1.230914 0
M  V30 48 H 1.625828 1.650985 -3.508094 0
M  V30 49 H 1.339409 3.428389 -3.057160 0
M  V30 50 H 2.976752 2.760773 -3.066934 0
M  V30 51 H -2.081159 -2.328787 0.403685 0
M  V30 52 H -4.001438 -2.932415 -0.881801 0
M  V30 53 H 0.534527 -4.400956 -2.258629 0
M  V30 54 H -1.746327 -6.322148 -3.791020 0
M  V30 55 H -1.148121 -4.874286 -4.762580 0
M  V30 56 H -3.779871 -5.816803 -4.729142 0
M  V30 57 H -3.297233 -4.102874 -5.125527 0
M  V30 58 H -0.150023 1.400587 2.459590 0
M  V30 59 H -2.326299 2.010402 1.344696 0
M  V30 60 H -4.362654 2.162631 2.836909 0
M  V30 61 H -4.210587 1.737662 5.215408 0
M  V30 62 H -2.053327 1.146204 6.192640 0
M  V30 END ATOM
M  V30 BEGIN BOND
M  V30 1 1 1 2
M  V30 2 1 2 3
M  V30 3 1 3 4
M  V30 4 2 4 5
M  V30 5 1 5 6
M  V30 6 2 6 7
M  V30 7 1 7 8
M  V30 8 1 8 9
M  V30 9 1 9 10
M  V30 10 1 10 11
M  V30 11 1 11 12
M  V30 12 1 12 13
M  V30 13 1 13 14
M  V30 14 2 13 15
M  V30 15 2 13 16
M  V30 16 1 9 17
M  V30 17 2 17 18
M  V30 18 1 17 19
M  V30 19 2 19 20
M  V30 20 1 20 21
M  V30 21 2 21 22
M  V30 22 1 22 23
M  V30 23 2 23 24
M  V30 24 1 23 25
M  V30 25 1 25 26
M  V30 26 1 26 27
M  V30 27 2 8 28
M  V30 28 1 2 29
M  V30 29 2 29 30
M  V30 30 1 30 31
M  V30 31 2 31 32
M  V30 32 1 32 33
M  V30 33 2 33 34
M  V30 34 1 28 4
M  V30 35 1 34 29
M  V30 36 1 24 19
M  V30 37 1 27 22
M  V30 38 1 1 35
M  V30 39 1 1 36
M  V30 40 1 1 37
M  V30 41 1 2 38 CFG=1
M  V30 42 1 3 39
M  V30 43 1 6 40
M  V30 44 1 7 41
M  V30 45 1 10 42
M  V30 46 1 10 43
M  V30 47 1 11 44
M  V30 48 1 11 45
M  V30 49 1 12 46
M  V30 50 1 12 47
M  V30 51 1 14 48
M  V30 52 1 14 49
M  V30 53 1 14 50
M  V30 54 1 20 51
M  V30 55 1 21 52
M  V30 56 1 24 53
M  V30 57 1 25 54
M  V30 58 1 25 55
M  V30 59 1 26 56
M  V30 60 1 26 57
M  V30 61 1 30 58
M  V30 62 1 31 59
M  V30 63 1 32 60
M  V30 64 1 33 61
M  V30 65 1 34 62
M  V30 END BOND
M  V30 END CTAB
M  END
>  <Dataset>  (289) 
ChEMBL_Kinases

>  <Ligand_Instance>  (289) 
nan

>  <PDB_ID>  (289) 
nan

>  <Standardized_SMILES>  (289) 
C[C@H](Nc1nccc(N(CCCS(C)(=O)=O)C(=O)c2ccc3c(c2)CCO3)n1)c1ccccc1

>  <Name>  (289) 
nan

>  <Pocket>  (289) 
nan

>  <ATP_Site>  (289) 
nan

>  <Peripheral>  (289) 
nan

>  <Num_H_Atoms_ProtBoundConf>  (289) 
nan

>  <Num_Resolved_Atoms>  (289) 
nan

>  <Num_Not_Resolved_Atoms>  (289) 
nan

$$$$
CHEMBL1093834
     RDKit          3D

  0  0  0  0  0  0  0  0  0  0999 V3000
M  V30 BEGIN CTAB
M  V30 COUNTS 58 61 0 0 0
M  V30 BEGIN ATOM
M  V30 1 C 0.502713 -2.624479 4.190453 0
M  V30 2 C 1.263981 -3.354921 3.116990 0
M  V30 3 C 0.356351 -3.597280 1.932477 0
M  V30 4 N 2.394058 -2.589197 2.598089 0
M  V30 5 C 2.238242 -1.283609 2.064355 0
M  V30 6 N 2.924460 -0.408229 2.854273 0
M  V30 7 C 2.919264 0.902222 2.545376 0
M  V30 8 C 2.206973 1.276687 1.430172 0
M  V30 9 C 1.498828 0.385547 0.612401 0
M  V30 10 N 0.791228 0.851673 -0.556802 0
M  V30 11 C 0.778039 2.248340 -0.854739 0
M  V30 12 C -0.320899 3.094550 -0.347579 0
M  V30 13 C -0.566248 3.131921 1.120858 0
M  V30 14 C -1.985968 3.635500 1.424577 0
M  V30 15 N -3.003642 2.865462 0.793821 0
M  V30 16 C -2.673378 2.271913 -0.462137 0
M  V30 17 C -1.589278 3.059398 -1.153739 0
M  V30 18 C 0.138548 -0.075798 -1.399013 0
M  V30 19 O -0.411977 0.155021 -2.486361 0
M  V30 20 C -0.172321 -1.486878 -1.442974 0
M  V30 21 C -1.315972 -1.744814 -0.671919 0
M  V30 22 C -1.889859 -3.014340 -0.521702 0
M  V30 23 C -1.294615 -4.070474 -1.169501 0
M  V30 24 C -0.168742 -3.837674 -1.931790 0
M  V30 25 C 0.361589 -2.575903 -2.052869 0
M  V30 26 C 0.287125 -5.115594 -2.537549 0
M  V30 27 C -0.328716 -6.109389 -1.544300 0
M  V30 28 O -1.563300 -5.433201 -1.256780 0
M  V30 29 N 1.545793 -0.908520 0.978412 0
M  V30 30 H 0.439510 -3.146532 5.151340 0
M  V30 31 H -0.564536 -2.446432 3.856286 0
M  V30 32 H 0.913253 -1.603345 4.351787 0
M  V30 33 H 1.626665 -4.330882 3.493368 0
M  V30 34 H -0.308322 -4.466257 2.070325 0
M  V30 35 H -0.277211 -2.676920 1.845339 0
M  V30 36 H 0.995931 -3.700367 1.022105 0
M  V30 37 H 3.357790 -3.022711 2.619718 0
M  V30 38 H 3.461633 1.641204 3.150798 0
M  V30 39 H 2.236708 2.334133 1.237456 0
M  V30 40 H 0.732592 2.362908 -2.004235 0
M  V30 41 H 1.816896 2.654243 -0.660967 0
M  V30 42 H 0.075400 4.176747 -0.587867 0
M  V30 43 H 0.113099 3.841024 1.622585 0
M  V30 44 H -0.454509 2.150987 1.645683 0
M  V30 45 H -2.051393 4.718172 1.279342 0
M  V30 46 H -2.094549 3.450057 2.533581 0
M  V30 47 H -3.602458 2.291236 1.397553 0
M  V30 48 H -3.582518 2.370989 -1.124393 0
M  V30 49 H -2.336433 1.237812 -0.413501 0
M  V30 50 H -1.952536 4.082116 -1.436244 0
M  V30 51 H -1.342102 2.580384 -2.113266 0
M  V30 52 H -1.896684 -1.035949 -0.100743 0
M  V30 53 H -2.764151 -3.257795 0.055209 0
M  V30 54 H 1.251128 -2.283823 -2.626209 0
M  V30 55 H 1.380223 -5.162689 -2.498750 0
M  V30 56 H -0.121110 -5.268628 -3.545057 0
M  V30 57 H 0.253891 -6.083321 -0.626259 0
M  V30 58 H -0.483878 -7.092147 -1.980216 0
M  V30 END ATOM
M  V30 BEGIN BOND
M  V30 1 1 1 2
M  V30 2 1 2 3
M  V30 3 1 2 4
M  V30 4 1 4 5
M  V30 5 2 5 6
M  V30 6 1 6 7
M  V30 7 2 7 8
M  V30 8 1 8 9
M  V30 9 1 9 10
M  V30 10 1 10 11
M  V30 11 1 11 12
M  V30 12 1 12 13
M  V30 13 1 13 14
M  V30 14 1 14 15
M  V30 15 1 15 16
M  V30 16 1 16 17
M  V30 17 1 10 18
M  V30 18 2 18 19
M  V30 19 1 18 20
M  V30 20 2 20 21
M  V30 21 1 21 22
M  V30 22 2 22 23
M  V30 23 1 23 24
M  V30 24 2 24 25
M  V30 25 1 24 26
M  V30 26 1 26 27
M  V30 27 1 27 28
M  V30 28 2 9 29
M  V30 29 1 29 5
M  V30 30 1 17 12
M  V30 31 1 25 20
M  V30 32 1 28 23
M  V30 33 1 1 30
M  V30 34 1 1 31
M  V30 35 1 1 32
M  V30 36 1 2 33
M  V30 37 1 3 34
M  V30 38 1 3 35
M  V30 39 1 3 36
M  V30 40 1 4 37
M  V30 41 1 7 38
M  V30 42 1 8 39
M  V30 43 1 11 40
M  V30 44 1 11 41
M  V30 45 1 12 42
M  V30 46 1 13 43
M  V30 47 1 13 44
M  V30 48 1 14 45
M  V30 49 1 14 46
M  V30 50 1 15 47
M  V30 51 1 16 48
M  V30 52 1 16 49
M  V30 53 1 17 50
M  V30 54 1 17 51
M  V30 55 1 21 52
M  V30 56 1 22 53
M  V30 57 1 25 54
M  V30 58 1 26 55
M  V30 59 1 26 56
M  V30 60 1 27 57
M  V30 61 1 27 58
M  V30 END BOND
M  V30 END CTAB
M  END
>  <Dataset>  (290) 
ChEMBL_Kinases

>  <Ligand_Instance>  (290) 
nan

>  <PDB_ID>  (290) 
nan

>  <Standardized_SMILES>  (290) 
CC(C)Nc1nccc(N(CC2CCNCC2)C(=O)c2ccc3c(c2)CCO3)n1

>  <Name>  (290) 
nan

>  <Pocket>  (290) 
nan

>  <ATP_Site>  (290) 
nan

>  <Peripheral>  (290) 
nan

>  <Num_H_Atoms_ProtBoundConf>  (290) 
nan

>  <Num_Resolved_Atoms>  (290) 
nan

>  <Num_Not_Resolved_Atoms>  (290) 
nan

$$$$
CHEMBL1094004
     RDKit          3D

  0  0  0  0  0  0  0  0  0  0999 V3000
M  V30 BEGIN CTAB
M  V30 COUNTS 33 35 0 0 0
M  V30 BEGIN ATOM
M  V30 1 C -0.713992 -3.457771 4.430472 0
M  V30 2 O -0.500972 -2.584213 3.337413 0
M  V30 3 C -0.329014 -3.103493 2.063310 0
M  V30 4 C -0.320420 -4.408705 1.625745 0
M  V30 5 C -0.136053 -4.760380 0.314363 0
M  V30 6 C 0.051243 -3.809584 -0.638422 0
M  V30 7 C 0.047708 -2.469615 -0.227287 0
M  V30 8 C 0.225822 -1.407571 -1.237896 0
M  V30 9 N 0.248763 -0.149241 -0.946967 0
M  V30 10 C 0.430196 0.662499 -2.098932 0
M  V30 11 C 0.474113 2.003664 -1.981564 0
M  V30 12 C 0.331933 2.597117 -0.632272 0
M  V30 13 C -0.469875 3.684690 -0.351903 0
M  V30 14 C -0.511530 4.166311 0.958696 0
M  V30 15 C 0.230407 3.576003 1.969007 0
M  V30 16 N 1.007698 2.517043 1.681871 0
M  V30 17 C 1.064169 2.028988 0.406773 0
M  V30 18 C 0.523768 -0.287489 -3.198351 0
M  V30 19 O 0.689013 0.128554 -4.360181 0
M  V30 20 O 0.390129 -1.556113 -2.605927 0
M  V30 21 C -0.139302 -2.097190 1.110408 0
M  V30 22 H -0.034760 -4.318970 4.445307 0
M  V30 23 H -1.775194 -3.836958 4.368201 0
M  V30 24 H -0.653091 -2.939893 5.405523 0
M  V30 25 H -0.475374 -5.092796 2.461782 0
M  V30 26 H -0.143153 -5.803850 0.064693 0
M  V30 27 H 0.204592 -4.012918 -1.688150 0
M  V30 28 H 0.614081 2.498540 -2.938675 0
M  V30 29 H -1.035828 4.121040 -1.156077 0
M  V30 30 H -1.131379 5.016447 1.207571 0
M  V30 31 H 0.174709 3.976061 2.979264 0
M  V30 32 H 1.733079 1.169179 0.305223 0
M  V30 33 H -0.130505 -1.031457 1.362089 0
M  V30 END ATOM
M  V30 BEGIN BOND
M  V30 1 1 1 2
M  V30 2 1 2 3
M  V30 3 2 3 4
M  V30 4 1 4 5
M  V30 5 2 5 6
M  V30 6 1 6 7
M  V30 7 1 7 8
M  V30 8 2 8 9
M  V30 9 1 9 10
M  V30 10 2 10 11
M  V30 11 1 11 12
M  V30 12 2 12 13
M  V30 13 1 13 14
M  V30 14 2 14 15
M  V30 15 1 15 16
M  V30 16 2 16 17
M  V30 17 1 10 18
M  V30 18 2 18 19
M  V30 19 1 18 20
M  V30 20 2 7 21
M  V30 21 1 21 3
M  V30 22 1 20 8
M  V30 23 1 17 12
M  V30 24 1 1 22
M  V30 25 1 1 23
M  V30 26 1 1 24
M  V30 27 1 4 25
M  V30 28 1 5 26
M  V30 29 1 6 27
M  V30 30 1 11 28
M  V30 31 1 13 29
M  V30 32 1 14 30
M  V30 33 1 15 31
M  V30 34 1 17 32
M  V30 35 1 21 33
M  V30 END BOND
M  V30 END CTAB
M  END
>  <Dataset>  (291) 
ChEMBL_Kinases

>  <Ligand_Instance>  (291) 
nan

>  <PDB_ID>  (291) 
nan

>  <Standardized_SMILES>  (291) 
COc1cccc(C2=N/C(=C\c3cccnc3)C(=O)O2)c1

>  <Name>  (291) 
nan

>  <Pocket>  (291) 
nan

>  <ATP_Site>  (291) 
nan

>  <Peripheral>  (291) 
nan

>  <Num_H_Atoms_ProtBoundConf>  (291) 
nan

>  <Num_Resolved_Atoms>  (291) 
nan

>  <Num_Not_Resolved_Atoms>  (291) 
nan

$$$$
CHEMBL1094005
     RDKit          3D

  0  0  0  0  0  0  0  0  0  0999 V3000
M  V30 BEGIN CTAB
M  V30 COUNTS 34 36 0 0 0
M  V30 BEGIN ATOM
M  V30 1 C -1.658805 -5.212287 1.984397 0
M  V30 2 C -0.751212 -4.075850 1.694841 0
M  V30 3 C 0.624581 -4.094418 1.784464 0
M  V30 4 C 1.442296 -3.035487 1.509354 0
M  V30 5 C 0.869886 -1.834309 1.105424 0
M  V30 6 C 1.814859 -0.742496 0.842197 0
M  V30 7 N 1.299878 0.397899 0.451010 0
M  V30 8 C 2.297040 1.355706 0.236970 0
M  V30 9 C 2.060779 2.607715 -0.169537 0
M  V30 10 C 0.688825 3.013656 -0.412652 0
M  V30 11 C 0.002925 2.074158 -1.153981 0
M  V30 12 C -1.336943 2.275395 -1.481559 0
M  V30 13 C -1.978177 3.420859 -1.061692 0
M  V30 14 N -1.271498 4.301213 -0.346211 0
M  V30 15 C 0.007021 4.143929 -0.013626 0
M  V30 16 C 3.527898 0.671377 0.545434 0
M  V30 17 O 4.667533 1.169428 0.483308 0
M  V30 18 O 3.190638 -0.651727 0.923653 0
M  V30 19 C -0.488146 -1.745162 0.994336 0
M  V30 20 C -1.233255 -2.852746 1.289450 0
M  V30 21 N -2.634431 -2.651857 1.146032 0 CHG=1 VAL=4
M  V30 22 O -3.335741 -1.627752 1.241416 0
M  V30 23 O -3.781516 -3.357283 0.871046 0 CHG=-1 VAL=1
M  V30 24 H -1.087926 -6.144634 2.184920 0
M  V30 25 H -2.253708 -5.004560 2.909981 0
M  V30 26 H -2.354008 -5.313956 1.142678 0
M  V30 27 H 1.081855 -5.031729 2.100793 0
M  V30 28 H 2.529511 -3.193627 1.623527 0
M  V30 29 H 2.944738 3.238197 -0.289075 0
M  V30 30 H 0.347491 1.144750 -1.559389 0
M  V30 31 H -1.955783 1.586362 -2.063412 0
M  V30 32 H -3.005978 3.612399 -1.291405 0
M  V30 33 H 0.630499 4.813220 0.559903 0
M  V30 34 H -0.902732 -0.799868 0.675646 0
M  V30 END ATOM
M  V30 BEGIN BOND
M  V30 1 1 1 2
M  V30 2 2 2 3
M  V30 3 1 3 4
M  V30 4 2 4 5
M  V30 5 1 5 6
M  V30 6 2 6 7
M  V30 7 1 7 8
M  V30 8 2 8 9
M  V30 9 1 9 10
M  V30 10 2 10 11
M  V30 11 1 11 12
M  V30 12 2 12 13
M  V30 13 1 13 14
M  V30 14 2 14 15
M  V30 15 1 8 16
M  V30 16 2 16 17
M  V30 17 1 16 18
M  V30 18 1 5 19
M  V30 19 2 19 20
M  V30 20 1 20 21
M  V30 21 2 21 22
M  V30 22 1 21 23
M  V30 23 1 20 2
M  V30 24 1 18 6
M  V30 25 1 15 10
M  V30 26 1 1 24
M  V30 27 1 1 25
M  V30 28 1 1 26
M  V30 29 1 3 27
M  V30 30 1 4 28
M  V30 31 1 9 29
M  V30 32 1 11 30
M  V30 33 1 12 31
M  V30 34 1 13 32
M  V30 35 1 15 33
M  V30 36 1 19 34
M  V30 END BOND
M  V30 END CTAB
M  END
>  <Dataset>  (292) 
ChEMBL_Kinases

>  <Ligand_Instance>  (292) 
nan

>  <PDB_ID>  (292) 
nan

>  <Standardized_SMILES>  (292) 
Cc1ccc(C2=N/C(=C\c3cccnc3)C(=O)O2)cc1[N+](=O)[O-]

>  <Name>  (292) 
nan

>  <Pocket>  (292) 
nan

>  <ATP_Site>  (292) 
nan

>  <Peripheral>  (292) 
nan

>  <Num_H_Atoms_ProtBoundConf>  (292) 
nan

>  <Num_Resolved_Atoms>  (292) 
nan

>  <Num_Not_Resolved_Atoms>  (292) 
nan

$$$$
CHEMBL1094320
     RDKit          3D

  0  0  0  0  0  0  0  0  0  0999 V3000
M  V30 BEGIN CTAB
M  V30 COUNTS 56 59 0 0 0
M  V30 BEGIN ATOM
M  V30 1 C 6.206767 -0.604560 2.719947 0
M  V30 2 C 6.512184 -1.906266 2.040668 0
M  V30 3 C 5.291632 -2.701233 1.734829 0 CFG=1
M  V30 4 N 4.513640 -3.010944 2.930457 0
M  V30 5 C 4.502996 -2.357379 0.534883 0
M  V30 6 O 3.668069 -1.336597 0.466930 0
M  V30 7 C 3.335195 -0.081117 0.482878 0
M  V30 8 C 4.000728 1.116594 0.620748 0
M  V30 9 N 3.354579 2.295755 0.597859 0
M  V30 10 C 2.013931 2.362321 0.436901 0
M  V30 11 C 1.232164 1.238688 0.287597 0
M  V30 12 C -0.205996 1.390230 0.118431 0
M  V30 13 C -1.113401 0.361523 -0.041825 0
M  V30 14 C -2.444990 0.679842 -0.189980 0
M  V30 15 C -2.906874 1.978369 -0.184813 0
M  V30 16 C -4.220486 2.371673 -0.327222 0
M  V30 17 N -5.147486 1.382511 -0.488035 0
M  V30 18 C -4.736949 0.095540 -0.498949 0
M  V30 19 C -5.684352 -0.895254 -0.662315 0
M  V30 20 C -5.349761 -2.233766 -0.684963 0
M  V30 21 O -6.314348 -3.225018 -0.850449 0
M  V30 22 C -7.672892 -2.859459 -0.999723 0
M  V30 23 C -4.025607 -2.591778 -0.539565 0
M  V30 24 O -3.720608 -3.947548 -0.566657 0
M  V30 25 C -2.391903 -4.425790 -0.426470 0
M  V30 26 C -3.050674 -1.610255 -0.373276 0
M  V30 27 C -3.416714 -0.282448 -0.354991 0
M  V30 28 C -1.963977 2.971139 -0.021912 0
M  V30 29 N -2.340334 4.356683 -0.002067 0
M  V30 30 N -0.671583 2.642627 0.120952 0
M  V30 31 C 1.940124 0.030006 0.317009 0
M  V30 32 H 6.589112 -0.592859 3.785255 0
M  V30 33 H 5.142598 -0.384307 2.805712 0
M  V30 34 H 6.744534 0.250913 2.247432 0
M  V30 35 H 7.223703 -2.468139 2.717379 0
M  V30 36 H 7.146445 -1.748250 1.117141 0
M  V30 37 H 5.725120 -3.753294 1.485484 0
M  V30 38 H 3.866334 -3.792443 2.660755 0
M  V30 39 H 5.192218 -3.458070 3.593848 0
M  V30 40 H 3.895012 -3.316316 0.304267 0
M  V30 41 H 5.249696 -2.379999 -0.324728 0
M  V30 42 H 5.063595 1.012624 0.731268 0
M  V30 43 H 1.644249 3.375286 0.439981 0
M  V30 44 H -0.749062 -0.618360 -0.043792 0
M  V30 45 H -4.512752 3.412652 -0.313512 0
M  V30 46 H -6.736394 -0.588541 -0.776774 0
M  V30 47 H -7.723756 -2.064899 -1.783963 0
M  V30 48 H -8.269468 -3.727973 -1.352862 0
M  V30 49 H -8.095008 -2.414674 -0.071898 0
M  V30 50 H -1.720265 -3.885937 -1.156410 0
M  V30 51 H -2.045481 -4.265358 0.595202 0
M  V30 52 H -2.357522 -5.485982 -0.752156 0
M  V30 53 H -2.076295 -1.997719 -0.272176 0
M  V30 54 H -2.900053 4.637696 0.852701 0
M  V30 55 H -2.095787 5.046677 -0.752442 0
M  V30 56 H 1.229655 -0.802679 0.190257 0
M  V30 END ATOM
M  V30 BEGIN BOND
M  V30 1 1 1 2
M  V30 2 1 2 3
M  V30 3 1 3 4
M  V30 4 1 3 5
M  V30 5 1 5 6
M  V30 6 1 6 7
M  V30 7 2 7 8
M  V30 8 1 8 9
M  V30 9 2 9 10
M  V30 10 1 10 11
M  V30 11 1 11 12
M  V30 12 2 12 13
M  V30 13 1 13 14
M  V30 14 2 14 15
M  V30 15 1 15 16
M  V30 16 2 16 17
M  V30 17 1 17 18
M  V30 18 2 18 19
M  V30 19 1 19 20
M  V30 20 1 20 21
M  V30 21 1 21 22
M  V30 22 2 20 23
M  V30 23 1 23 24
M  V30 24 1 24 25
M  V30 25 1 23 26
M  V30 26 2 26 27
M  V30 27 1 15 28
M  V30 28 1 28 29
M  V30 29 2 28 30
M  V30 30 2 11 31
M  V30 31 1 31 7
M  V30 32 1 30 12
M  V30 33 1 27 14
M  V30 34 1 27 18
M  V30 35 1 1 32
M  V30 36 1 1 33
M  V30 37 1 1 34
M  V30 38 1 2 35
M  V30 39 1 2 36
M  V30 40 1 3 37 CFG=3
M  V30 41 1 4 38
M  V30 42 1 4 39
M  V30 43 1 5 40
M  V30 44 1 5 41
M  V30 45 1 8 42
M  V30 46 1 10 43
M  V30 47 1 13 44
M  V30 48 1 16 45
M  V30 49 1 19 46
M  V30 50 1 22 47
M  V30 51 1 22 48
M  V30 52 1 22 49
M  V30 53 1 25 50
M  V30 54 1 25 51
M  V30 55 1 25 52
M  V30 56 1 26 53
M  V30 57 1 29 54
M  V30 58 1 29 55
M  V30 59 1 31 56
M  V30 END BOND
M  V30 END CTAB
M  END
>  <Dataset>  (293) 
ChEMBL_Kinases

>  <Ligand_Instance>  (293) 
nan

>  <PDB_ID>  (293) 
nan

>  <Standardized_SMILES>  (293) 
CC[C@@H](N)COc1cncc(-c2cc3c(cnc4cc(OC)c(OC)cc43)c(N)n2)c1

>  <Name>  (293) 
nan

>  <Pocket>  (293) 
nan

>  <ATP_Site>  (293) 
nan

>  <Peripheral>  (293) 
nan

>  <Num_H_Atoms_ProtBoundConf>  (293) 
nan

>  <Num_Resolved_Atoms>  (293) 
nan

>  <Num_Not_Resolved_Atoms>  (293) 
nan

$$$$
CHEMBL1094321
     RDKit          3D

  0  0  0  0  0  0  0  0  0  0999 V3000
M  V30 BEGIN CTAB
M  V30 COUNTS 62 65 0 0 0
M  V30 BEGIN ATOM
M  V30 1 C 3.186003 -0.991590 7.776483 0
M  V30 2 O 2.327602 -1.396872 6.751936 0
M  V30 3 C 2.145810 -0.670386 5.572364 0
M  V30 4 C 2.868593 0.499078 5.453213 0
M  V30 5 C 2.697866 1.226633 4.291922 0
M  V30 6 N 3.408955 2.363999 4.190502 0
M  V30 7 C 3.315462 3.158678 3.085215 0
M  V30 8 C 2.455042 2.701821 2.118757 0
M  V30 9 C 2.331416 3.472630 0.989372 0
M  V30 10 N 3.066741 4.686071 0.840731 0
M  V30 11 N 1.499515 3.093344 -0.018598 0
M  V30 12 C 0.760454 1.957989 0.031266 0
M  V30 13 C -0.085035 1.675489 -1.113920 0
M  V30 14 C -0.086219 2.564783 -2.166345 0
M  V30 15 N -0.846924 2.381538 -3.280815 0
M  V30 16 C -1.647948 1.289728 -3.393082 0
M  V30 17 C -1.667682 0.368811 -2.340102 0
M  V30 18 O -2.502970 -0.689253 -2.552294 0
M  V30 19 C -2.723288 -1.755906 -1.680074 0
M  V30 20 C -3.717828 -2.738337 -2.258260 0 CFG=1
M  V30 21 N -4.996276 -2.077074 -2.500808 0
M  V30 22 C -3.275910 -3.281359 -3.589020 0
M  V30 23 C -1.960205 -4.015835 -3.544606 0
M  V30 24 C -2.034746 -5.198105 -2.604896 0
M  V30 25 C -1.716174 -4.553572 -4.938903 0
M  V30 26 C -0.894585 0.565506 -1.219582 0
M  V30 27 C 0.864486 1.164096 1.153780 0
M  V30 28 C 1.706217 1.546358 2.175500 0
M  V30 29 C 1.839321 0.783794 3.312126 0
M  V30 30 C 1.127635 -0.384641 3.449505 0
M  V30 31 C 1.273453 -1.147393 4.608866 0
M  V30 32 O 0.621350 -2.341507 4.881155 0
M  V30 33 C -0.283468 -2.840880 3.887230 0
M  V30 34 H 2.799344 -0.032222 8.182347 0
M  V30 35 H 4.215255 -0.765898 7.419687 0
M  V30 36 H 3.261587 -1.796416 8.507055 0
M  V30 37 H 3.542890 0.844557 6.225447 0
M  V30 38 H 3.874080 4.075278 2.977655 0
M  V30 39 H 4.023772 4.886627 0.438117 0
M  V30 40 H 2.376981 5.365502 1.255637 0
M  V30 41 H 0.505453 3.483215 -2.215512 0
M  V30 42 H -2.243921 1.174078 -4.299469 0
M  V30 43 H -3.187182 -1.343357 -0.750607 0
M  V30 44 H -1.815996 -2.282806 -1.357283 0
M  V30 45 H -3.900325 -3.535497 -1.520876 0
M  V30 46 H -5.198922 -1.320160 -1.825194 0
M  V30 47 H -5.711834 -2.823865 -2.543521 0
M  V30 48 H -3.253630 -2.458523 -4.306960 0
M  V30 49 H -4.046716 -4.025021 -3.894001 0
M  V30 50 H -1.124615 -3.368590 -3.210972 0
M  V30 51 H -3.104119 -5.537418 -2.500095 0
M  V30 52 H -1.507761 -6.092823 -3.039777 0
M  V30 53 H -1.576243 -5.012475 -1.624376 0
M  V30 54 H -0.848116 -5.232751 -4.971770 0
M  V30 55 H -1.583288 -3.679640 -5.625536 0
M  V30 56 H -2.622647 -5.121160 -5.233345 0
M  V30 57 H -0.928499 -0.152041 -0.432049 0
M  V30 58 H 0.271802 0.290179 1.150148 0
M  V30 59 H 0.446663 -0.792295 2.738986 0
M  V30 60 H -0.834159 -3.717012 4.261082 0
M  V30 61 H 0.283222 -3.207338 2.994698 0
M  V30 62 H -0.970921 -2.062004 3.515575 0
M  V30 END ATOM
M  V30 BEGIN BOND
M  V30 1 1 1 2
M  V30 2 1 2 3
M  V30 3 2 3 4
M  V30 4 1 4 5
M  V30 5 2 5 6
M  V30 6 1 6 7
M  V30 7 2 7 8
M  V30 8 1 8 9
M  V30 9 1 9 10
M  V30 10 2 9 11
M  V30 11 1 11 12
M  V30 12 1 12 13
M  V30 13 2 13 14
M  V30 14 1 14 15
M  V30 15 2 15 16
M  V30 16 1 16 17
M  V30 17 1 17 18
M  V30 18 1 18 19
M  V30 19 1 19 20
M  V30 20 1 20 21
M  V30 21 1 20 22
M  V30 22 1 22 23
M  V30 23 1 23 24
M  V30 24 1 23 25
M  V30 25 2 17 26
M  V30 26 2 12 27
M  V30 27 1 27 28
M  V30 28 2 28 29
M  V30 29 1 29 30
M  V30 30 2 30 31
M  V30 31 1 31 32
M  V30 32 1 32 33
M  V30 33 1 31 3
M  V30 34 1 29 5
M  V30 35 1 28 8
M  V30 36 1 26 13
M  V30 37 1 1 34
M  V30 38 1 1 35
M  V30 39 1 1 36
M  V30 40 1 4 37
M  V30 41 1 7 38
M  V30 42 1 10 39
M  V30 43 1 10 40
M  V30 44 1 14 41
M  V30 45 1 16 42
M  V30 46 1 19 43
M  V30 47 1 19 44
M  V30 48 1 20 45 CFG=1
M  V30 49 1 21 46
M  V30 50 1 21 47
M  V30 51 1 22 48
M  V30 52 1 22 49
M  V30 53 1 23 50
M  V30 54 1 24 51
M  V30 55 1 24 52
M  V30 56 1 24 53
M  V30 57 1 25 54
M  V30 58 1 25 55
M  V30 59 1 25 56
M  V30 60 1 26 57
M  V30 61 1 27 58
M  V30 62 1 30 59
M  V30 63 1 33 60
M  V30 64 1 33 61
M  V30 65 1 33 62
M  V30 END BOND
M  V30 END CTAB
M  END
>  <Dataset>  (294) 
ChEMBL_Kinases

>  <Ligand_Instance>  (294) 
nan

>  <PDB_ID>  (294) 
nan

>  <Standardized_SMILES>  (294) 
COc1cc2ncc3c(N)nc(-c4cncc(OC[C@@H](N)CC(C)C)c4)cc3c2cc1OC

>  <Name>  (294) 
nan

>  <Pocket>  (294) 
nan

>  <ATP_Site>  (294) 
nan

>  <Peripheral>  (294) 
nan

>  <Num_H_Atoms_ProtBoundConf>  (294) 
nan

>  <Num_Resolved_Atoms>  (294) 
nan

>  <Num_Not_Resolved_Atoms>  (294) 
nan

$$$$
CHEMBL1094477
     RDKit          3D

  0  0  0  0  0  0  0  0  0  0999 V3000
M  V30 BEGIN CTAB
M  V30 COUNTS 43 46 0 0 0
M  V30 BEGIN ATOM
M  V30 1 C -1.311402 -1.902248 -3.790714 0
M  V30 2 C 0.185490 -1.776756 -3.896437 0
M  V30 3 C 0.747467 -2.041826 -5.121285 0
M  V30 4 C 2.110820 -1.948054 -5.295360 0
M  V30 5 C 2.869176 -1.587663 -4.221968 0
M  V30 6 C 2.247941 -1.334884 -3.020736 0
M  V30 7 C 0.893329 -1.412810 -2.789913 0
M  V30 8 N 0.257559 -1.151827 -1.552045 0
M  V30 9 C 0.850750 -0.768360 -0.326168 0
M  V30 10 N 2.154503 -0.573593 -0.091607 0
M  V30 11 C 2.692387 -0.210510 1.078184 0
M  V30 12 C 1.880740 -0.007409 2.163151 0
M  V30 13 C 0.542331 -0.201357 1.945015 0
M  V30 14 N 0.069155 -0.565681 0.745521 0
M  V30 15 C -0.365174 0.002245 3.066022 0
M  V30 16 C 0.273115 0.374526 4.228967 0
M  V30 17 C -0.751586 0.517896 5.169036 0
M  V30 18 C -0.668054 0.899556 6.582342 0
M  V30 19 N -1.850992 0.984490 7.362743 0
M  V30 20 O 0.451703 1.150184 7.097546 0
M  V30 21 N -1.904103 0.228181 4.517999 0
M  V30 22 N -1.686980 -0.082183 3.258184 0
M  V30 23 C -2.618213 -0.452589 2.215720 0
M  V30 24 C 1.705964 0.603821 4.540254 0
M  V30 25 C 2.609796 0.385615 3.375305 0
M  V30 26 H -1.607958 -2.691125 -3.071645 0
M  V30 27 H -1.775553 -2.105033 -4.774126 0
M  V30 28 H -1.739889 -0.905104 -3.484260 0
M  V30 29 H 0.128716 -2.327424 -5.965044 0
M  V30 30 H 2.547888 -2.155164 -6.251624 0
M  V30 31 H 3.926818 -1.517786 -4.367894 0
M  V30 32 H 2.921238 -1.056810 -2.226819 0
M  V30 33 H -0.792335 -1.260925 -1.558733 0
M  V30 34 H 3.769110 -0.116267 1.019112 0
M  V30 35 H -2.568385 1.754499 7.444342 0
M  V30 36 H -1.994985 0.119464 7.934924 0
M  V30 37 H -3.573114 -0.831961 2.643629 0
M  V30 38 H -2.233217 -1.265713 1.558849 0
M  V30 39 H -2.900271 0.405249 1.569800 0
M  V30 40 H 2.034616 -0.049962 5.400578 0
M  V30 41 H 1.836519 1.656009 4.930047 0
M  V30 42 H 3.337583 -0.432457 3.654495 0
M  V30 43 H 3.272462 1.272365 3.193402 0
M  V30 END ATOM
M  V30 BEGIN BOND
M  V30 1 1 1 2
M  V30 2 2 2 3
M  V30 3 1 3 4
M  V30 4 2 4 5
M  V30 5 1 5 6
M  V30 6 2 6 7
M  V30 7 1 7 8
M  V30 8 1 8 9
M  V30 9 2 9 10
M  V30 10 1 10 11
M  V30 11 2 11 12
M  V30 12 1 12 13
M  V30 13 2 13 14
M  V30 14 1 13 15
M  V30 15 2 15 16
M  V30 16 1 16 17
M  V30 17 1 17 18
M  V30 18 1 18 19
M  V30 19 2 18 20
M  V30 20 2 17 21
M  V30 21 1 21 22
M  V30 22 1 22 23
M  V30 23 1 16 24
M  V30 24 1 24 25
M  V30 25 1 7 2
M  V30 26 1 14 9
M  V30 27 1 22 15
M  V30 28 1 25 12
M  V30 29 1 1 26
M  V30 30 1 1 27
M  V30 31 1 1 28
M  V30 32 1 3 29
M  V30 33 1 4 30
M  V30 34 1 5 31
M  V30 35 1 6 32
M  V30 36 1 8 33
M  V30 37 1 11 34
M  V30 38 1 19 35
M  V30 39 1 19 36
M  V30 40 1 23 37
M  V30 41 1 23 38
M  V30 42 1 23 39
M  V30 43 1 24 40
M  V30 44 1 24 41
M  V30 45 1 25 42
M  V30 46 1 25 43
M  V30 END BOND
M  V30 END CTAB
M  END
>  <Dataset>  (295) 
ChEMBL_Kinases

>  <Ligand_Instance>  (295) 
nan

>  <PDB_ID>  (295) 
nan

>  <Standardized_SMILES>  (295) 
Cc1ccccc1Nc1ncc2c(n1)-c1c(c(C(N)=O)nn1C)CC2

>  <Name>  (295) 
nan

>  <Pocket>  (295) 
nan

>  <ATP_Site>  (295) 
nan

>  <Peripheral>  (295) 
nan

>  <Num_H_Atoms_ProtBoundConf>  (295) 
nan

>  <Num_Resolved_Atoms>  (295) 
nan

>  <Num_Not_Resolved_Atoms>  (295) 
nan

$$$$
CHEMBL1095294
     RDKit          3D

  0  0  0  0  0  0  0  0  0  0999 V3000
M  V30 BEGIN CTAB
M  V30 COUNTS 63 67 0 0 0
M  V30 BEGIN ATOM
M  V30 1 C 6.828959 -2.099917 -4.154988 0
M  V30 2 O 5.513767 -2.335363 -3.685854 0
M  V30 3 C 4.998646 -1.440105 -2.725328 0
M  V30 4 C 5.832843 -0.416596 -2.341498 0
M  V30 5 C 5.232617 0.415296 -1.385799 0
M  V30 6 N 6.028415 1.441499 -0.978348 0
M  V30 7 C 5.580041 2.311867 -0.065520 0
M  V30 8 C 4.309864 2.092584 0.403146 0
M  V30 9 C 3.821618 2.984206 1.355274 0
M  V30 10 N 4.653037 4.058957 1.782346 0
M  V30 11 N 2.582799 2.845810 1.873962 0
M  V30 12 C 1.758864 1.850578 1.504462 0
M  V30 13 C 0.443455 1.844109 2.145661 0
M  V30 14 C 0.122728 2.805267 3.050247 0
M  V30 15 N -1.068577 2.872143 3.664727 0
M  V30 16 C -2.078603 1.995798 3.451404 0
M  V30 17 C -1.753333 1.024411 2.536640 0
M  V30 18 O -2.616188 0.024276 2.152563 0
M  V30 19 C -3.917861 -0.218401 2.548476 0
M  V30 20 C -4.521556 -1.438749 1.870167 0 CFG=2
M  V30 21 N -4.517866 -1.266985 0.428771 0
M  V30 22 C -5.971887 -1.587725 2.343405 0
M  V30 23 C -6.600867 -2.755173 1.714625 0
M  V30 24 C -7.303044 -2.734424 0.529776 0
M  V30 25 C -7.899004 -3.795874 -0.100220 0
M  V30 26 C -7.795726 -5.051257 0.505438 0
M  V30 27 C -7.098439 -5.165093 1.712987 0
M  V30 28 C -6.525878 -4.014800 2.274842 0
M  V30 29 C -0.551363 0.895212 1.870970 0
M  V30 30 C 2.163609 0.923901 0.567738 0
M  V30 31 C 3.428513 1.088000 0.055834 0
M  V30 32 C 3.960787 0.218448 -0.899069 0
M  V30 33 C 3.200082 -0.842871 -1.350549 0
M  V30 34 C 3.729988 -1.723272 -2.308960 0
M  V30 35 O 2.998842 -2.783492 -2.774277 0
M  V30 36 C 1.696886 -3.070781 -2.350330 0
M  V30 37 H 6.996183 -1.121472 -4.596797 0
M  V30 38 H 7.155089 -2.929642 -4.837312 0
M  V30 39 H 7.520088 -2.170449 -3.259273 0
M  V30 40 H 6.828858 -0.257821 -2.720801 0
M  V30 41 H 6.178921 3.134769 0.280568 0
M  V30 42 H 5.369037 4.098298 2.534375 0
M  V30 43 H 5.192340 3.616701 2.565873 0
M  V30 44 H 0.819688 3.568458 3.320675 0
M  V30 45 H -3.050125 2.009845 3.914515 0
M  V30 46 H -3.954964 -0.401656 3.637132 0
M  V30 47 H -4.592516 0.654834 2.374576 0
M  V30 48 H -4.007582 -2.377571 2.102858 0
M  V30 49 H -3.540894 -1.244157 0.047262 0
M  V30 50 H -5.051221 -1.978632 -0.092657 0
M  V30 51 H -6.521869 -0.644895 2.048807 0
M  V30 52 H -5.995781 -1.718013 3.439261 0
M  V30 53 H -7.424839 -1.768720 0.005501 0
M  V30 54 H -8.434082 -3.690136 -1.034142 0
M  V30 55 H -8.275376 -5.869196 -0.013123 0
M  V30 56 H -7.033891 -6.141317 2.160827 0
M  V30 57 H -6.028930 -4.226858 3.186963 0
M  V30 58 H -0.291393 0.131876 1.157424 0
M  V30 59 H 1.507431 0.130054 0.275726 0
M  V30 60 H 2.205811 -1.071752 -1.031784 0
M  V30 61 H 1.446939 -4.105346 -2.712067 0
M  V30 62 H 0.948070 -2.348630 -2.716779 0
M  V30 63 H 1.713374 -3.162621 -1.240036 0
M  V30 END ATOM
M  V30 BEGIN BOND
M  V30 1 1 1 2
M  V30 2 1 2 3
M  V30 3 2 3 4
M  V30 4 1 4 5
M  V30 5 2 5 6
M  V30 6 1 6 7
M  V30 7 2 7 8
M  V30 8 1 8 9
M  V30 9 1 9 10
M  V30 10 2 9 11
M  V30 11 1 11 12
M  V30 12 1 12 13
M  V30 13 2 13 14
M  V30 14 1 14 15
M  V30 15 2 15 16
M  V30 16 1 16 17
M  V30 17 1 17 18
M  V30 18 1 18 19
M  V30 19 1 19 20
M  V30 20 1 20 21
M  V30 21 1 20 22
M  V30 22 1 22 23
M  V30 23 2 23 24
M  V30 24 1 24 25
M  V30 25 2 25 26
M  V30 26 1 26 27
M  V30 27 2 27 28
M  V30 28 2 17 29
M  V30 29 2 12 30
M  V30 30 1 30 31
M  V30 31 2 31 32
M  V30 32 1 32 33
M  V30 33 2 33 34
M  V30 34 1 34 35
M  V30 35 1 35 36
M  V30 36 1 34 3
M  V30 37 1 32 5
M  V30 38 1 31 8
M  V30 39 1 29 13
M  V30 40 1 28 23
M  V30 41 1 1 37
M  V30 42 1 1 38
M  V30 43 1 1 39
M  V30 44 1 4 40
M  V30 45 1 7 41
M  V30 46 1 10 42
M  V30 47 1 10 43
M  V30 48 1 14 44
M  V30 49 1 16 45
M  V30 50 1 19 46
M  V30 51 1 19 47
M  V30 52 1 20 48 CFG=3
M  V30 53 1 21 49
M  V30 54 1 21 50
M  V30 55 1 22 51
M  V30 56 1 22 52
M  V30 57 1 24 53
M  V30 58 1 25 54
M  V30 59 1 26 55
M  V30 60 1 27 56
M  V30 61 1 28 57
M  V30 62 1 29 58
M  V30 63 1 30 59
M  V30 64 1 33 60
M  V30 65 1 36 61
M  V30 66 1 36 62
M  V30 67 1 36 63
M  V30 END BOND
M  V30 END CTAB
M  END
>  <Dataset>  (296) 
ChEMBL_Kinases

>  <Ligand_Instance>  (296) 
nan

>  <PDB_ID>  (296) 
nan

>  <Standardized_SMILES>  (296) 
COc1cc2ncc3c(N)nc(-c4cncc(OC[C@H](N)Cc5ccccc5)c4)cc3c2cc1OC

>  <Name>  (296) 
nan

>  <Pocket>  (296) 
nan

>  <ATP_Site>  (296) 
nan

>  <Peripheral>  (296) 
nan

>  <Num_H_Atoms_ProtBoundConf>  (296) 
nan

>  <Num_Resolved_Atoms>  (296) 
nan

>  <Num_Not_Resolved_Atoms>  (296) 
nan

$$$$
CHEMBL1095038
     RDKit          3D

  0  0  0  0  0  0  0  0  0  0999 V3000
M  V30 BEGIN CTAB
M  V30 COUNTS 38 40 0 0 0
M  V30 BEGIN ATOM
M  V30 1 C 1.380082 -5.208107 3.937431 0
M  V30 2 C 0.705546 -5.667600 2.654090 0
M  V30 3 C 1.480356 -5.056569 1.510461 0
M  V30 4 C 1.459144 -3.551627 1.604163 0
M  V30 5 O 0.960632 -2.678512 2.386512 0
M  V30 6 N 2.171842 -2.848499 0.566594 0
M  V30 7 C 2.069751 -1.419345 0.779118 0
M  V30 8 N 2.975394 -0.735310 1.526085 0
M  V30 9 N 2.654843 0.548089 1.562492 0
M  V30 10 C 1.531242 0.713801 0.835797 0
M  V30 11 C 0.728095 1.807128 0.509351 0
M  V30 12 C -0.386082 1.605373 -0.282975 0
M  V30 13 C -1.249046 2.742526 -0.641223 0
M  V30 14 C -1.384032 3.789670 0.259699 0
M  V30 15 C -2.193288 4.883158 -0.046545 0
M  V30 16 F -2.340465 5.924785 0.823883 0
M  V30 17 C -2.862372 4.906092 -1.269101 0
M  V30 18 C -2.721660 3.854219 -2.164185 0
M  V30 19 F -3.402949 3.953509 -3.326116 0
M  V30 20 C -1.917502 2.773129 -1.854146 0
M  V30 21 C -0.776316 0.369392 -0.790660 0
M  V30 22 C 0.021181 -0.734054 -0.470016 0
M  V30 23 C 1.128289 -0.505880 0.322903 0
M  V30 24 H 1.307780 -5.998645 4.711305 0
M  V30 25 H 0.808077 -4.339904 4.304359 0
M  V30 26 H 2.427108 -4.916665 3.775125 0
M  V30 27 H -0.329826 -5.297774 2.581337 0
M  V30 28 H 0.810235 -6.765854 2.560772 0
M  V30 29 H 1.078480 -5.321935 0.521686 0
M  V30 30 H 2.526952 -5.425632 1.539420 0
M  V30 31 H 2.681278 -3.343814 -0.217215 0
M  V30 32 H 3.172608 1.326598 2.065401 0
M  V30 33 H 0.984150 2.783102 0.875289 0
M  V30 34 H -0.880594 3.802665 1.212678 0
M  V30 35 H -3.496494 5.764096 -1.509044 0
M  V30 36 H -1.811362 1.956846 -2.555267 0
M  V30 37 H -1.638147 0.226913 -1.400374 0
M  V30 38 H -0.198208 -1.736499 -0.816902 0
M  V30 END ATOM
M  V30 BEGIN BOND
M  V30 1 1 1 2
M  V30 2 1 2 3
M  V30 3 1 3 4
M  V30 4 2 4 5
M  V30 5 1 4 6
M  V30 6 1 6 7
M  V30 7 2 7 8
M  V30 8 1 8 9
M  V30 9 1 9 10
M  V30 10 2 10 11
M  V30 11 1 11 12
M  V30 12 1 12 13
M  V30 13 2 13 14
M  V30 14 1 14 15
M  V30 15 1 15 16
M  V30 16 2 15 17
M  V30 17 1 17 18
M  V30 18 1 18 19
M  V30 19 2 18 20
M  V30 20 2 12 21
M  V30 21 1 21 22
M  V30 22 2 22 23
M  V30 23 1 23 7
M  V30 24 1 23 10
M  V30 25 1 20 13
M  V30 26 1 1 24
M  V30 27 1 1 25
M  V30 28 1 1 26
M  V30 29 1 2 27
M  V30 30 1 2 28
M  V30 31 1 3 29
M  V30 32 1 3 30
M  V30 33 1 6 31
M  V30 34 1 9 32
M  V30 35 1 11 33
M  V30 36 1 14 34
M  V30 37 1 17 35
M  V30 38 1 20 36
M  V30 39 1 21 37
M  V30 40 1 22 38
M  V30 END BOND
M  V30 END CTAB
M  END
>  <Dataset>  (297) 
ChEMBL_Kinases

>  <Ligand_Instance>  (297) 
nan

>  <PDB_ID>  (297) 
nan

>  <Standardized_SMILES>  (297) 
CCCC(=O)Nc1n[nH]c2cc(-c3cc(F)cc(F)c3)ccc12

>  <Name>  (297) 
nan

>  <Pocket>  (297) 
nan

>  <ATP_Site>  (297) 
nan

>  <Peripheral>  (297) 
nan

>  <Num_H_Atoms_ProtBoundConf>  (297) 
nan

>  <Num_Resolved_Atoms>  (297) 
nan

>  <Num_Not_Resolved_Atoms>  (297) 
nan

$$$$
CHEMBL1095039
     RDKit          3D

  0  0  0  0  0  0  0  0  0  0999 V3000
M  V30 BEGIN CTAB
M  V30 COUNTS 50 52 0 0 0
M  V30 BEGIN ATOM
M  V30 1 C 4.817343 4.964363 1.569130 0
M  V30 2 C 4.904426 4.763435 0.093393 0
M  V30 3 C 5.207917 3.351301 -0.308640 0
M  V30 4 C 4.190154 2.384018 0.154977 0
M  V30 5 O 3.279851 2.969535 0.796679 0
M  V30 6 N 4.372419 1.012119 -0.169884 0
M  V30 7 C 3.318061 0.160949 0.333938 0
M  V30 8 N 3.291600 -0.455162 1.536811 0
M  V30 9 N 2.190609 -1.157849 1.690474 0
M  V30 10 C 1.443563 -1.021384 0.567472 0
M  V30 11 C 0.216097 -1.508640 0.146243 0
M  V30 12 C -0.301903 -1.183670 -1.093320 0
M  V30 13 C -1.598778 -1.700318 -1.533201 0
M  V30 14 C -1.954343 -1.979127 -2.854029 0
M  V30 15 C -3.235036 -2.468218 -3.109226 0
M  V30 16 C -4.146334 -2.678232 -2.084588 0
M  V30 17 C -5.502982 -3.189322 -2.297752 0
M  V30 18 C -5.773888 -3.454636 -3.762511 0
M  V30 19 C -6.548454 -2.152568 -1.879165 0
M  V30 20 C -5.781318 -4.461981 -1.534206 0
M  V30 21 C -3.787263 -2.398620 -0.767238 0
M  V30 22 C -2.523979 -1.914835 -0.503965 0
M  V30 23 C 0.417457 -0.346822 -1.949810 0
M  V30 24 C 1.643593 0.157892 -1.564968 0
M  V30 25 C 2.139412 -0.187018 -0.310646 0
M  V30 26 H 5.213864 4.110175 2.156298 0
M  V30 27 H 3.756085 5.176484 1.872498 0
M  V30 28 H 5.397272 5.861939 1.884389 0
M  V30 29 H 5.744772 5.384955 -0.290156 0
M  V30 30 H 3.972138 5.145593 -0.371238 0
M  V30 31 H 6.178076 3.061380 0.103108 0
M  V30 32 H 5.265825 3.301043 -1.407174 0
M  V30 33 H 5.203647 0.730028 -0.716330 0
M  V30 34 H 1.895306 -1.736266 2.512090 0
M  V30 35 H -0.316776 -2.154702 0.832823 0
M  V30 36 H -1.210427 -1.796423 -3.591949 0
M  V30 37 H -3.511167 -2.682719 -4.118739 0
M  V30 38 H -5.110113 -4.281571 -4.071517 0
M  V30 39 H -6.818245 -3.818759 -3.843544 0
M  V30 40 H -5.585597 -2.551372 -4.378539 0
M  V30 41 H -6.660792 -1.354500 -2.642117 0
M  V30 42 H -6.279740 -1.779901 -0.883446 0
M  V30 43 H -7.523129 -2.658906 -1.806402 0
M  V30 44 H -5.086639 -5.268140 -1.767379 0
M  V30 45 H -6.805859 -4.800224 -1.795650 0
M  V30 46 H -5.791178 -4.202762 -0.453419 0
M  V30 47 H -4.483723 -2.554218 0.059292 0
M  V30 48 H -2.285635 -1.709989 0.537830 0
M  V30 49 H 0.026930 -0.083570 -2.920804 0
M  V30 50 H 2.221573 0.810960 -2.214408 0
M  V30 END ATOM
M  V30 BEGIN BOND
M  V30 1 1 1 2
M  V30 2 1 2 3
M  V30 3 1 3 4
M  V30 4 2 4 5
M  V30 5 1 4 6
M  V30 6 1 6 7
M  V30 7 2 7 8
M  V30 8 1 8 9
M  V30 9 1 9 10
M  V30 10 2 10 11
M  V30 11 1 11 12
M  V30 12 1 12 13
M  V30 13 2 13 14
M  V30 14 1 14 15
M  V30 15 2 15 16
M  V30 16 1 16 17
M  V30 17 1 17 18
M  V30 18 1 17 19
M  V30 19 1 17 20
M  V30 20 1 16 21
M  V30 21 2 21 22
M  V30 22 2 12 23
M  V30 23 1 23 24
M  V30 24 2 24 25
M  V30 25 1 25 7
M  V30 26 1 25 10
M  V30 27 1 22 13
M  V30 28 1 1 26
M  V30 29 1 1 27
M  V30 30 1 1 28
M  V30 31 1 2 29
M  V30 32 1 2 30
M  V30 33 1 3 31
M  V30 34 1 3 32
M  V30 35 1 6 33
M  V30 36 1 9 34
M  V30 37 1 11 35
M  V30 38 1 14 36
M  V30 39 1 15 37
M  V30 40 1 18 38
M  V30 41 1 18 39
M  V30 42 1 18 40
M  V30 43 1 19 41
M  V30 44 1 19 42
M  V30 45 1 19 43
M  V30 46 1 20 44
M  V30 47 1 20 45
M  V30 48 1 20 46
M  V30 49 1 21 47
M  V30 50 1 22 48
M  V30 51 1 23 49
M  V30 52 1 24 50
M  V30 END BOND
M  V30 END CTAB
M  END
>  <Dataset>  (298) 
ChEMBL_Kinases

>  <Ligand_Instance>  (298) 
nan

>  <PDB_ID>  (298) 
nan

>  <Standardized_SMILES>  (298) 
CCCC(=O)Nc1n[nH]c2cc(-c3ccc(C(C)(C)C)cc3)ccc12

>  <Name>  (298) 
nan

>  <Pocket>  (298) 
nan

>  <ATP_Site>  (298) 
nan

>  <Peripheral>  (298) 
nan

>  <Num_H_Atoms_ProtBoundConf>  (298) 
nan

>  <Num_Resolved_Atoms>  (298) 
nan

>  <Num_Not_Resolved_Atoms>  (298) 
nan

$$$$
CHEMBL1095040
     RDKit          3D

  0  0  0  0  0  0  0  0  0  0999 V3000
M  V30 BEGIN CTAB
M  V30 COUNTS 38 40 0 0 0
M  V30 BEGIN ATOM
M  V30 1 C 1.739220 -6.254626 1.035263 0
M  V30 2 C 2.077740 -4.830561 0.619310 0
M  V30 3 C 1.816401 -3.853200 1.740648 0
M  V30 4 C 2.146704 -2.461090 1.335721 0
M  V30 5 O 2.591887 -1.978244 0.253332 0
M  V30 6 N 1.945526 -1.446392 2.299644 0
M  V30 7 C 2.266770 -0.120189 1.895121 0
M  V30 8 N 3.450447 0.476724 2.024749 0
M  V30 9 N 3.419679 1.720991 1.545559 0
M  V30 10 C 2.164604 1.970092 1.074973 0
M  V30 11 C 1.550316 3.067286 0.476265 0
M  V30 12 C 0.223513 2.955688 0.120372 0
M  V30 13 Cl -0.486286 4.380163 -0.630577 0
M  V30 14 C -0.550054 1.829476 0.313681 0
M  V30 15 C -1.956221 1.759637 -0.081852 0
M  V30 16 C -2.780881 1.195635 0.879875 0
M  V30 17 C -4.135525 1.110795 0.538819 0
M  V30 18 C -4.672416 1.545267 -0.664695 0
M  V30 19 C -3.791336 2.104419 -1.593084 0
M  V30 20 C -2.427574 2.211099 -1.298272 0
M  V30 21 C 0.109312 0.775355 0.909648 0
M  V30 22 C 1.430856 0.800295 1.296692 0
M  V30 23 H 1.078850 -6.759809 0.285003 0
M  V30 24 H 2.660162 -6.897378 1.079994 0
M  V30 25 H 1.196587 -6.281217 1.997508 0
M  V30 26 H 3.168339 -4.807152 0.368963 0
M  V30 27 H 1.509590 -4.609323 -0.285580 0
M  V30 28 H 2.479023 -4.108522 2.588338 0
M  V30 29 H 0.749825 -3.957536 2.046292 0
M  V30 30 H 1.576711 -1.665410 3.266077 0
M  V30 31 H 4.139637 2.468639 1.479140 0
M  V30 32 H 2.126494 3.972005 0.307397 0
M  V30 33 H -2.445051 0.833555 1.838801 0
M  V30 34 H -4.807520 0.673929 1.270627 0
M  V30 35 H -5.731058 1.428138 -0.815240 0
M  V30 36 H -4.198512 2.447496 -2.536795 0
M  V30 37 H -1.744685 2.637946 -2.002931 0
M  V30 38 H -0.416355 -0.155113 1.103394 0
M  V30 END ATOM
M  V30 BEGIN BOND
M  V30 1 1 1 2
M  V30 2 1 2 3
M  V30 3 1 3 4
M  V30 4 2 4 5
M  V30 5 1 4 6
M  V30 6 1 6 7
M  V30 7 2 7 8
M  V30 8 1 8 9
M  V30 9 1 9 10
M  V30 10 2 10 11
M  V30 11 1 11 12
M  V30 12 1 12 13
M  V30 13 2 12 14
M  V30 14 1 14 15
M  V30 15 2 15 16
M  V30 16 1 16 17
M  V30 17 2 17 18
M  V30 18 1 18 19
M  V30 19 2 19 20
M  V30 20 1 14 21
M  V30 21 2 21 22
M  V30 22 1 22 7
M  V30 23 1 22 10
M  V30 24 1 20 15
M  V30 25 1 1 23
M  V30 26 1 1 24
M  V30 27 1 1 25
M  V30 28 1 2 26
M  V30 29 1 2 27
M  V30 30 1 3 28
M  V30 31 1 3 29
M  V30 32 1 6 30
M  V30 33 1 9 31
M  V30 34 1 11 32
M  V30 35 1 16 33
M  V30 36 1 17 34
M  V30 37 1 18 35
M  V30 38 1 19 36
M  V30 39 1 20 37
M  V30 40 1 21 38
M  V30 END BOND
M  V30 END CTAB
M  END
>  <Dataset>  (299) 
ChEMBL_Kinases

>  <Ligand_Instance>  (299) 
nan

>  <PDB_ID>  (299) 
nan

>  <Standardized_SMILES>  (299) 
CCCC(=O)Nc1n[nH]c2cc(Cl)c(-c3ccccc3)cc12

>  <Name>  (299) 
nan

>  <Pocket>  (299) 
nan

>  <ATP_Site>  (299) 
nan

>  <Peripheral>  (299) 
nan

>  <Num_H_Atoms_ProtBoundConf>  (299) 
nan

>  <Num_Resolved_Atoms>  (299) 
nan

>  <Num_Not_Resolved_Atoms>  (299) 
nan

$$$$
CHEMBL1095041
     RDKit          3D

  0  0  0  0  0  0  0  0  0  0999 V3000
M  V30 BEGIN CTAB
M  V30 COUNTS 40 42 0 0 0
M  V30 BEGIN ATOM
M  V30 1 C 2.870177 -6.634767 1.678076 0
M  V30 2 C 3.081915 -5.516347 0.680447 0
M  V30 3 C 2.177608 -4.349805 0.975356 0
M  V30 4 C 2.377792 -3.250035 0.003943 0
M  V30 5 O 3.184161 -3.237432 -0.961530 0
M  V30 6 N 1.576285 -2.088976 0.180530 0
M  V30 7 C 1.724677 -0.998994 -0.722857 0
M  V30 8 N 2.566249 -0.926193 -1.770292 0
M  V30 9 N 2.447977 0.230285 -2.401500 0
M  V30 10 C 1.509898 0.940751 -1.762105 0
M  V30 11 C 0.943850 2.189163 -1.923170 0
M  V30 12 C -0.036571 2.668473 -1.079284 0
M  V30 13 Cl -0.750190 4.251436 -1.288398 0
M  V30 14 C -0.494725 1.895047 -0.019484 0
M  V30 15 C -1.527204 2.305371 0.932251 0
M  V30 16 C -1.229987 2.039506 2.272860 0
M  V30 17 C -2.170006 2.403526 3.244036 0
M  V30 18 C -3.336506 3.005915 2.802652 0
M  V30 19 N -4.301737 3.381719 3.777868 0
M  V30 20 C -3.644064 3.274735 1.484203 0
M  V30 21 C -2.707634 2.910438 0.534948 0
M  V30 22 C 0.055339 0.624841 0.175093 0
M  V30 23 C 1.032687 0.195968 -0.698795 0
M  V30 24 H 3.172627 -7.577750 1.193737 0
M  V30 25 H 3.491786 -6.430819 2.575373 0
M  V30 26 H 1.802830 -6.664952 2.009846 0
M  V30 27 H 2.904002 -5.904877 -0.339312 0
M  V30 28 H 4.146198 -5.210054 0.753507 0
M  V30 29 H 2.363192 -3.985311 1.988618 0
M  V30 30 H 1.121038 -4.741720 0.942353 0
M  V30 31 H 0.881207 -2.012411 0.954395 0
M  V30 32 H 2.934907 0.618269 -3.238290 0
M  V30 33 H 1.291947 2.807096 -2.748604 0
M  V30 34 H -0.306478 1.566538 2.579235 0
M  V30 35 H -1.977594 2.215340 4.287476 0
M  V30 36 H -4.682762 2.724859 4.514843 0
M  V30 37 H -4.582451 2.625549 4.439835 0
M  V30 38 H -4.560070 3.741013 1.211395 0
M  V30 39 H -2.890390 3.094511 -0.514440 0
M  V30 40 H -0.256500 -0.028352 0.981014 0
M  V30 END ATOM
M  V30 BEGIN BOND
M  V30 1 1 1 2
M  V30 2 1 2 3
M  V30 3 1 3 4
M  V30 4 2 4 5
M  V30 5 1 4 6
M  V30 6 1 6 7
M  V30 7 2 7 8
M  V30 8 1 8 9
M  V30 9 1 9 10
M  V30 10 2 10 11
M  V30 11 1 11 12
M  V30 12 1 12 13
M  V30 13 2 12 14
M  V30 14 1 14 15
M  V30 15 2 15 16
M  V30 16 1 16 17
M  V30 17 2 17 18
M  V30 18 1 18 19
M  V30 19 1 18 20
M  V30 20 2 20 21
M  V30 21 1 14 22
M  V30 22 2 22 23
M  V30 23 1 23 7
M  V30 24 1 23 10
M  V30 25 1 21 15
M  V30 26 1 1 24
M  V30 27 1 1 25
M  V30 28 1 1 26
M  V30 29 1 2 27
M  V30 30 1 2 28
M  V30 31 1 3 29
M  V30 32 1 3 30
M  V30 33 1 6 31
M  V30 34 1 9 32
M  V30 35 1 11 33
M  V30 36 1 16 34
M  V30 37 1 17 35
M  V30 38 1 19 36
M  V30 39 1 19 37
M  V30 40 1 20 38
M  V30 41 1 21 39
M  V30 42 1 22 40
M  V30 END BOND
M  V30 END CTAB
M  END
>  <Dataset>  (300) 
ChEMBL_Kinases

>  <Ligand_Instance>  (300) 
nan

>  <PDB_ID>  (300) 
nan

>  <Standardized_SMILES>  (300) 
CCCC(=O)Nc1n[nH]c2cc(Cl)c(-c3ccc(N)cc3)cc12

>  <Name>  (300) 
nan

>  <Pocket>  (300) 
nan

>  <ATP_Site>  (300) 
nan

>  <Peripheral>  (300) 
nan

>  <Num_H_Atoms_ProtBoundConf>  (300) 
nan

>  <Num_Resolved_Atoms>  (300) 
nan

>  <Num_Not_Resolved_Atoms>  (300) 
nan

$$$$
CHEMBL1095278
     RDKit          3D

  0  0  0  0  0  0  0  0  0  0999 V3000
M  V30 BEGIN CTAB
M  V30 COUNTS 50 53 0 0 0
M  V30 BEGIN ATOM
M  V30 1 C 3.019841 -7.172830 0.547062 0
M  V30 2 O 1.930778 -6.319547 0.705290 0
M  V30 3 C 1.985063 -4.941900 0.549828 0
M  V30 4 C 3.166846 -4.310962 0.216387 0
M  V30 5 C 3.234430 -2.940104 0.058620 0
M  V30 6 N 4.423616 -2.378427 -0.269296 0
M  V30 7 C 4.524142 -1.025529 -0.432640 0
M  V30 8 C 3.370351 -0.306349 -0.245821 0
M  V30 9 C 3.414379 1.062514 -0.398019 0
M  V30 10 N 4.625553 1.724079 -0.741306 0
M  V30 11 N 2.306713 1.842882 -0.228015 0
M  V30 12 C 1.111378 1.316544 0.097617 0
M  V30 13 C -0.000304 2.246478 0.252938 0
M  V30 14 C 0.246636 3.589124 0.057411 0
M  V30 15 N -0.759265 4.503415 0.190296 0
M  V30 16 C -2.007254 4.132675 0.511631 0
M  V30 17 C -2.307951 2.802728 0.718033 0
M  V30 18 O -3.571590 2.351715 1.051281 0
M  V30 19 C -4.684672 3.177609 1.217624 0
M  V30 20 C -5.854150 2.262421 1.577924 0
M  V30 21 N -5.447518 1.600681 2.812154 0
M  V30 22 C -1.288448 1.882871 0.582635 0
M  V30 23 C 1.033079 -0.054579 0.257819 0
M  V30 24 C 2.148021 -0.848655 0.087591 0
M  V30 25 C 2.077254 -2.212766 0.245358 0
M  V30 26 C 0.887080 -2.815994 0.577833 0
M  V30 27 C 0.832334 -4.205861 0.734654 0
M  V30 28 O -0.340845 -4.891824 1.071867 0
M  V30 29 C -1.546589 -4.154567 1.268650 0
M  V30 30 H 3.977220 -6.750782 0.903508 0
M  V30 31 H 2.838559 -8.133289 1.087274 0
M  V30 32 H 3.157761 -7.414758 -0.528169 0
M  V30 33 H 4.083286 -4.890926 0.068896 0
M  V30 34 H 5.435713 -0.515064 -0.692318 0
M  V30 35 H 5.447918 1.492856 -0.159793 0
M  V30 36 H 4.936232 2.416151 -1.454742 0
M  V30 37 H 1.215908 4.009131 -0.205891 0
M  V30 38 H -2.797034 4.865787 0.614382 0
M  V30 39 H -4.557327 3.978891 1.951032 0
M  V30 40 H -4.897510 3.646239 0.229670 0
M  V30 41 H -5.990009 1.564667 0.742059 0
M  V30 42 H -6.782925 2.840932 1.793369 0
M  V30 43 H -4.486817 1.265706 2.671393 0
M  V30 44 H -6.122921 0.876194 3.087533 0
M  V30 45 H -1.509574 0.855701 0.739541 0
M  V30 46 H 0.055868 -0.417819 0.517067 0
M  V30 47 H -0.034228 -2.328049 0.735999 0
M  V30 48 H -1.913364 -3.729199 0.310917 0
M  V30 49 H -1.402563 -3.331797 1.993748 0
M  V30 50 H -2.281577 -4.857851 1.688388 0
M  V30 END ATOM
M  V30 BEGIN BOND
M  V30 1 1 1 2
M  V30 2 1 2 3
M  V30 3 2 3 4
M  V30 4 1 4 5
M  V30 5 2 5 6
M  V30 6 1 6 7
M  V30 7 2 7 8
M  V30 8 1 8 9
M  V30 9 1 9 10
M  V30 10 2 9 11
M  V30 11 1 11 12
M  V30 12 1 12 13
M  V30 13 2 13 14
M  V30 14 1 14 15
M  V30 15 2 15 16
M  V30 16 1 16 17
M  V30 17 1 17 18
M  V30 18 1 18 19
M  V30 19 1 19 20
M  V30 20 1 20 21
M  V30 21 2 17 22
M  V30 22 2 12 23
M  V30 23 1 23 24
M  V30 24 2 24 25
M  V30 25 1 25 26
M  V30 26 2 26 27
M  V30 27 1 27 28
M  V30 28 1 28 29
M  V30 29 1 27 3
M  V30 30 1 25 5
M  V30 31 1 24 8
M  V30 32 1 22 13
M  V30 33 1 1 30
M  V30 34 1 1 31
M  V30 35 1 1 32
M  V30 36 1 4 33
M  V30 37 1 7 34
M  V30 38 1 10 35
M  V30 39 1 10 36
M  V30 40 1 14 37
M  V30 41 1 16 38
M  V30 42 1 19 39
M  V30 43 1 19 40
M  V30 44 1 20 41
M  V30 45 1 20 42
M  V30 46 1 21 43
M  V30 47 1 21 44
M  V30 48 1 22 45
M  V30 49 1 23 46
M  V30 50 1 26 47
M  V30 51 1 29 48
M  V30 52 1 29 49
M  V30 53 1 29 50
M  V30 END BOND
M  V30 END CTAB
M  END
>  <Dataset>  (301) 
ChEMBL_Kinases

>  <Ligand_Instance>  (301) 
nan

>  <PDB_ID>  (301) 
nan

>  <Standardized_SMILES>  (301) 
COc1cc2ncc3c(N)nc(-c4cncc(OCCN)c4)cc3c2cc1OC

>  <Name>  (301) 
nan

>  <Pocket>  (301) 
nan

>  <ATP_Site>  (301) 
nan

>  <Peripheral>  (301) 
nan

>  <Num_H_Atoms_ProtBoundConf>  (301) 
nan

>  <Num_Resolved_Atoms>  (301) 
nan

>  <Num_Not_Resolved_Atoms>  (301) 
nan

$$$$
CHEMBL1095279
     RDKit          3D

  0  0  0  0  0  0  0  0  0  0999 V3000
M  V30 BEGIN CTAB
M  V30 COUNTS 53 56 0 0 0
M  V30 BEGIN ATOM
M  V30 1 C -0.823219 -6.663773 -3.858091 0
M  V30 2 O -1.092508 -5.816930 -2.768675 0
M  V30 3 C -0.474567 -4.616162 -2.499645 0
M  V30 4 C 0.520472 -4.048035 -3.267510 0
M  V30 5 C 1.097893 -2.857767 -2.956322 0
M  V30 6 N 2.064227 -2.354055 -3.744219 0
M  V30 7 C 2.676398 -1.182470 -3.493875 0
M  V30 8 C 2.216361 -0.537055 -2.340301 0
M  V30 9 C 2.812891 0.670474 -2.037832 0
M  V30 10 N 3.854046 1.279347 -2.827836 0
M  V30 11 N 2.427907 1.370713 -0.931022 0
M  V30 12 C 1.466111 0.909169 -0.111620 0
M  V30 13 C 1.141847 1.744822 1.038342 0
M  V30 14 C 1.826965 2.930307 1.209118 0
M  V30 15 N 1.573400 3.759639 2.264894 0
M  V30 16 C 0.647811 3.478989 3.199791 0
M  V30 17 C -0.054633 2.300021 3.056811 0
M  V30 18 O -1.019263 1.922454 3.956252 0
M  V30 19 C -1.405807 2.646659 5.089600 0
M  V30 20 C -2.513478 1.906949 5.852425 0 CFG=2
M  V30 21 C -1.913111 0.529752 6.133938 0
M  V30 22 N -3.668925 1.722523 5.027893 0
M  V30 23 C 0.192890 1.454440 1.994419 0
M  V30 24 C 0.855648 -0.294051 -0.392620 0
M  V30 25 C 1.231411 -1.003781 -1.496037 0
M  V30 26 C 0.655888 -2.209648 -1.823401 0
M  V30 27 C -0.332969 -2.721236 -1.013679 0
M  V30 28 C -0.899592 -3.951498 -1.373800 0
M  V30 29 O -1.913945 -4.497434 -0.561662 0
M  V30 30 C -2.376285 -3.856964 0.587981 0
M  V30 31 H -1.822952 -6.895323 -4.330899 0
M  V30 32 H -0.465656 -7.649556 -3.498693 0
M  V30 33 H -0.136388 -6.249322 -4.612010 0
M  V30 34 H 0.864122 -4.556058 -4.150901 0
M  V30 35 H 3.455630 -0.729127 -4.088023 0
M  V30 36 H 3.871708 2.338996 -2.903771 0
M  V30 37 H 4.620929 0.823128 -3.356147 0
M  V30 38 H 2.605422 3.292005 0.533342 0
M  V30 39 H 0.466574 4.153161 4.026028 0
M  V30 40 H -1.759122 3.667652 4.894653 0
M  V30 41 H -0.559594 2.711810 5.806336 0
M  V30 42 H -2.715641 2.403052 6.807779 0
M  V30 43 H -2.665762 -0.168150 6.526785 0
M  V30 44 H -1.629827 0.121308 5.126188 0
M  V30 45 H -1.047026 0.705803 6.792475 0
M  V30 46 H -3.387539 1.127306 4.216907 0
M  V30 47 H -4.345679 1.144833 5.575203 0
M  V30 48 H -0.358939 0.544617 1.896327 0
M  V30 49 H 0.113086 -0.598383 0.286927 0
M  V30 50 H -0.727214 -2.275074 -0.119203 0
M  V30 51 H -1.594926 -3.762272 1.381170 0
M  V30 52 H -3.277062 -4.382080 0.946878 0
M  V30 53 H -2.691943 -2.797706 0.396931 0
M  V30 END ATOM
M  V30 BEGIN BOND
M  V30 1 1 1 2
M  V30 2 1 2 3
M  V30 3 2 3 4
M  V30 4 1 4 5
M  V30 5 2 5 6
M  V30 6 1 6 7
M  V30 7 2 7 8
M  V30 8 1 8 9
M  V30 9 1 9 10
M  V30 10 2 9 11
M  V30 11 1 11 12
M  V30 12 1 12 13
M  V30 13 2 13 14
M  V30 14 1 14 15
M  V30 15 2 15 16
M  V30 16 1 16 17
M  V30 17 1 17 18
M  V30 18 1 18 19
M  V30 19 1 19 20
M  V30 20 1 20 21
M  V30 21 1 20 22
M  V30 22 2 17 23
M  V30 23 2 12 24
M  V30 24 1 24 25
M  V30 25 2 25 26
M  V30 26 1 26 27
M  V30 27 2 27 28
M  V30 28 1 28 29
M  V30 29 1 29 30
M  V30 30 1 28 3
M  V30 31 1 26 5
M  V30 32 1 25 8
M  V30 33 1 23 13
M  V30 34 1 1 31
M  V30 35 1 1 32
M  V30 36 1 1 33
M  V30 37 1 4 34
M  V30 38 1 7 35
M  V30 39 1 10 36
M  V30 40 1 10 37
M  V30 41 1 14 38
M  V30 42 1 16 39
M  V30 43 1 19 40
M  V30 44 1 19 41
M  V30 45 1 20 42 CFG=1
M  V30 46 1 21 43
M  V30 47 1 21 44
M  V30 48 1 21 45
M  V30 49 1 22 46
M  V30 50 1 22 47
M  V30 51 1 23 48
M  V30 52 1 24 49
M  V30 53 1 27 50
M  V30 54 1 30 51
M  V30 55 1 30 52
M  V30 56 1 30 53
M  V30 END BOND
M  V30 END CTAB
M  END
>  <Dataset>  (302) 
ChEMBL_Kinases

>  <Ligand_Instance>  (302) 
nan

>  <PDB_ID>  (302) 
nan

>  <Standardized_SMILES>  (302) 
COc1cc2ncc3c(N)nc(-c4cncc(OC[C@H](C)N)c4)cc3c2cc1OC

>  <Name>  (302) 
nan

>  <Pocket>  (302) 
nan

>  <ATP_Site>  (302) 
nan

>  <Peripheral>  (302) 
nan

>  <Num_H_Atoms_ProtBoundConf>  (302) 
nan

>  <Num_Resolved_Atoms>  (302) 
nan

>  <Num_Not_Resolved_Atoms>  (302) 
nan

$$$$
CHEMBL1095285
     RDKit          3D

  0  0  0  0  0  0  0  0  0  0999 V3000
M  V30 BEGIN CTAB
M  V30 COUNTS 66 70 0 0 0
M  V30 BEGIN ATOM
M  V30 1 C 7.394396 0.864983 5.753548 0
M  V30 2 O 6.098977 1.425255 5.795089 0
M  V30 3 C 5.192306 1.137971 4.783239 0
M  V30 4 C 5.582522 0.294899 3.736303 0
M  V30 5 C 4.744718 -0.040660 2.693569 0
M  V30 6 N 5.184143 -0.858996 1.713585 0
M  V30 7 C 4.375898 -1.204170 0.672482 0
M  V30 8 C 3.116580 -0.653270 0.723650 0
M  V30 9 C 2.267489 -0.977959 -0.312582 0
M  V30 10 N 2.635850 -1.837322 -1.400899 0
M  V30 11 N 1.016462 -0.494801 -0.360824 0
M  V30 12 C 0.508627 0.333155 0.591141 0
M  V30 13 C -0.864903 0.804396 0.445904 0
M  V30 14 C -1.514646 1.642955 1.325646 0
M  V30 15 N -2.784483 2.048698 1.144252 0
M  V30 16 C -3.498939 1.649049 0.074143 0
M  V30 17 C -2.919523 0.807025 -0.855668 0
M  V30 18 O -3.616386 0.363978 -1.981801 0
M  V30 19 C -2.983420 -0.485217 -2.890345 0
M  V30 20 C -3.837087 -0.892317 -4.061604 0 CFG=2
M  V30 21 N -4.227176 0.305323 -4.776436 0
M  V30 22 C -5.041723 -1.698209 -3.628399 0
M  V30 23 C -4.640214 -2.941275 -2.926370 0
M  V30 24 C -4.450308 -4.072044 -3.721448 0
M  V30 25 C -4.077092 -5.295840 -3.206000 0
M  V30 26 C -3.874095 -5.444747 -1.849382 0
M  V30 27 C -4.066358 -4.307915 -1.060008 0
M  V30 28 C -3.845576 -4.472908 0.410066 0
M  V30 29 F -3.660378 -3.221250 0.964966 0
M  V30 30 F -2.689878 -5.200639 0.636036 0
M  V30 31 F -4.949739 -5.044398 1.017876 0
M  V30 32 C -4.437368 -3.087774 -1.565583 0
M  V30 33 C -1.616736 0.410308 -0.639339 0
M  V30 34 C 1.331741 0.680912 1.646391 0
M  V30 35 C 2.614010 0.181353 1.689058 0
M  V30 36 C 3.473996 0.497508 2.718015 0
M  V30 37 C 3.049227 1.331122 3.728742 0
M  V30 38 C 3.908711 1.651692 4.762078 0
M  V30 39 O 3.615789 2.475538 5.840541 0
M  V30 40 C 2.406360 3.125836 6.074897 0
M  V30 41 H 7.273045 -0.234103 5.622764 0
M  V30 42 H 7.936896 1.001765 6.711768 0
M  V30 43 H 7.980108 1.278509 4.916859 0
M  V30 44 H 6.576763 -0.130590 3.710137 0
M  V30 45 H 4.678022 -1.854719 -0.136661 0
M  V30 46 H 3.533616 -1.555551 -1.867877 0
M  V30 47 H 2.103564 -2.672673 -1.738172 0
M  V30 48 H -0.983189 1.988151 2.195389 0
M  V30 49 H -4.537429 1.969341 -0.092197 0
M  V30 50 H -2.110486 0.073497 -3.308775 0
M  V30 51 H -2.543160 -1.389141 -2.407589 0
M  V30 52 H -3.208055 -1.480948 -4.746658 0
M  V30 53 H -4.534377 1.090118 -4.159216 0
M  V30 54 H -3.449359 0.676109 -5.365871 0
M  V30 55 H -5.697189 -1.076959 -2.984809 0
M  V30 56 H -5.647884 -1.964104 -4.513724 0
M  V30 57 H -4.590544 -4.041473 -4.809622 0
M  V30 58 H -3.931230 -6.172235 -3.834936 0
M  V30 59 H -3.581479 -6.399495 -1.436167 0
M  V30 60 H -4.585645 -2.217435 -0.968104 0
M  V30 61 H -1.192565 -0.246803 -1.382767 0
M  V30 62 H 0.916965 1.318079 2.363946 0
M  V30 63 H 2.102142 1.778460 3.818365 0
M  V30 64 H 1.721596 3.200915 5.221339 0
M  V30 65 H 2.542076 4.142064 6.533550 0
M  V30 66 H 1.862807 2.544677 6.871737 0
M  V30 END ATOM
M  V30 BEGIN BOND
M  V30 1 1 1 2
M  V30 2 1 2 3
M  V30 3 2 3 4
M  V30 4 1 4 5
M  V30 5 2 5 6
M  V30 6 1 6 7
M  V30 7 2 7 8
M  V30 8 1 8 9
M  V30 9 1 9 10
M  V30 10 2 9 11
M  V30 11 1 11 12
M  V30 12 1 12 13
M  V30 13 2 13 14
M  V30 14 1 14 15
M  V30 15 2 15 16
M  V30 16 1 16 17
M  V30 17 1 17 18
M  V30 18 1 18 19
M  V30 19 1 19 20
M  V30 20 1 20 21
M  V30 21 1 20 22
M  V30 22 1 22 23
M  V30 23 2 23 24
M  V30 24 1 24 25
M  V30 25 2 25 26
M  V30 26 1 26 27
M  V30 27 1 27 28
M  V30 28 1 28 29
M  V30 29 1 28 30
M  V30 30 1 28 31
M  V30 31 2 27 32
M  V30 32 2 17 33
M  V30 33 2 12 34
M  V30 34 1 34 35
M  V30 35 2 35 36
M  V30 36 1 36 37
M  V30 37 2 37 38
M  V30 38 1 38 39
M  V30 39 1 39 40
M  V30 40 1 38 3
M  V30 41 1 36 5
M  V30 42 1 35 8
M  V30 43 1 33 13
M  V30 44 1 32 23
M  V30 45 1 1 41
M  V30 46 1 1 42
M  V30 47 1 1 43
M  V30 48 1 4 44
M  V30 49 1 7 45
M  V30 50 1 10 46
M  V30 51 1 10 47
M  V30 52 1 14 48
M  V30 53 1 16 49
M  V30 54 1 19 50
M  V30 55 1 19 51
M  V30 56 1 20 52 CFG=3
M  V30 57 1 21 53
M  V30 58 1 21 54
M  V30 59 1 22 55
M  V30 60 1 22 56
M  V30 61 1 24 57
M  V30 62 1 25 58
M  V30 63 1 26 59
M  V30 64 1 32 60
M  V30 65 1 33 61
M  V30 66 1 34 62
M  V30 67 1 37 63
M  V30 68 1 40 64
M  V30 69 1 40 65
M  V30 70 1 40 66
M  V30 END BOND
M  V30 END CTAB
M  END
>  <Dataset>  (303) 
ChEMBL_Kinases

>  <Ligand_Instance>  (303) 
nan

>  <PDB_ID>  (303) 
nan

>  <Standardized_SMILES>  (303) 
COc1cc2ncc3c(N)nc(-c4cncc(OC[C@H](N)Cc5cccc(C(F)(F)F)c5)c4)cc3c2cc1OC

>  <Name>  (303) 
nan

>  <Pocket>  (303) 
nan

>  <ATP_Site>  (303) 
nan

>  <Peripheral>  (303) 
nan

>  <Num_H_Atoms_ProtBoundConf>  (303) 
nan

>  <Num_Resolved_Atoms>  (303) 
nan

>  <Num_Not_Resolved_Atoms>  (303) 
nan

$$$$
CHEMBL1095292
     RDKit          3D

  0  0  0  0  0  0  0  0  0  0999 V3000
M  V30 BEGIN CTAB
M  V30 COUNTS 30 30 0 0 0
M  V30 BEGIN ATOM
M  V30 1 C 0.790457 0.425494 2.607222 0
M  V30 2 C 0.212357 -0.952976 2.600978 0
M  V30 3 N -0.821416 -1.121889 1.590129 0 CHG=1 VAL=4
M  V30 4 C -1.551498 0.077826 1.355093 0
M  V30 5 C -1.804753 -2.038282 2.228587 0
M  V30 6 C -0.359076 -1.795314 0.412824 0
M  V30 7 C 0.585300 -1.093782 -0.435844 0
M  V30 8 C 1.923661 -1.366607 -0.154882 0
M  V30 9 C 2.962211 -0.766221 -0.828284 0
M  V30 10 C 2.742785 0.162923 -1.845496 0
M  V30 11 C 1.426006 0.446365 -2.139687 0
M  V30 12 C 0.416450 -0.176752 -1.442643 0
M  V30 13 Br -1.366250 0.219003 -1.969456 0
M  V30 14 H 1.739873 0.398624 3.181731 0
M  V30 15 H 0.080270 1.146832 3.108800 0
M  V30 16 H 1.041408 0.759466 1.597423 0
M  V30 17 H -0.201071 -1.132125 3.637635 0
M  V30 18 H 1.032270 -1.686760 2.510087 0
M  V30 19 H -1.957302 0.414439 2.368633 0
M  V30 20 H -2.479404 -0.167537 0.802047 0
M  V30 21 H -0.966097 0.902207 0.940442 0
M  V30 22 H -2.649936 -2.249101 1.548785 0
M  V30 23 H -1.285278 -2.927277 2.614777 0
M  V30 24 H -2.164956 -1.464071 3.129677 0
M  V30 25 H -1.287779 -2.067255 -0.164434 0
M  V30 26 H 0.053801 -2.799773 0.731508 0
M  V30 27 H 2.353517 -2.050765 0.578574 0
M  V30 28 H 4.036325 -0.925209 -0.670266 0
M  V30 29 H 3.503142 0.657237 -2.396451 0
M  V30 30 H 1.197857 1.154137 -2.914605 0
M  V30 END ATOM
M  V30 BEGIN BOND
M  V30 1 1 1 2
M  V30 2 1 2 3
M  V30 3 1 3 4
M  V30 4 1 3 5
M  V30 5 1 3 6
M  V30 6 1 6 7
M  V30 7 2 7 8
M  V30 8 1 8 9
M  V30 9 2 9 10
M  V30 10 1 10 11
M  V30 11 2 11 12
M  V30 12 1 12 13
M  V30 13 1 12 7
M  V30 14 1 1 14
M  V30 15 1 1 15
M  V30 16 1 1 16
M  V30 17 1 2 17
M  V30 18 1 2 18
M  V30 19 1 4 19
M  V30 20 1 4 20
M  V30 21 1 4 21
M  V30 22 1 5 22
M  V30 23 1 5 23
M  V30 24 1 5 24
M  V30 25 1 6 25
M  V30 26 1 6 26
M  V30 27 1 8 27
M  V30 28 1 9 28
M  V30 29 1 10 29
M  V30 30 1 11 30
M  V30 END BOND
M  V30 END CTAB
M  END
>  <Dataset>  (304) 
ChEMBL_Kinases

>  <Ligand_Instance>  (304) 
nan

>  <PDB_ID>  (304) 
nan

>  <Standardized_SMILES>  (304) 
CC[N+](C)(C)Cc1ccccc1Br

>  <Name>  (304) 
BRETYLIUM TOSYLATE

>  <Pocket>  (304) 
nan

>  <ATP_Site>  (304) 
nan

>  <Peripheral>  (304) 
nan

>  <Num_H_Atoms_ProtBoundConf>  (304) 
nan

>  <Num_Resolved_Atoms>  (304) 
nan

>  <Num_Not_Resolved_Atoms>  (304) 
nan

$$$$
CHEMBL1094637
     RDKit          3D

  0  0  0  0  0  0  0  0  0  0999 V3000
M  V30 BEGIN CTAB
M  V30 COUNTS 62 65 0 0 0
M  V30 BEGIN ATOM
M  V30 1 C 5.454653 -0.758772 8.016181 0
M  V30 2 O 4.101157 -0.476550 7.711359 0
M  V30 3 C 3.642743 -0.457361 6.398900 0
M  V30 4 C 4.517246 -0.717759 5.361126 0
M  V30 5 C 4.015682 -0.687412 4.073039 0
M  V30 6 N 4.882803 -0.944054 3.069946 0
M  V30 7 C 4.490027 -0.938374 1.776197 0
M  V30 8 C 3.154517 -0.656580 1.527132 0
M  V30 9 C 2.770277 -0.653427 0.223940 0
M  V30 10 N 3.645151 -0.917848 -0.874178 0
M  V30 11 N 1.480589 -0.382801 -0.040265 0
M  V30 12 C 0.546138 -0.115852 0.888314 0
M  V30 13 C -0.801459 0.154001 0.408362 0
M  V30 14 C -1.787474 0.431981 1.329152 0
M  V30 15 N -3.043669 0.686062 0.917474 0
M  V30 16 C -3.360486 0.674152 -0.389506 0
M  V30 17 C -2.465130 0.410033 -1.399205 0
M  V30 18 O -2.494235 0.329969 -2.718910 0
M  V30 19 C -3.324023 0.429063 -3.777176 0
M  V30 20 C -4.452407 -0.562797 -3.882045 0 CFG=2
M  V30 21 N -5.336655 -0.489986 -2.778733 0
M  V30 22 C -3.912358 -1.975239 -4.033197 0
M  V30 23 C -3.061994 -2.147451 -5.252691 0
M  V30 24 C -2.587294 -3.586758 -5.291070 0
M  V30 25 C -3.798665 -1.857979 -6.538799 0
M  V30 26 C -1.161449 0.149288 -0.931580 0
M  V30 27 C 0.902744 -0.111324 2.215760 0
M  V30 28 C 2.222245 -0.386829 2.507947 0
M  V30 29 C 2.692670 -0.410115 3.796908 0
M  V30 30 C 1.846407 -0.154923 4.851848 0
M  V30 31 C 2.310054 -0.174744 6.172831 0
M  V30 32 O 1.490257 0.076505 7.259118 0
M  V30 33 C 0.126552 0.373673 7.155069 0
M  V30 34 H 5.592081 -0.870856 9.088871 0
M  V30 35 H 6.062944 0.121231 7.671971 0
M  V30 36 H 5.849507 -1.621167 7.428226 0
M  V30 37 H 5.566774 -0.941395 5.522175 0
M  V30 38 H 5.180724 -1.144423 0.950951 0
M  V30 39 H 3.594929 -1.622453 -1.637181 0
M  V30 40 H 4.454838 -0.265433 -0.860921 0
M  V30 41 H -1.698022 0.479545 2.398539 0
M  V30 42 H -4.359358 0.892074 -0.715819 0
M  V30 43 H -3.832106 1.448117 -3.871577 0
M  V30 44 H -2.738187 0.404518 -4.760513 0
M  V30 45 H -4.990021 -0.295297 -4.833704 0
M  V30 46 H -5.454649 -1.358684 -2.223339 0
M  V30 47 H -6.232432 -0.008322 -2.955288 0
M  V30 48 H -4.766057 -2.663197 -4.018233 0
M  V30 49 H -3.278565 -2.194558 -3.156448 0
M  V30 50 H -2.171061 -1.504909 -5.194379 0
M  V30 51 H -3.291263 -4.259659 -4.760760 0
M  V30 52 H -2.433028 -3.886141 -6.343270 0
M  V30 53 H -1.608698 -3.667075 -4.762489 0
M  V30 54 H -3.081369 -2.077104 -7.371015 0
M  V30 55 H -4.130688 -0.810994 -6.610206 0
M  V30 56 H -4.656182 -2.521786 -6.698201 0
M  V30 57 H -0.304616 -0.081566 -1.562820 0
M  V30 58 H 0.167572 0.100052 2.967889 0
M  V30 59 H 0.807496 0.071360 4.770396 0
M  V30 60 H -0.399889 -0.365858 6.534784 0
M  V30 61 H -0.304296 0.289350 8.188026 0
M  V30 62 H -0.052174 1.382596 6.744793 0
M  V30 END ATOM
M  V30 BEGIN BOND
M  V30 1 1 1 2
M  V30 2 1 2 3
M  V30 3 2 3 4
M  V30 4 1 4 5
M  V30 5 2 5 6
M  V30 6 1 6 7
M  V30 7 2 7 8
M  V30 8 1 8 9
M  V30 9 1 9 10
M  V30 10 2 9 11
M  V30 11 1 11 12
M  V30 12 1 12 13
M  V30 13 2 13 14
M  V30 14 1 14 15
M  V30 15 2 15 16
M  V30 16 1 16 17
M  V30 17 1 17 18
M  V30 18 1 18 19
M  V30 19 1 19 20
M  V30 20 1 20 21
M  V30 21 1 20 22
M  V30 22 1 22 23
M  V30 23 1 23 24
M  V30 24 1 23 25
M  V30 25 2 17 26
M  V30 26 2 12 27
M  V30 27 1 27 28
M  V30 28 2 28 29
M  V30 29 1 29 30
M  V30 30 2 30 31
M  V30 31 1 31 32
M  V30 32 1 32 33
M  V30 33 1 31 3
M  V30 34 1 29 5
M  V30 35 1 28 8
M  V30 36 1 26 13
M  V30 37 1 1 34
M  V30 38 1 1 35
M  V30 39 1 1 36
M  V30 40 1 4 37
M  V30 41 1 7 38
M  V30 42 1 10 39
M  V30 43 1 10 40
M  V30 44 1 14 41
M  V30 45 1 16 42
M  V30 46 1 19 43
M  V30 47 1 19 44
M  V30 48 1 20 45 CFG=3
M  V30 49 1 21 46
M  V30 50 1 21 47
M  V30 51 1 22 48
M  V30 52 1 22 49
M  V30 53 1 23 50
M  V30 54 1 24 51
M  V30 55 1 24 52
M  V30 56 1 24 53
M  V30 57 1 25 54
M  V30 58 1 25 55
M  V30 59 1 25 56
M  V30 60 1 26 57
M  V30 61 1 27 58
M  V30 62 1 30 59
M  V30 63 1 33 60
M  V30 64 1 33 61
M  V30 65 1 33 62
M  V30 END BOND
M  V30 END CTAB
M  END
>  <Dataset>  (305) 
ChEMBL_Kinases

>  <Ligand_Instance>  (305) 
nan

>  <PDB_ID>  (305) 
nan

>  <Standardized_SMILES>  (305) 
COc1cc2ncc3c(N)nc(-c4cncc(OC[C@H](N)CC(C)C)c4)cc3c2cc1OC

>  <Name>  (305) 
nan

>  <Pocket>  (305) 
nan

>  <ATP_Site>  (305) 
nan

>  <Peripheral>  (305) 
nan

>  <Num_H_Atoms_ProtBoundConf>  (305) 
nan

>  <Num_Resolved_Atoms>  (305) 
nan

>  <Num_Not_Resolved_Atoms>  (305) 
nan

$$$$
CHEMBL1210175
     RDKit          3D

  0  0  0  0  0  0  0  0  0  0999 V3000
M  V30 BEGIN CTAB
M  V30 COUNTS 35 38 0 0 0
M  V30 BEGIN ATOM
M  V30 1 C 0.460660 -3.473309 4.528837 0
M  V30 2 C -0.284973 -4.378333 3.802822 0
M  V30 3 C -0.260446 -4.297574 2.423342 0
M  V30 4 C 0.493520 -3.331028 1.754702 0
M  V30 5 N 0.526794 -3.221712 0.336742 0
M  V30 6 C 1.353296 -2.296986 -0.359105 0
M  V30 7 N 2.557956 -2.668898 -0.824587 0
M  V30 8 C 3.387234 -1.850936 -1.482877 0
M  V30 9 N 3.021581 -0.565930 -1.710086 0
M  V30 10 C 1.831302 -0.093686 -1.282860 0
M  V30 11 N 1.191256 1.111587 -1.347182 0
M  V30 12 C 0.006413 0.976970 -0.728226 0
M  V30 13 C -0.962318 2.056234 -0.584969 0
M  V30 14 C -0.653797 3.298528 -1.116578 0
M  V30 15 C -1.561117 4.354988 -0.989711 0
M  V30 16 C -2.790356 4.204075 -0.335280 0
M  V30 17 C -3.055694 2.946576 0.179119 0
M  V30 18 C -2.169426 1.901676 0.059179 0
M  V30 19 N -0.101573 -0.294431 -0.279401 0
M  V30 20 C 1.017800 -0.981548 -0.610312 0
M  V30 21 C 1.237315 -2.430452 2.525021 0
M  V30 22 C 1.230611 -2.489842 3.922863 0
M  V30 23 H 0.502041 -3.462637 5.614829 0
M  V30 24 H -0.876702 -5.135836 4.309491 0
M  V30 25 H -0.844251 -5.006670 1.841264 0
M  V30 26 H -0.107031 -3.877338 -0.199306 0
M  V30 27 H 4.356417 -2.086163 -1.878115 0
M  V30 28 H 1.648417 1.942715 -1.828965 0
M  V30 29 H 0.294592 3.475969 -1.638874 0
M  V30 30 H -1.346941 5.349671 -1.398929 0
M  V30 31 H -3.461165 5.050803 -0.260902 0
M  V30 32 H -4.009764 2.870763 0.674272 0
M  V30 33 H -2.413140 0.940686 0.472102 0
M  V30 34 H 1.835059 -1.662439 2.008731 0
M  V30 35 H 1.840594 -1.746948 4.432238 0
M  V30 END ATOM
M  V30 BEGIN BOND
M  V30 1 2 1 2
M  V30 2 1 2 3
M  V30 3 2 3 4
M  V30 4 1 4 5
M  V30 5 1 5 6
M  V30 6 2 6 7
M  V30 7 1 7 8
M  V30 8 2 8 9
M  V30 9 1 9 10
M  V30 10 1 10 11
M  V30 11 1 11 12
M  V30 12 1 12 13
M  V30 13 2 13 14
M  V30 14 1 14 15
M  V30 15 2 15 16
M  V30 16 1 16 17
M  V30 17 2 17 18
M  V30 18 2 12 19
M  V30 19 1 19 20
M  V30 20 1 4 21
M  V30 21 2 21 22
M  V30 22 1 22 1
M  V30 23 1 20 6
M  V30 24 2 20 10
M  V30 25 1 18 13
M  V30 26 1 1 23
M  V30 27 1 2 24
M  V30 28 1 3 25
M  V30 29 1 5 26
M  V30 30 1 8 27
M  V30 31 1 11 28
M  V30 32 1 14 29
M  V30 33 1 15 30
M  V30 34 1 16 31
M  V30 35 1 17 32
M  V30 36 1 18 33
M  V30 37 1 21 34
M  V30 38 1 22 35
M  V30 END BOND
M  V30 END CTAB
M  END
>  <Dataset>  (306) 
ChEMBL_Kinases

>  <Ligand_Instance>  (306) 
nan

>  <PDB_ID>  (306) 
nan

>  <Standardized_SMILES>  (306) 
c1ccc(Nc2ncnc3[nH]c(-c4ccccc4)nc23)cc1

>  <Name>  (306) 
nan

>  <Pocket>  (306) 
nan

>  <ATP_Site>  (306) 
nan

>  <Peripheral>  (306) 
nan

>  <Num_H_Atoms_ProtBoundConf>  (306) 
nan

>  <Num_Resolved_Atoms>  (306) 
nan

>  <Num_Not_Resolved_Atoms>  (306) 
nan

$$$$
CHEMBL12089
     RDKit          3D

  0  0  0  0  0  0  0  0  0  0999 V3000
M  V30 BEGIN CTAB
M  V30 COUNTS 43 47 0 0 0
M  V30 BEGIN ATOM
M  V30 1 C 5.783223 -3.284809 -1.523864 0
M  V30 2 O 5.115119 -2.053071 -1.297654 0
M  V30 3 C 3.878461 -2.001329 -0.660039 0
M  V30 4 C 3.201099 -3.117299 -0.198373 0
M  V30 5 C 1.966797 -3.009332 0.432496 0
M  V30 6 C 1.413509 -1.740563 0.595399 0
M  V30 7 C 0.169262 -1.576581 1.225922 0
M  V30 8 C -0.353983 -0.310550 1.373469 0
M  V30 9 N 0.298282 0.779467 0.927401 0 CHG=1 VAL=4
M  V30 10 C 1.512192 0.665054 0.307772 0
M  V30 11 C 2.069997 -0.609017 0.143053 0
M  V30 12 C 3.311417 -0.754033 -0.487877 0
M  V30 13 O 3.957507 0.397778 -0.936813 0
M  V30 14 C 3.691482 0.840111 -2.258205 0
M  V30 15 C -0.140893 2.132886 1.022727 0
M  V30 16 C -1.449463 2.357014 1.680529 0
M  V30 17 C -2.131273 1.157098 2.152823 0
M  V30 18 C -3.357640 1.340333 2.772141 0
M  V30 19 C -4.085171 0.254690 3.256929 0
M  V30 20 C -3.560657 -1.032047 3.110808 0
M  V30 21 C -2.337978 -1.221987 2.494069 0
M  V30 22 C -1.644019 -0.128445 2.025951 0
M  V30 23 O -4.514897 -1.862994 3.688379 0
M  V30 24 C -5.763369 -1.203404 3.806168 0
M  V30 25 O -5.325540 0.154001 3.911432 0
M  V30 26 H 5.166088 -4.004040 -2.096069 0
M  V30 27 H 6.697833 -3.077657 -2.100852 0
M  V30 28 H 6.053022 -3.784207 -0.550761 0
M  V30 29 H 3.675515 -4.094950 -0.348879 0
M  V30 30 H 1.449543 -3.891498 0.787985 0
M  V30 31 H -0.277399 -2.472166 1.546042 0
M  V30 32 H 2.093943 1.497275 -0.076337 0
M  V30 33 H 4.012086 0.036864 -2.978313 0
M  V30 34 H 2.597288 0.960805 -2.454532 0
M  V30 35 H 4.208420 1.803547 -2.450736 0
M  V30 36 H -0.066160 2.643667 0.018426 0
M  V30 37 H 0.631995 2.680865 1.634621 0
M  V30 38 H -2.113270 2.864290 0.950976 0
M  V30 39 H -1.393263 3.067423 2.550588 0
M  V30 40 H -3.819050 2.317449 2.915899 0
M  V30 41 H -2.029985 -2.222944 2.432394 0
M  V30 42 H -6.326836 -1.520826 4.699392 0
M  V30 43 H -6.288268 -1.356251 2.844302 0
M  V30 END ATOM
M  V30 BEGIN BOND
M  V30 1 1 1 2
M  V30 2 1 2 3
M  V30 3 2 3 4
M  V30 4 1 4 5
M  V30 5 2 5 6
M  V30 6 1 6 7
M  V30 7 2 7 8
M  V30 8 1 8 9
M  V30 9 2 9 10
M  V30 10 1 10 11
M  V30 11 2 11 12
M  V30 12 1 12 13
M  V30 13 1 13 14
M  V30 14 1 9 15
M  V30 15 1 15 16
M  V30 16 1 16 17
M  V30 17 2 17 18
M  V30 18 1 18 19
M  V30 19 2 19 20
M  V30 20 1 20 21
M  V30 21 2 21 22
M  V30 22 1 20 23
M  V30 23 1 23 24
M  V30 24 1 24 25
M  V30 25 1 12 3
M  V30 26 1 22 17
M  V30 27 1 11 6
M  V30 28 1 25 19
M  V30 29 1 22 8
M  V30 30 1 1 26
M  V30 31 1 1 27
M  V30 32 1 1 28
M  V30 33 1 4 29
M  V30 34 1 5 30
M  V30 35 1 7 31
M  V30 36 1 10 32
M  V30 37 1 14 33
M  V30 38 1 14 34
M  V30 39 1 14 35
M  V30 40 1 15 36
M  V30 41 1 15 37
M  V30 42 1 16 38
M  V30 43 1 16 39
M  V30 44 1 18 40
M  V30 45 1 21 41
M  V30 46 1 24 42
M  V30 47 1 24 43
M  V30 END BOND
M  V30 END CTAB
M  END
>  <Dataset>  (307) 
ChEMBL_Kinases

>  <Ligand_Instance>  (307) 
nan

>  <PDB_ID>  (307) 
nan

>  <Standardized_SMILES>  (307) 
COc1ccc2cc3[n+](cc2c1OC)CCc1cc2c(cc1-3)OCO2

>  <Name>  (307) 
BERBERINE CHLORIDE

>  <Pocket>  (307) 
nan

>  <ATP_Site>  (307) 
nan

>  <Peripheral>  (307) 
nan

>  <Num_H_Atoms_ProtBoundConf>  (307) 
nan

>  <Num_Resolved_Atoms>  (307) 
nan

>  <Num_Not_Resolved_Atoms>  (307) 
nan

$$$$
CHEMBL120730
     RDKit          3D

  0  0  0  0  0  0  0  0  0  0999 V3000
M  V30 BEGIN CTAB
M  V30 COUNTS 40 43 0 0 0
M  V30 BEGIN ATOM
M  V30 1 O -1.620459 -4.686430 2.571395 0
M  V30 2 C -0.758271 -4.064044 1.902365 0
M  V30 3 N 0.300893 -4.764377 1.253365 0
M  V30 4 C 1.336394 -4.133503 0.463605 0
M  V30 5 C 1.179475 -2.669339 0.399213 0
M  V30 6 C 2.143642 -2.030888 -0.342171 0
M  V30 7 C 2.084275 -0.638742 -0.465459 0
M  V30 8 S 3.300122 0.291105 -1.415087 0
M  V30 9 C 2.923488 2.046327 -1.362066 0
M  V30 10 C 2.088110 2.449500 -2.391863 0
M  V30 11 C 1.697962 3.770218 -2.500492 0
M  V30 12 C 2.173047 4.652146 -1.549494 0
M  V30 13 F 1.855745 5.970421 -1.557551 0
M  V30 14 C 2.998689 4.261582 -0.529096 0
M  V30 15 C 3.394356 2.933199 -0.415308 0
M  V30 16 F 4.203518 2.418737 0.541422 0
M  V30 17 C 1.067006 0.063949 0.154328 0
M  V30 18 C 0.094986 -0.572719 0.900931 0
M  V30 19 C 0.186683 -1.950630 1.000205 0
M  V30 20 N -0.793301 -2.647752 1.759427 0
M  V30 21 C -1.845734 -1.932311 2.401998 0
M  V30 22 C -2.991109 -1.756985 1.641535 0
M  V30 23 Cl -3.115159 -2.379216 0.007617 0
M  V30 24 C -4.039647 -1.073138 2.211682 0
M  V30 25 C -3.920240 -0.596001 3.489701 0
M  V30 26 C -2.773817 -0.775068 4.242200 0
M  V30 27 C -1.695234 -1.462720 3.693920 0
M  V30 28 Cl -0.209996 -1.727204 4.590201 0
M  V30 29 H 0.356250 -5.806441 1.338116 0
M  V30 30 H 2.306984 -4.437033 0.942046 0
M  V30 31 H 1.329383 -4.611154 -0.547558 0
M  V30 32 H 2.963638 -2.517912 -0.851133 0
M  V30 33 H 1.686177 1.800339 -3.164516 0
M  V30 34 H 1.046185 4.114021 -3.294339 0
M  V30 35 H 3.397236 4.914333 0.240052 0
M  V30 36 H 0.954670 1.145382 0.104309 0
M  V30 37 H -0.725910 -0.071893 1.408903 0
M  V30 38 H -4.958051 -0.921422 1.628904 0
M  V30 39 H -4.747700 -0.054512 3.944053 0
M  V30 40 H -2.670808 -0.398270 5.260471 0
M  V30 END ATOM
M  V30 BEGIN BOND
M  V30 1 2 1 2
M  V30 2 1 2 3
M  V30 3 1 3 4
M  V30 4 1 4 5
M  V30 5 2 5 6
M  V30 6 1 6 7
M  V30 7 1 7 8
M  V30 8 1 8 9
M  V30 9 2 9 10
M  V30 10 1 10 11
M  V30 11 2 11 12
M  V30 12 1 12 13
M  V30 13 1 12 14
M  V30 14 2 14 15
M  V30 15 1 15 16
M  V30 16 2 7 17
M  V30 17 1 17 18
M  V30 18 2 18 19
M  V30 19 1 19 20
M  V30 20 1 20 21
M  V30 21 2 21 22
M  V30 22 1 22 23
M  V30 23 1 22 24
M  V30 24 2 24 25
M  V30 25 1 25 26
M  V30 26 2 26 27
M  V30 27 1 27 28
M  V30 28 1 20 2
M  V30 29 1 27 21
M  V30 30 1 19 5
M  V30 31 1 15 9
M  V30 32 1 3 29
M  V30 33 1 4 30
M  V30 34 1 4 31
M  V30 35 1 6 32
M  V30 36 1 10 33
M  V30 37 1 11 34
M  V30 38 1 14 35
M  V30 39 1 17 36
M  V30 40 1 18 37
M  V30 41 1 24 38
M  V30 42 1 25 39
M  V30 43 1 26 40
M  V30 END BOND
M  V30 END CTAB
M  END
>  <Dataset>  (308) 
ChEMBL_Kinases

>  <Ligand_Instance>  (308) 
nan

>  <PDB_ID>  (308) 
nan

>  <Standardized_SMILES>  (308) 
O=C1NCc2cc(Sc3ccc(F)cc3F)ccc2N1c1c(Cl)cccc1Cl

>  <Name>  (308) 
nan

>  <Pocket>  (308) 
nan

>  <ATP_Site>  (308) 
nan

>  <Peripheral>  (308) 
nan

>  <Num_H_Atoms_ProtBoundConf>  (308) 
nan

>  <Num_Resolved_Atoms>  (308) 
nan

>  <Num_Not_Resolved_Atoms>  (308) 
nan

$$$$
CHEMBL120663
     RDKit          3D

  0  0  0  0  0  0  0  0  0  0999 V3000
M  V30 BEGIN CTAB
M  V30 COUNTS 47 50 0 0 0
M  V30 BEGIN ATOM
M  V30 1 C 0.381583 -2.741579 2.900192 0
M  V30 2 N -0.100895 -2.530489 1.557419 0
M  V30 3 C 0.343733 -1.287261 0.975049 0
M  V30 4 C -0.232896 -0.036007 1.002292 0
M  V30 5 C 0.404768 1.001596 0.359478 0
M  V30 6 C 1.590413 0.786231 -0.292839 0
M  V30 7 C 2.203302 -0.449143 -0.345465 0
M  V30 8 C 1.558502 -1.492176 0.302871 0
M  V30 9 C 3.480555 -0.635215 -1.059697 0
M  V30 10 N 3.941001 0.588674 -1.643962 0
M  V30 11 C 3.357507 1.885473 -1.624416 0
M  V30 12 O 3.921479 2.849421 -2.204598 0
M  V30 13 N 2.129525 1.950055 -0.908791 0
M  V30 14 C 1.486056 3.233218 -0.850042 0
M  V30 15 C 0.562627 3.736774 -1.744323 0
M  V30 16 Cl 0.152450 2.673548 -3.082841 0
M  V30 17 C 0.036284 4.985592 -1.550555 0
M  V30 18 C 0.441845 5.732489 -0.449725 0
M  V30 19 C 1.365935 5.238177 0.452222 0
M  V30 20 C 1.900887 3.961576 0.249907 0
M  V30 21 Cl 3.063923 3.413169 1.439057 0
M  V30 22 S -1.052746 -3.924004 1.186269 0
M  V30 23 O -1.623817 -3.736064 -0.214657 0
M  V30 24 O -0.214927 -5.157087 1.142154 0
M  V30 25 C -2.427647 -4.127559 2.241012 0
M  V30 26 C -2.469882 -5.282818 3.030828 0
M  V30 27 C -3.481334 -5.557245 3.900587 0
M  V30 28 Cl -3.493688 -7.010204 4.866161 0
M  V30 29 C -4.538028 -4.663223 4.031424 0
M  V30 30 C -4.516393 -3.527573 3.268317 0
M  V30 31 C -3.495159 -3.279130 2.408797 0
M  V30 32 Cl -3.480356 -1.837628 1.432270 0
M  V30 33 H 0.927019 -3.709478 3.028228 0
M  V30 34 H 1.055459 -1.978821 3.295489 0
M  V30 35 H -0.508836 -2.769428 3.581608 0
M  V30 36 H -1.140415 -0.012216 1.541021 0
M  V30 37 H -0.099737 1.957015 0.418377 0
M  V30 38 H 2.090868 -2.434280 0.224018 0
M  V30 39 H 3.354726 -1.373001 -1.905369 0
M  V30 40 H 4.282211 -1.041228 -0.388804 0
M  V30 41 H 4.859168 0.421243 -2.148877 0
M  V30 42 H -0.683151 5.340283 -2.274797 0
M  V30 43 H -0.019493 6.709527 -0.365871 0
M  V30 44 H 1.639712 5.879011 1.295288 0
M  V30 45 H -1.674223 -6.026908 2.979031 0
M  V30 46 H -5.353454 -4.853882 4.712650 0
M  V30 47 H -5.334375 -2.813694 3.355208 0
M  V30 END ATOM
M  V30 BEGIN BOND
M  V30 1 1 1 2
M  V30 2 1 2 3
M  V30 3 2 3 4
M  V30 4 1 4 5
M  V30 5 2 5 6
M  V30 6 1 6 7
M  V30 7 2 7 8
M  V30 8 1 7 9
M  V30 9 1 9 10
M  V30 10 1 10 11
M  V30 11 2 11 12
M  V30 12 1 11 13
M  V30 13 1 13 14
M  V30 14 2 14 15
M  V30 15 1 15 16
M  V30 16 1 15 17
M  V30 17 2 17 18
M  V30 18 1 18 19
M  V30 19 2 19 20
M  V30 20 1 20 21
M  V30 21 1 2 22
M  V30 22 2 22 23
M  V30 23 2 22 24
M  V30 24 1 22 25
M  V30 25 2 25 26
M  V30 26 1 26 27
M  V30 27 1 27 28
M  V30 28 2 27 29
M  V30 29 1 29 30
M  V30 30 2 30 31
M  V30 31 1 31 32
M  V30 32 1 8 3
M  V30 33 1 20 14
M  V30 34 1 31 25
M  V30 35 1 13 6
M  V30 36 1 1 33
M  V30 37 1 1 34
M  V30 38 1 1 35
M  V30 39 1 4 36
M  V30 40 1 5 37
M  V30 41 1 8 38
M  V30 42 1 9 39
M  V30 43 1 9 40
M  V30 44 1 10 41
M  V30 45 1 17 42
M  V30 46 1 18 43
M  V30 47 1 19 44
M  V30 48 1 26 45
M  V30 49 1 29 46
M  V30 50 1 30 47
M  V30 END BOND
M  V30 END CTAB
M  END
>  <Dataset>  (309) 
ChEMBL_Kinases

>  <Ligand_Instance>  (309) 
nan

>  <PDB_ID>  (309) 
nan

>  <Standardized_SMILES>  (309) 
CN(c1ccc2c(c1)CNC(=O)N2c1c(Cl)cccc1Cl)S(=O)(=O)c1cc(Cl)ccc1Cl

>  <Name>  (309) 
nan

>  <Pocket>  (309) 
nan

>  <ATP_Site>  (309) 
nan

>  <Peripheral>  (309) 
nan

>  <Num_H_Atoms_ProtBoundConf>  (309) 
nan

>  <Num_Resolved_Atoms>  (309) 
nan

>  <Num_Not_Resolved_Atoms>  (309) 
nan

$$$$
CHEMBL1205
     RDKit          3D

  0  0  0  0  0  0  0  0  0  0999 V3000
M  V30 BEGIN CTAB
M  V30 COUNTS 85 88 0 0 0
M  V30 BEGIN ATOM
M  V30 1 C 2.699285 -2.978243 4.044767 0
M  V30 2 C 1.962492 -4.136995 4.550226 0
M  V30 3 C 2.354559 -5.007283 5.535727 0
M  V30 4 O 3.607708 -4.721105 6.088014 0
M  V30 5 C 1.620547 -6.082234 5.980097 0
M  V30 6 C 0.408204 -6.262233 5.364000 0
M  V30 7 C -0.046906 -5.411962 4.355961 0
M  V30 8 C 0.737600 -4.327599 3.934931 0
M  V30 9 C 0.071679 -3.582974 2.862956 0
M  V30 10 O -0.195456 -3.853995 1.673389 0
M  V30 11 N -0.406297 -2.240241 3.172985 0
M  V30 12 C -1.081754 -1.536715 2.053023 0 CFG=1
M  V30 13 C -2.536099 -1.523542 2.585526 0
M  V30 14 S -3.724735 -0.798968 1.535109 0
M  V30 15 C -4.175929 -1.671177 0.072552 0
M  V30 16 C -5.272497 -2.513234 0.370456 0
M  V30 17 C -5.848883 -3.316514 -0.611487 0
M  V30 18 C -5.342273 -3.293807 -1.904792 0
M  V30 19 C -4.284893 -2.481661 -2.189141 0
M  V30 20 C -3.717315 -1.691615 -1.225270 0
M  V30 21 C -0.553426 -0.104394 2.043752 0 CFG=2
M  V30 22 O -1.062459 0.405867 3.272865 0
M  V30 23 C -0.894709 0.699420 0.874130 0
M  V30 24 N -0.349355 0.328482 -0.398028 0
M  V30 25 C -0.928877 1.102237 -1.487097 0
M  V30 26 C -0.665454 0.370967 -2.756908 0 CFG=1
M  V30 27 C -0.691845 1.329617 -3.957173 0
M  V30 28 C -0.968146 0.419525 -5.154046 0
M  V30 29 C 0.131667 -0.609334 -5.229953 0
M  V30 30 C 1.141985 -0.431996 -4.134484 0
M  V30 31 C 0.506941 -0.547249 -2.763366 0 CFG=1
M  V30 32 C 1.540846 -0.285238 -1.738850 0
M  V30 33 C 1.089038 0.349877 -0.472976 0 CFG=1
M  V30 34 C 1.494266 1.797931 -0.358372 0
M  V30 35 O 1.517012 2.410026 0.738360 0
M  V30 36 N 1.884293 2.620607 -1.452053 0
M  V30 37 C 2.266052 3.991171 -1.385890 0
M  V30 38 C 3.502769 4.226962 -0.556524 0
M  V30 39 C 1.170023 4.853939 -0.757969 0
M  V30 40 C 2.505757 4.569356 -2.768945 0
M  V30 41 H 3.510744 -3.302839 3.395273 0
M  V30 42 H 2.084540 -2.226453 3.552494 0
M  V30 43 H 3.174769 -2.440189 4.919864 0
M  V30 44 H 3.579434 -4.366135 7.054485 0
M  V30 45 H 2.037496 -6.700317 6.764298 0
M  V30 46 H -0.176490 -7.123309 5.724888 0
M  V30 47 H -1.017575 -5.707939 3.994817 0
M  V30 48 H -0.299837 -1.776826 4.099490 0
M  V30 49 H -1.047090 -1.980092 1.108609 0
M  V30 50 H -2.825606 -2.586197 2.841551 0
M  V30 51 H -2.454547 -1.047941 3.605809 0
M  V30 52 H -5.802860 -2.667886 1.304053 0
M  V30 53 H -6.686150 -3.991122 -0.488945 0
M  V30 54 H -5.741116 -3.894812 -2.736346 0
M  V30 55 H -3.773375 -2.350343 -3.155212 0
M  V30 56 H -2.901692 -0.984388 -1.193890 0
M  V30 57 H 0.557998 -0.195970 2.135954 0
M  V30 58 H -0.310446 0.549335 3.889531 0
M  V30 59 H -2.009407 0.765110 0.672593 0
M  V30 60 H -0.622011 1.754595 1.063485 0
M  V30 61 H -1.972328 1.295006 -1.243302 0
M  V30 62 H -0.429666 2.090694 -1.530599 0
M  V30 63 H -1.568027 -0.286308 -2.952566 0
M  V30 64 H 0.219151 1.906782 -4.075960 0
M  V30 65 H -1.598529 1.965543 -3.802202 0
M  V30 66 H -1.963218 -0.055690 -4.913691 0
M  V30 67 H -1.134067 0.984336 -6.081332 0
M  V30 68 H -0.285376 -1.649671 -5.081477 0
M  V30 69 H 0.616481 -0.506727 -6.201398 0
M  V30 70 H 1.700956 0.535615 -4.219709 0
M  V30 71 H 1.919796 -1.224012 -4.251493 0
M  V30 72 H 0.189915 -1.634267 -2.700792 0
M  V30 73 H 1.990512 -1.282476 -1.442319 0
M  V30 74 H 2.432667 0.228739 -2.205898 0
M  V30 75 H 1.485741 -0.149872 0.425575 0
M  V30 76 H 1.892150 2.170319 -2.403508 0
M  V30 77 H 3.432374 3.625778 0.364868 0
M  V30 78 H 4.436272 3.986248 -1.137922 0
M  V30 79 H 3.529739 5.333376 -0.325207 0
M  V30 80 H 1.350297 5.891747 -1.110043 0
M  V30 81 H 1.201818 4.864377 0.338395 0
M  V30 82 H 0.172548 4.564310 -1.116368 0
M  V30 83 H 3.106059 3.852052 -3.368525 0
M  V30 84 H 1.545666 4.710740 -3.341181 0
M  V30 85 H 3.043268 5.538047 -2.718903 0
M  V30 END ATOM
M  V30 BEGIN BOND
M  V30 1 1 1 2
M  V30 2 2 2 3
M  V30 3 1 3 4
M  V30 4 1 3 5
M  V30 5 2 5 6
M  V30 6 1 6 7
M  V30 7 2 7 8
M  V30 8 1 8 9
M  V30 9 2 9 10
M  V30 10 1 9 11
M  V30 11 1 11 12
M  V30 12 1 12 13
M  V30 13 1 13 14
M  V30 14 1 14 15
M  V30 15 2 15 16
M  V30 16 1 16 17
M  V30 17 2 17 18
M  V30 18 1 18 19
M  V30 19 2 19 20
M  V30 20 1 12 21
M  V30 21 1 21 22
M  V30 22 1 21 23
M  V30 23 1 23 24
M  V30 24 1 24 25
M  V30 25 1 25 26
M  V30 26 1 26 27
M  V30 27 1 27 28
M  V30 28 1 28 29
M  V30 29 1 29 30
M  V30 30 1 30 31
M  V30 31 1 31 32
M  V30 32 1 32 33
M  V30 33 1 33 34
M  V30 34 2 34 35
M  V30 35 1 34 36
M  V30 36 1 36 37
M  V30 37 1 37 38
M  V30 38 1 37 39
M  V30 39 1 37 40
M  V30 40 1 8 2
M  V30 41 1 20 15
M  V30 42 1 33 24
M  V30 43 1 31 26
M  V30 44 1 1 41
M  V30 45 1 1 42
M  V30 46 1 1 43
M  V30 47 1 4 44
M  V30 48 1 5 45
M  V30 49 1 6 46
M  V30 50 1 7 47
M  V30 51 1 11 48
M  V30 52 1 12 49 CFG=3
M  V30 53 1 13 50
M  V30 54 1 13 51
M  V30 55 1 16 52
M  V30 56 1 17 53
M  V30 57 1 18 54
M  V30 58 1 19 55
M  V30 59 1 20 56
M  V30 60 1 21 57 CFG=1
M  V30 61 1 22 58
M  V30 62 1 23 59
M  V30 63 1 23 60
M  V30 64 1 25 61
M  V30 65 1 25 62
M  V30 66 1 26 63 CFG=3
M  V30 67 1 27 64
M  V30 68 1 27 65
M  V30 69 1 28 66
M  V30 70 1 28 67
M  V30 71 1 29 68
M  V30 72 1 29 69
M  V30 73 1 30 70
M  V30 74 1 30 71
M  V30 75 1 31 72 CFG=1
M  V30 76 1 32 73
M  V30 77 1 32 74
M  V30 78 1 33 75 CFG=1
M  V30 79 1 36 76
M  V30 80 1 38 77
M  V30 81 1 38 78
M  V30 82 1 38 79
M  V30 83 1 39 80
M  V30 84 1 39 81
M  V30 85 1 39 82
M  V30 86 1 40 83
M  V30 87 1 40 84
M  V30 88 1 40 85
M  V30 END BOND
M  V30 END CTAB
M  END
>  <Dataset>  (310) 
ChEMBL_Kinases

>  <Ligand_Instance>  (310) 
nan

>  <PDB_ID>  (310) 
nan

>  <Standardized_SMILES>  (310) 
Cc1c(O)cccc1C(=O)N[C@@H](CSc1ccccc1)[C@H](O)CN1C[C@H]2CCCC[C@H]2C[C@H]1C(=O)NC(C)(C)C

>  <Name>  (310) 
NELFINAVIR MESYLATE

>  <Pocket>  (310) 
nan

>  <ATP_Site>  (310) 
nan

>  <Peripheral>  (310) 
nan

>  <Num_H_Atoms_ProtBoundConf>  (310) 
nan

>  <Num_Resolved_Atoms>  (310) 
nan

>  <Num_Not_Resolved_Atoms>  (310) 
nan

$$$$
CHEMBL120453
     RDKit          3D

  0  0  0  0  0  0  0  0  0  0999 V3000
M  V30 BEGIN CTAB
M  V30 COUNTS 47 50 0 0 0
M  V30 BEGIN ATOM
M  V30 1 C -2.557744 0.388080 6.556210 0
M  V30 2 C -1.241584 0.459969 5.855336 0
M  V30 3 C -0.456026 1.582444 5.741178 0
M  V30 4 C 0.741066 1.508304 5.064393 0
M  V30 5 C 1.192748 0.317706 4.481464 0
M  V30 6 S 2.740451 0.500796 3.694760 0
M  V30 7 O 3.624112 1.403020 4.468630 0
M  V30 8 O 3.348922 -0.894581 3.598798 0
M  V30 9 N 2.547923 1.022401 2.060208 0
M  V30 10 C 1.910411 0.433791 0.941640 0
M  V30 11 C 0.656517 -0.140125 0.914913 0
M  V30 12 C 0.079411 -0.699471 -0.206280 0
M  V30 13 C 0.833016 -0.665861 -1.360198 0
M  V30 14 C 2.092940 -0.115878 -1.434226 0
M  V30 15 C 2.606031 0.424657 -0.274770 0
M  V30 16 C 2.921127 -0.066299 -2.655130 0
M  V30 17 N 2.300441 -0.650306 -3.794470 0
M  V30 18 C 1.004979 -1.242571 -3.818916 0
M  V30 19 O 0.462914 -1.756342 -4.828259 0
M  V30 20 N 0.311065 -1.222109 -2.563295 0
M  V30 21 C -1.003311 -1.811067 -2.543212 0
M  V30 22 C -1.991474 -0.908424 -2.833728 0
M  V30 23 Cl -1.717308 0.780414 -3.193636 0
M  V30 24 C -3.326112 -1.307557 -2.858510 0
M  V30 25 C -3.596826 -2.638789 -2.579532 0
M  V30 26 C -2.615758 -3.547117 -2.288337 0
M  V30 27 C -1.292029 -3.140533 -2.266191 0
M  V30 28 Cl 0.098959 -4.176694 -1.910491 0
M  V30 29 C 0.392252 -0.798861 4.605471 0
M  V30 30 C -0.804177 -0.715622 5.284456 0
M  V30 31 H -3.207492 -0.362381 6.069637 0
M  V30 32 H -3.089114 1.354121 6.451262 0
M  V30 33 H -2.464000 0.151788 7.633504 0
M  V30 34 H -0.834580 2.482512 6.202186 0
M  V30 35 H 1.268260 2.454574 5.042147 0
M  V30 36 H 2.973919 1.949058 1.828514 0
M  V30 37 H 0.106261 -0.145020 1.820568 0
M  V30 38 H -0.909578 -1.133130 -0.155548 0
M  V30 39 H 3.601798 0.868791 -0.297825 0
M  V30 40 H 3.877449 -0.600556 -2.420743 0
M  V30 41 H 3.208800 0.982722 -2.926735 0
M  V30 42 H 2.843958 -0.641309 -4.683698 0
M  V30 43 H -4.166524 -0.664503 -3.077281 0
M  V30 44 H -4.611279 -3.028124 -2.578841 0
M  V30 45 H -2.774531 -4.592620 -2.064584 0
M  V30 46 H 0.830230 -1.660374 4.122770 0
M  V30 47 H -1.326427 -1.683192 5.297987 0
M  V30 END ATOM
M  V30 BEGIN BOND
M  V30 1 1 1 2
M  V30 2 2 2 3
M  V30 3 1 3 4
M  V30 4 2 4 5
M  V30 5 1 5 6
M  V30 6 2 6 7
M  V30 7 2 6 8
M  V30 8 1 6 9
M  V30 9 1 9 10
M  V30 10 2 10 11
M  V30 11 1 11 12
M  V30 12 2 12 13
M  V30 13 1 13 14
M  V30 14 2 14 15
M  V30 15 1 14 16
M  V30 16 1 16 17
M  V30 17 1 17 18
M  V30 18 2 18 19
M  V30 19 1 18 20
M  V30 20 1 20 21
M  V30 21 2 21 22
M  V30 22 1 22 23
M  V30 23 1 22 24
M  V30 24 2 24 25
M  V30 25 1 25 26
M  V30 26 2 26 27
M  V30 27 1 27 28
M  V30 28 1 5 29
M  V30 29 2 29 30
M  V30 30 1 30 2
M  V30 31 1 15 10
M  V30 32 1 27 21
M  V30 33 1 20 13
M  V30 34 1 1 31
M  V30 35 1 1 32
M  V30 36 1 1 33
M  V30 37 1 3 34
M  V30 38 1 4 35
M  V30 39 1 9 36
M  V30 40 1 11 37
M  V30 41 1 12 38
M  V30 42 1 15 39
M  V30 43 1 16 40
M  V30 44 1 16 41
M  V30 45 1 17 42
M  V30 46 1 24 43
M  V30 47 1 25 44
M  V30 48 1 26 45
M  V30 49 1 29 46
M  V30 50 1 30 47
M  V30 END BOND
M  V30 END CTAB
M  END
>  <Dataset>  (311) 
ChEMBL_Kinases

>  <Ligand_Instance>  (311) 
nan

>  <PDB_ID>  (311) 
nan

>  <Standardized_SMILES>  (311) 
Cc1ccc(S(=O)(=O)Nc2ccc3c(c2)CNC(=O)N3c2c(Cl)cccc2Cl)cc1

>  <Name>  (311) 
nan

>  <Pocket>  (311) 
nan

>  <ATP_Site>  (311) 
nan

>  <Peripheral>  (311) 
nan

>  <Num_H_Atoms_ProtBoundConf>  (311) 
nan

>  <Num_Resolved_Atoms>  (311) 
nan

>  <Num_Not_Resolved_Atoms>  (311) 
nan

$$$$
CHEMBL1203954
     RDKit          3D

  0  0  0  0  0  0  0  0  0  0999 V3000
M  V30 BEGIN CTAB
M  V30 COUNTS 26 28 0 0 0
M  V30 BEGIN ATOM
M  V30 1 O -0.946791 -3.895672 1.668561 0
M  V30 2 C -0.677844 -2.793602 2.211184 0
M  V30 3 N -0.719159 -2.638992 3.626020 0
M  V30 4 C 0.167981 -1.672038 4.239942 0
M  V30 5 C -0.087739 -0.333261 3.583914 0
M  V30 6 C -0.041810 -0.485890 2.109712 0
M  V30 7 N 0.265625 0.435697 1.169371 0
M  V30 8 C 0.198015 -0.081933 -0.075222 0
M  V30 9 C 0.466982 0.633338 -1.316963 0
M  V30 10 C 0.356577 -0.032179 -2.520779 0
M  V30 11 C 0.633057 0.739886 -3.627218 0
M  V30 12 N 0.984038 2.028267 -3.611644 0
M  V30 13 C 1.081223 2.646712 -2.401754 0
M  V30 14 N 0.817566 1.921411 -1.296144 0
M  V30 15 C -0.170897 -1.406247 0.046593 0
M  V30 16 C -0.313513 -1.635154 1.398150 0
M  V30 17 H -1.380388 -3.219398 4.184227 0
M  V30 18 H 0.087012 -1.638644 5.326185 0
M  V30 19 H 1.216378 -1.950921 3.973088 0
M  V30 20 H 0.698004 0.401236 3.925355 0
M  V30 21 H -1.050199 0.075595 3.891293 0
M  V30 22 H 0.530432 1.444779 1.351370 0
M  V30 23 H 0.075100 -1.071206 -2.559906 0
M  V30 24 H 0.557254 0.250416 -4.603639 0
M  V30 25 H 1.355568 3.685099 -2.245260 0
M  V30 26 H -0.326515 -2.144228 -0.728291 0
M  V30 END ATOM
M  V30 BEGIN BOND
M  V30 1 2 1 2
M  V30 2 1 2 3
M  V30 3 1 3 4
M  V30 4 1 4 5
M  V30 5 1 5 6
M  V30 6 1 6 7
M  V30 7 1 7 8
M  V30 8 1 8 9
M  V30 9 2 9 10
M  V30 10 1 10 11
M  V30 11 2 11 12
M  V30 12 1 12 13
M  V30 13 2 13 14
M  V30 14 2 8 15
M  V30 15 1 15 16
M  V30 16 1 16 2
M  V30 17 2 16 6
M  V30 18 1 14 9
M  V30 19 1 3 17
M  V30 20 1 4 18
M  V30 21 1 4 19
M  V30 22 1 5 20
M  V30 23 1 5 21
M  V30 24 1 7 22
M  V30 25 1 10 23
M  V30 26 1 11 24
M  V30 27 1 13 25
M  V30 28 1 15 26
M  V30 END BOND
M  V30 END CTAB
M  END
>  <Dataset>  (312) 
ChEMBL_Kinases

>  <Ligand_Instance>  (312) 
nan

>  <PDB_ID>  (312) 
nan

>  <Standardized_SMILES>  (312) 
O=C1NCCc2[nH]c(-c3ccncn3)cc21

>  <Name>  (312) 
nan

>  <Pocket>  (312) 
nan

>  <ATP_Site>  (312) 
nan

>  <Peripheral>  (312) 
nan

>  <Num_H_Atoms_ProtBoundConf>  (312) 
nan

>  <Num_Resolved_Atoms>  (312) 
nan

>  <Num_Not_Resolved_Atoms>  (312) 
nan

$$$$
CHEMBL120300
     RDKit          3D

  0  0  0  0  0  0  0  0  0  0999 V3000
M  V30 BEGIN CTAB
M  V30 COUNTS 44 47 0 0 0
M  V30 BEGIN ATOM
M  V30 1 O -2.213022 -4.416243 1.451886 0
M  V30 2 C -1.568751 -3.353480 1.352349 0
M  V30 3 N -2.001054 -2.183581 2.036792 0
M  V30 4 C -1.388878 -0.891867 2.034725 0
M  V30 5 C -0.166805 -0.850701 1.198147 0
M  V30 6 C 0.535084 0.331052 1.097529 0
M  V30 7 C 1.682106 0.489657 0.351578 0
M  V30 8 N 2.445952 1.663986 0.207582 0
M  V30 9 S 1.965087 3.276263 -0.103021 0
M  V30 10 O 1.194086 3.356226 -1.415529 0
M  V30 11 O 3.158126 4.166433 -0.281006 0
M  V30 12 C 0.947557 3.965478 1.109782 0
M  V30 13 C 1.591580 4.604727 2.175429 0
M  V30 14 C 0.962223 5.216483 3.234483 0
M  V30 15 C -0.416857 5.203060 3.255122 0
M  V30 16 F -1.156026 5.768742 4.239362 0
M  V30 17 C -1.097925 4.585717 2.227851 0
M  V30 18 Cl -2.852227 4.484928 2.111896 0
M  V30 19 C -0.444364 3.978865 1.176364 0
M  V30 20 C 2.083287 -0.677432 -0.310222 0
M  V30 21 C 1.450840 -1.899878 -0.271216 0
M  V30 22 C 0.319384 -1.938326 0.503205 0
M  V30 23 N -0.381797 -3.187338 0.581230 0
M  V30 24 C 0.084815 -4.348852 -0.124324 0
M  V30 25 C 0.962483 -5.303793 0.346483 0
M  V30 26 Cl 1.513297 -4.986906 1.981369 0
M  V30 27 C 1.308176 -6.362018 -0.465245 0
M  V30 28 C 0.771025 -6.442866 -1.725995 0
M  V30 29 C -0.112259 -5.491338 -2.213739 0
M  V30 30 C -0.459355 -4.429046 -1.399048 0
M  V30 31 Cl -1.578070 -3.270053 -2.084292 0
M  V30 32 H -2.868473 -2.162304 2.647080 0
M  V30 33 H -2.087543 -0.122762 1.616382 0
M  V30 34 H -1.141597 -0.638856 3.100782 0
M  V30 35 H 0.179952 1.199615 1.631563 0
M  V30 36 H 3.481212 1.466899 0.318827 0
M  V30 37 H 2.690517 4.650266 2.218175 0
M  V30 38 H 1.498510 5.690647 4.023085 0
M  V30 39 H -0.910593 3.473813 0.333084 0
M  V30 40 H 2.992899 -0.601502 -0.918013 0
M  V30 41 H 1.855158 -2.728306 -0.824147 0
M  V30 42 H 1.997710 -7.052381 -0.007810 0
M  V30 43 H 1.066654 -7.284550 -2.327652 0
M  V30 44 H -0.494236 -5.619299 -3.213296 0
M  V30 END ATOM
M  V30 BEGIN BOND
M  V30 1 2 1 2
M  V30 2 1 2 3
M  V30 3 1 3 4
M  V30 4 1 4 5
M  V30 5 2 5 6
M  V30 6 1 6 7
M  V30 7 1 7 8
M  V30 8 1 8 9
M  V30 9 2 9 10
M  V30 10 2 9 11
M  V30 11 1 9 12
M  V30 12 2 12 13
M  V30 13 1 13 14
M  V30 14 2 14 15
M  V30 15 1 15 16
M  V30 16 1 15 17
M  V30 17 1 17 18
M  V30 18 2 17 19
M  V30 19 2 7 20
M  V30 20 1 20 21
M  V30 21 2 21 22
M  V30 22 1 22 23
M  V30 23 1 23 24
M  V30 24 2 24 25
M  V30 25 1 25 26
M  V30 26 1 25 27
M  V30 27 2 27 28
M  V30 28 1 28 29
M  V30 29 2 29 30
M  V30 30 1 30 31
M  V30 31 1 23 2
M  V30 32 1 30 24
M  V30 33 1 22 5
M  V30 34 1 19 12
M  V30 35 1 3 32
M  V30 36 1 4 33
M  V30 37 1 4 34
M  V30 38 1 6 35
M  V30 39 1 8 36
M  V30 40 1 13 37
M  V30 41 1 14 38
M  V30 42 1 19 39
M  V30 43 1 20 40
M  V30 44 1 21 41
M  V30 45 1 27 42
M  V30 46 1 28 43
M  V30 47 1 29 44
M  V30 END BOND
M  V30 END CTAB
M  END
>  <Dataset>  (313) 
ChEMBL_Kinases

>  <Ligand_Instance>  (313) 
nan

>  <PDB_ID>  (313) 
nan

>  <Standardized_SMILES>  (313) 
O=C1NCc2cc(NS(=O)(=O)c3ccc(F)c(Cl)c3)ccc2N1c1c(Cl)cccc1Cl

>  <Name>  (313) 
nan

>  <Pocket>  (313) 
nan

>  <ATP_Site>  (313) 
nan

>  <Peripheral>  (313) 
nan

>  <Num_H_Atoms_ProtBoundConf>  (313) 
nan

>  <Num_Resolved_Atoms>  (313) 
nan

>  <Num_Not_Resolved_Atoms>  (313) 
nan

$$$$
CHEMBL120230
     RDKit          3D

  0  0  0  0  0  0  0  0  0  0999 V3000
M  V30 BEGIN CTAB
M  V30 COUNTS 41 44 0 0 0
M  V30 BEGIN ATOM
M  V30 1 O -2.344724 -4.650549 2.189610 0
M  V30 2 C -2.080306 -3.589403 1.571122 0
M  V30 3 N -3.001087 -3.086788 0.609778 0
M  V30 4 C -2.891699 -1.892439 -0.206528 0
M  V30 5 C -1.616219 -1.178179 0.078370 0
M  V30 6 C -1.422236 -0.023667 -0.654459 0
M  V30 7 C -0.253883 0.677841 -0.428524 0
M  V30 8 N -0.021583 1.871600 -1.166102 0
M  V30 9 C 1.078381 2.773105 -1.130207 0
M  V30 10 C 1.794776 2.959527 -2.316217 0
M  V30 11 C 2.883149 3.796635 -2.446638 0
M  V30 12 C 3.268834 4.487617 -1.302897 0
M  V30 13 F 4.352221 5.317721 -1.442289 0
M  V30 14 C 2.594285 4.336380 -0.112851 0
M  V30 15 C 1.511197 3.487569 -0.030658 0
M  V30 16 F 0.836779 3.319206 1.107086 0
M  V30 17 C 0.688932 0.259092 0.484659 0
M  V30 18 C 0.497681 -0.905250 1.226533 0
M  V30 19 C -0.686143 -1.606638 0.990620 0
M  V30 20 N -0.908043 -2.797656 1.732652 0
M  V30 21 C 0.059405 -3.251088 2.687316 0
M  V30 22 C -0.078759 -2.800387 3.972889 0
M  V30 23 Cl -1.328584 -1.730520 4.522984 0
M  V30 24 C 0.838170 -3.214139 4.936733 0
M  V30 25 C 1.872568 -4.069479 4.592419 0
M  V30 26 C 2.015024 -4.528559 3.287629 0
M  V30 27 C 1.099831 -4.113686 2.332626 0
M  V30 28 Cl 1.220007 -4.657765 0.654208 0
M  V30 29 H -3.903990 -3.574198 0.394441 0
M  V30 30 H -2.773919 -2.272147 -1.259810 0
M  V30 31 H -3.772162 -1.228317 -0.146370 0
M  V30 32 H -2.118461 0.363770 -1.386845 0
M  V30 33 H -0.709886 2.221452 -1.867327 0
M  V30 34 H 1.491255 2.419892 -3.203802 0
M  V30 35 H 3.397807 3.904689 -3.376753 0
M  V30 36 H 2.937481 4.893473 0.730583 0
M  V30 37 H 1.603928 0.763882 0.694634 0
M  V30 38 H 1.204132 -1.266795 1.946241 0
M  V30 39 H 0.795413 -2.898726 5.982790 0
M  V30 40 H 2.617431 -4.424206 5.306786 0
M  V30 41 H 2.805835 -5.188919 3.000650 0
M  V30 END ATOM
M  V30 BEGIN BOND
M  V30 1 2 1 2
M  V30 2 1 2 3
M  V30 3 1 3 4
M  V30 4 1 4 5
M  V30 5 2 5 6
M  V30 6 1 6 7
M  V30 7 1 7 8
M  V30 8 1 8 9
M  V30 9 2 9 10
M  V30 10 1 10 11
M  V30 11 2 11 12
M  V30 12 1 12 13
M  V30 13 1 12 14
M  V30 14 2 14 15
M  V30 15 1 15 16
M  V30 16 2 7 17
M  V30 17 1 17 18
M  V30 18 2 18 19
M  V30 19 1 19 20
M  V30 20 1 20 21
M  V30 21 2 21 22
M  V30 22 1 22 23
M  V30 23 1 22 24
M  V30 24 2 24 25
M  V30 25 1 25 26
M  V30 26 2 26 27
M  V30 27 1 27 28
M  V30 28 1 20 2
M  V30 29 1 27 21
M  V30 30 1 19 5
M  V30 31 1 15 9
M  V30 32 1 3 29
M  V30 33 1 4 30
M  V30 34 1 4 31
M  V30 35 1 6 32
M  V30 36 1 8 33
M  V30 37 1 10 34
M  V30 38 1 11 35
M  V30 39 1 14 36
M  V30 40 1 17 37
M  V30 41 1 18 38
M  V30 42 1 24 39
M  V30 43 1 25 40
M  V30 44 1 26 41
M  V30 END BOND
M  V30 END CTAB
M  END
>  <Dataset>  (314) 
ChEMBL_Kinases

>  <Ligand_Instance>  (314) 
nan

>  <PDB_ID>  (314) 
nan

>  <Standardized_SMILES>  (314) 
O=C1NCc2cc(Nc3ccc(F)cc3F)ccc2N1c1c(Cl)cccc1Cl

>  <Name>  (314) 
nan

>  <Pocket>  (314) 
nan

>  <ATP_Site>  (314) 
nan

>  <Peripheral>  (314) 
nan

>  <Num_H_Atoms_ProtBoundConf>  (314) 
nan

>  <Num_Resolved_Atoms>  (314) 
nan

>  <Num_Not_Resolved_Atoms>  (314) 
nan

$$$$
CHEMBL1201303
     RDKit          3D

  0  0  0  0  0  0  0  0  0  0999 V3000
M  V30 BEGIN CTAB
M  V30 COUNTS 57 60 0 0 0
M  V30 BEGIN ATOM
M  V30 1 C -0.696996 -6.817744 2.396105 0
M  V30 2 C -0.722632 -5.526211 1.669585 0
M  V30 3 C -0.158468 -4.367977 2.140381 0
M  V30 4 C -0.403491 -3.397365 1.163967 0
M  V30 5 C 0.046081 -2.025175 1.304058 0
M  V30 6 C -0.042873 -0.942801 0.560720 0
M  V30 7 C 0.463871 0.392981 0.830319 0
M  V30 8 C 1.144772 0.697803 1.987468 0
M  V30 9 C 1.637453 1.968016 2.268556 0
M  V30 10 C 1.398475 2.940355 1.290707 0
M  V30 11 C 1.877573 4.206372 1.550141 0
M  V30 12 C 1.671086 5.204729 0.624074 0
M  V30 13 N 2.156496 6.507280 0.876374 0
M  V30 14 C 2.869832 6.813015 2.095461 0
M  V30 15 C 1.936340 7.557009 -0.103164 0
M  V30 16 C 0.992195 4.917220 -0.537956 0
M  V30 17 C 0.547089 3.625195 -0.717953 0
M  V30 18 C 0.710462 2.570622 0.154095 0
M  V30 19 N 0.238077 1.331407 -0.104529 0 CHG=1 VAL=4
M  V30 20 C -0.434152 1.218497 -1.353039 0
M  V30 21 C -1.101052 -4.040523 0.168772 0
M  V30 22 C -1.594050 -3.453559 -1.077578 0
M  V30 23 N -1.298178 -5.355939 0.481212 0
M  V30 24 C -1.976708 -6.330183 -0.304813 0
M  V30 25 C -3.082725 -7.034523 0.124575 0
M  V30 26 C -3.732342 -7.976663 -0.645933 0
M  V30 27 C -3.233344 -8.221765 -1.929014 0
M  V30 28 C -2.129924 -7.558348 -2.433402 0
M  V30 29 C -1.553972 -6.636538 -1.582864 0
M  V30 30 H -1.227925 -6.618059 3.365635 0
M  V30 31 H -1.324603 -7.585757 1.898907 0
M  V30 32 H 0.325917 -7.135991 2.635837 0
M  V30 33 H 0.365217 -4.272279 3.090387 0
M  V30 34 H 0.588441 -1.760014 2.208179 0
M  V30 35 H -0.578062 -1.181629 -0.342152 0
M  V30 36 H 1.346334 -0.013014 2.754387 0
M  V30 37 H 2.165258 2.204406 3.165427 0
M  V30 38 H 2.405979 4.403633 2.468622 0
M  V30 39 H 2.857148 7.924688 2.293555 0
M  V30 40 H 3.945859 6.518232 2.053534 0
M  V30 41 H 2.405521 6.374416 2.994333 0
M  V30 42 H 2.532989 7.325791 -1.008332 0
M  V30 43 H 0.867942 7.591704 -0.438081 0
M  V30 44 H 2.206317 8.549844 0.277980 0
M  V30 45 H 0.847245 5.705766 -1.234144 0
M  V30 46 H 0.021674 3.497998 -1.664623 0
M  V30 47 H 0.304095 1.555621 -2.142879 0
M  V30 48 H -1.271885 1.944419 -1.454987 0
M  V30 49 H -0.749437 0.228992 -1.645243 0
M  V30 50 H -2.319269 -2.636127 -0.887544 0
M  V30 51 H -2.217128 -4.205793 -1.659680 0
M  V30 52 H -0.805898 -3.038615 -1.747200 0
M  V30 53 H -3.468751 -6.845013 1.116882 0
M  V30 54 H -4.591321 -8.525643 -0.316135 0
M  V30 55 H -3.689906 -8.952803 -2.603825 0
M  V30 56 H -1.733672 -7.737656 -3.422533 0
M  V30 57 H -0.674962 -6.096055 -1.961542 0
M  V30 END ATOM
M  V30 BEGIN BOND
M  V30 1 1 1 2
M  V30 2 2 2 3
M  V30 3 1 3 4
M  V30 4 1 4 5
M  V30 5 2 5 6
M  V30 6 1 6 7
M  V30 7 2 7 8
M  V30 8 1 8 9
M  V30 9 2 9 10
M  V30 10 1 10 11
M  V30 11 2 11 12
M  V30 12 1 12 13
M  V30 13 1 13 14
M  V30 14 1 13 15
M  V30 15 1 12 16
M  V30 16 2 16 17
M  V30 17 1 17 18
M  V30 18 2 18 19
M  V30 19 1 19 20
M  V30 20 2 4 21
M  V30 21 1 21 22
M  V30 22 1 21 23
M  V30 23 1 23 24
M  V30 24 2 24 25
M  V30 25 1 25 26
M  V30 26 2 26 27
M  V30 27 1 27 28
M  V30 28 2 28 29
M  V30 29 1 23 2
M  V30 30 1 29 24
M  V30 31 1 19 7
M  V30 32 1 18 10
M  V30 33 1 1 30
M  V30 34 1 1 31
M  V30 35 1 1 32
M  V30 36 1 3 33
M  V30 37 1 5 34
M  V30 38 1 6 35
M  V30 39 1 8 36
M  V30 40 1 9 37
M  V30 41 1 11 38
M  V30 42 1 14 39
M  V30 43 1 14 40
M  V30 44 1 14 41
M  V30 45 1 15 42
M  V30 46 1 15 43
M  V30 47 1 15 44
M  V30 48 1 16 45
M  V30 49 1 17 46
M  V30 50 1 20 47
M  V30 51 1 20 48
M  V30 52 1 20 49
M  V30 53 1 22 50
M  V30 54 1 22 51
M  V30 55 1 22 52
M  V30 56 1 25 53
M  V30 57 1 26 54
M  V30 58 1 27 55
M  V30 59 1 28 56
M  V30 60 1 29 57
M  V30 END BOND
M  V30 END CTAB
M  END
>  <Dataset>  (315) 
ChEMBL_Kinases

>  <Ligand_Instance>  (315) 
nan

>  <PDB_ID>  (315) 
nan

>  <Standardized_SMILES>  (315) 
Cc1cc(/C=C/c2ccc3cc(N(C)C)ccc3[n+]2C)c(C)n1-c1ccccc1

>  <Name>  (315) 
PYRVINIUM

>  <Pocket>  (315) 
nan

>  <ATP_Site>  (315) 
nan

>  <Peripheral>  (315) 
nan

>  <Num_H_Atoms_ProtBoundConf>  (315) 
nan

>  <Num_Resolved_Atoms>  (315) 
nan

>  <Num_Not_Resolved_Atoms>  (315) 
nan

$$$$
CHEMBL1201236
     RDKit          3D

  0  0  0  0  0  0  0  0  0  0999 V3000
M  V30 BEGIN CTAB
M  V30 COUNTS 30 30 0 0 0
M  V30 BEGIN ATOM
M  V30 1 C -2.322636 -0.017085 2.897784 0
M  V30 2 C -0.942774 -0.096537 2.201284 0 CFG=1
M  V30 3 C -1.170524 -0.956086 1.007546 0
M  V30 4 C -0.014074 -1.211200 0.143484 0
M  V30 5 C 0.758460 -2.325567 0.490313 0
M  V30 6 C 1.866171 -2.668027 -0.258466 0
M  V30 7 C 2.261211 -1.945515 -1.363973 0
M  V30 8 O 3.370334 -2.258362 -2.143551 0
M  V30 9 C 1.512947 -0.847921 -1.718096 0
M  V30 10 O 1.791171 -0.016380 -2.817063 0
M  V30 11 C 0.417079 -0.518363 -0.968098 0
M  V30 12 N -0.628608 1.281973 1.906315 0
M  V30 13 N 0.588392 1.527280 1.350355 0
M  V30 14 C 0.028442 -0.616719 3.178199 0
M  V30 15 O 0.083080 -1.785244 3.693882 0
M  V30 16 O 1.051042 0.179138 3.663464 0
M  V30 17 H -2.500496 -0.977499 3.406628 0
M  V30 18 H -2.407706 0.875442 3.518387 0
M  V30 19 H -3.077770 0.072767 2.086853 0
M  V30 20 H -1.680816 -1.921911 1.280924 0
M  V30 21 H -1.956822 -0.426472 0.390152 0
M  V30 22 H 0.623269 -3.014860 1.305306 0
M  V30 23 H 2.524756 -3.520092 -0.059929 0
M  V30 24 H 3.231617 -3.036144 -2.795968 0
M  V30 25 H 1.604124 -0.432070 -3.726758 0
M  V30 26 H -0.199604 0.338970 -1.213064 0
M  V30 27 H -1.411692 1.670176 1.325685 0
M  V30 28 H 1.320632 0.828831 1.406092 0
M  V30 29 H 0.541396 1.984067 0.445378 0
M  V30 30 H 1.942274 -0.183730 3.949841 0
M  V30 END ATOM
M  V30 BEGIN BOND
M  V30 1 1 1 2
M  V30 2 1 2 3
M  V30 3 1 3 4
M  V30 4 2 4 5
M  V30 5 1 5 6
M  V30 6 2 6 7
M  V30 7 1 7 8
M  V30 8 1 7 9
M  V30 9 1 9 10
M  V30 10 2 9 11
M  V30 11 1 2 12 CFG=3
M  V30 12 1 12 13
M  V30 13 1 2 14
M  V30 14 2 14 15
M  V30 15 1 14 16
M  V30 16 1 11 4
M  V30 17 1 1 17
M  V30 18 1 1 18
M  V30 19 1 1 19
M  V30 20 1 3 20
M  V30 21 1 3 21
M  V30 22 1 5 22
M  V30 23 1 6 23
M  V30 24 1 8 24
M  V30 25 1 10 25
M  V30 26 1 11 26
M  V30 27 1 12 27
M  V30 28 1 13 28
M  V30 29 1 13 29
M  V30 30 1 16 30
M  V30 END BOND
M  V30 END CTAB
M  END
>  <Dataset>  (316) 
ChEMBL_Kinases

>  <Ligand_Instance>  (316) 
nan

>  <PDB_ID>  (316) 
nan

>  <Standardized_SMILES>  (316) 
C[C@@](Cc1ccc(O)c(O)c1)(NN)C(=O)O

>  <Name>  (316) 
CARBIDOPA ANHYDROUS

>  <Pocket>  (316) 
nan

>  <ATP_Site>  (316) 
nan

>  <Peripheral>  (316) 
nan

>  <Num_H_Atoms_ProtBoundConf>  (316) 
nan

>  <Num_Resolved_Atoms>  (316) 
nan

>  <Num_Not_Resolved_Atoms>  (316) 
nan

$$$$
CHEMBL1201171
     RDKit          3D

  0  0  0  0  0  0  0  0  0  0999 V3000
M  V30 BEGIN CTAB
M  V30 COUNTS 48 49 0 0 0
M  V30 BEGIN ATOM
M  V30 1 C -1.468921 -7.518962 0.579910 0
M  V30 2 C -1.084004 -7.013888 -0.780158 0
M  V30 3 C -0.342668 -5.696745 -0.651142 0
M  V30 4 C 0.052177 -5.175698 -1.987630 0
M  V30 5 O 0.731154 -3.975551 -1.931077 0
M  V30 6 C 0.335470 -2.747948 -1.474215 0
M  V30 7 C 1.437593 -1.894936 -1.640305 0
M  V30 8 C 1.366471 -0.548865 -1.267855 0
M  V30 9 C 0.216547 -0.021216 -0.728217 0
M  V30 10 O -0.150437 1.207265 -0.279757 0
M  V30 11 C 0.545346 2.391313 -0.199663 0
M  V30 12 C 1.752790 2.416271 0.677998 0
M  V30 13 C 1.354753 2.086648 2.122706 0
M  V30 14 N 0.421064 3.070776 2.554057 0
M  V30 15 C 0.926741 4.391132 2.733924 0
M  V30 16 C -0.181653 5.208722 3.394647 0
M  V30 17 O -1.440025 4.736356 3.068541 0
M  V30 18 C -1.686843 3.459463 3.550620 0
M  V30 19 C -0.373094 2.706568 3.699365 0
M  V30 20 C -0.877943 -0.882773 -0.567585 0
M  V30 21 C -0.811853 -2.211690 -0.934180 0
M  V30 22 H -2.306608 -8.248564 0.461380 0
M  V30 23 H -0.553501 -7.998293 1.012197 0
M  V30 24 H -1.749214 -6.671613 1.238994 0
M  V30 25 H -1.978875 -6.878090 -1.414483 0
M  V30 26 H -0.426418 -7.742134 -1.311565 0
M  V30 27 H 0.603327 -5.898691 -0.090465 0
M  V30 28 H -0.954481 -5.036070 -0.056269 0
M  V30 29 H 0.726646 -5.934487 -2.452646 0
M  V30 30 H -0.854839 -5.141813 -2.645162 0
M  V30 31 H 2.431589 -2.082872 -2.037129 0
M  V30 32 H 2.142177 0.187595 -1.359371 0
M  V30 33 H 0.780892 2.729032 -1.243814 0
M  V30 34 H -0.154632 3.170397 0.181480 0
M  V30 35 H 2.190432 3.446346 0.675224 0
M  V30 36 H 2.524808 1.744187 0.317858 0
M  V30 37 H 2.264469 2.078971 2.759584 0
M  V30 38 H 0.865138 1.109974 2.088195 0
M  V30 39 H 1.776315 4.323314 3.459416 0
M  V30 40 H 1.284172 4.851784 1.817361 0
M  V30 41 H -0.102363 6.228173 2.966081 0
M  V30 42 H -0.034345 5.233209 4.504904 0
M  V30 43 H -2.207819 3.410079 4.505097 0
M  V30 44 H -2.357316 2.957228 2.795647 0
M  V30 45 H 0.101163 3.032566 4.646616 0
M  V30 46 H -0.539009 1.611987 3.771287 0
M  V30 47 H -1.864334 -0.680056 -0.169445 0
M  V30 48 H -1.586013 -2.955617 -0.866232 0
M  V30 END ATOM
M  V30 BEGIN BOND
M  V30 1 1 1 2
M  V30 2 1 2 3
M  V30 3 1 3 4
M  V30 4 1 4 5
M  V30 5 1 5 6
M  V30 6 2 6 7
M  V30 7 1 7 8
M  V30 8 2 8 9
M  V30 9 1 9 10
M  V30 10 1 10 11
M  V30 11 1 11 12
M  V30 12 1 12 13
M  V30 13 1 13 14
M  V30 14 1 14 15
M  V30 15 1 15 16
M  V30 16 1 16 17
M  V30 17 1 17 18
M  V30 18 1 18 19
M  V30 19 1 9 20
M  V30 20 2 20 21
M  V30 21 1 21 6
M  V30 22 1 19 14
M  V30 23 1 1 22
M  V30 24 1 1 23
M  V30 25 1 1 24
M  V30 26 1 2 25
M  V30 27 1 2 26
M  V30 28 1 3 27
M  V30 29 1 3 28
M  V30 30 1 4 29
M  V30 31 1 4 30
M  V30 32 1 7 31
M  V30 33 1 8 32
M  V30 34 1 11 33
M  V30 35 1 11 34
M  V30 36 1 12 35
M  V30 37 1 12 36
M  V30 38 1 13 37
M  V30 39 1 13 38
M  V30 40 1 15 39
M  V30 41 1 15 40
M  V30 42 1 16 41
M  V30 43 1 16 42
M  V30 44 1 18 43
M  V30 45 1 18 44
M  V30 46 1 19 45
M  V30 47 1 19 46
M  V30 48 1 20 47
M  V30 49 1 21 48
M  V30 END BOND
M  V30 END CTAB
M  END
>  <Dataset>  (317) 
ChEMBL_Kinases

>  <Ligand_Instance>  (317) 
nan

>  <PDB_ID>  (317) 
nan

>  <Standardized_SMILES>  (317) 
CCCCOc1ccc(OCCCN2CCOCC2)cc1

>  <Name>  (317) 
PRAMOXINE HYDROCHLORIDE

>  <Pocket>  (317) 
nan

>  <ATP_Site>  (317) 
nan

>  <Peripheral>  (317) 
nan

>  <Num_H_Atoms_ProtBoundConf>  (317) 
nan

>  <Num_Resolved_Atoms>  (317) 
nan

>  <Num_Not_Resolved_Atoms>  (317) 
nan

$$$$
CHEMBL1201103
     RDKit          3D

  0  0  0  0  0  0  0  0  0  0999 V3000
M  V30 BEGIN CTAB
M  V30 COUNTS 32 32 0 0 0
M  V30 BEGIN ATOM
M  V30 1 C -0.202147 -2.503406 5.021732 0
M  V30 2 O -0.625198 -2.476894 3.666404 0
M  V30 3 C 0.054404 -1.730647 2.718239 0
M  V30 4 C 1.182447 -0.948823 2.954289 0
M  V30 5 C 1.788455 -0.239837 1.936235 0
M  V30 6 C 1.250013 -0.319177 0.659305 0
M  V30 7 O 1.833991 0.384907 -0.404192 0
M  V30 8 C 2.982924 1.179917 -0.158925 0
M  V30 9 C 0.118422 -1.085644 0.351897 0
M  V30 10 C -0.397499 -1.135000 -0.979158 0
M  V30 11 O -0.860215 -2.453101 -1.210646 0
M  V30 12 C -1.395797 -0.230875 -1.510393 0
M  V30 13 C -0.927260 1.200215 -1.790581 0
M  V30 14 N -2.724118 -0.275144 -0.986713 0
M  V30 15 C -0.435831 -1.769556 1.423618 0
M  V30 16 H -0.626382 -3.383541 5.536685 0
M  V30 17 H -0.379703 -1.547434 5.545508 0
M  V30 18 H 0.909998 -2.674423 5.013897 0
M  V30 19 H 1.514470 -0.958212 3.972387 0
M  V30 20 H 2.647484 0.346646 2.151350 0
M  V30 21 H 3.893597 0.562948 -0.047825 0
M  V30 22 H 2.813582 1.810633 0.737069 0
M  V30 23 H 3.061024 1.902919 -1.022613 0
M  V30 24 H 0.491333 -1.071573 -1.677811 0
M  V30 25 H -0.177287 -3.101952 -0.904942 0
M  V30 26 H -1.565515 -0.584739 -2.578596 0
M  V30 27 H -1.763299 1.687357 -2.375440 0
M  V30 28 H -0.068119 1.242629 -2.447063 0
M  V30 29 H -0.878946 1.735084 -0.843874 0
M  V30 30 H -3.259099 -1.124542 -1.305785 0
M  V30 31 H -3.244848 0.577590 -1.209555 0
M  V30 32 H -1.312993 -2.360625 1.172872 0
M  V30 END ATOM
M  V30 BEGIN BOND
M  V30 1 1 1 2
M  V30 2 1 2 3
M  V30 3 2 3 4
M  V30 4 1 4 5
M  V30 5 2 5 6
M  V30 6 1 6 7
M  V30 7 1 7 8
M  V30 8 1 6 9
M  V30 9 1 9 10
M  V30 10 1 10 11
M  V30 11 1 10 12
M  V30 12 1 12 13
M  V30 13 1 12 14
M  V30 14 2 9 15
M  V30 15 1 15 3
M  V30 16 1 1 16
M  V30 17 1 1 17
M  V30 18 1 1 18
M  V30 19 1 4 19
M  V30 20 1 5 20
M  V30 21 1 8 21
M  V30 22 1 8 22
M  V30 23 1 8 23
M  V30 24 1 10 24
M  V30 25 1 11 25
M  V30 26 1 12 26
M  V30 27 1 13 27
M  V30 28 1 13 28
M  V30 29 1 13 29
M  V30 30 1 14 30
M  V30 31 1 14 31
M  V30 32 1 15 32
M  V30 END BOND
M  V30 END CTAB
M  END
>  <Dataset>  (318) 
ChEMBL_Kinases

>  <Ligand_Instance>  (318) 
nan

>  <PDB_ID>  (318) 
nan

>  <Standardized_SMILES>  (318) 
COc1ccc(OC)c(C(O)C(C)N)c1

>  <Name>  (318) 
METHOXAMINE HYDROCHLORIDE

>  <Pocket>  (318) 
nan

>  <ATP_Site>  (318) 
nan

>  <Peripheral>  (318) 
nan

>  <Num_H_Atoms_ProtBoundConf>  (318) 
nan

>  <Num_Resolved_Atoms>  (318) 
nan

>  <Num_Not_Resolved_Atoms>  (318) 
nan

$$$$
CHEMBL1200970
     RDKit          3D

  0  0  0  0  0  0  0  0  0  0999 V3000
M  V30 BEGIN CTAB
M  V30 COUNTS 46 48 0 0 0
M  V30 BEGIN ATOM
M  V30 1 C -0.427723 -4.287525 0.328487 0
M  V30 2 C 0.879989 -3.642478 0.101383 0
M  V30 3 N 0.883661 -2.168368 0.262808 0
M  V30 4 C 0.057766 -1.734298 -0.840013 0
M  V30 5 C 0.758523 -1.984444 -2.158507 0
M  V30 6 C 0.485586 -1.868180 1.565148 0
M  V30 7 C 1.341664 -2.832829 2.462336 0
M  V30 8 C 0.764049 -0.554719 2.192735 0
M  V30 9 N 0.269804 0.650371 1.606037 0
M  V30 10 C 1.031528 1.296514 0.589958 0
M  V30 11 C 2.241806 0.776882 0.179256 0
M  V30 12 C 3.046690 1.339352 -0.798729 0
M  V30 13 C 2.639507 2.495625 -1.422222 0
M  V30 14 C 1.422479 3.048787 -1.032696 0
M  V30 15 C 0.700004 2.440034 -0.074189 0
M  V30 16 S -0.824620 3.275683 0.314510 0
M  V30 17 C -1.567792 2.294202 1.571608 0
M  V30 18 C -2.765037 2.777477 1.993801 0
M  V30 19 C -3.487616 2.111213 2.984418 0
M  V30 20 C -2.909771 0.947355 3.495274 0
M  V30 21 C -1.689331 0.520550 3.014341 0
M  V30 22 C -0.965499 1.170733 2.035841 0
M  V30 23 H -1.285016 -3.665610 0.563973 0
M  V30 24 H -0.435444 -5.106523 1.108650 0
M  V30 25 H -0.712684 -4.877122 -0.603192 0
M  V30 26 H 1.247765 -3.873227 -0.945080 0
M  V30 27 H 1.645019 -4.124859 0.743567 0
M  V30 28 H -0.251231 -0.688553 -0.843287 0
M  V30 29 H -0.889966 -2.319963 -0.904747 0
M  V30 30 H 0.371000 -1.243359 -2.907978 0
M  V30 31 H 0.517450 -2.967072 -2.610616 0
M  V30 32 H 1.847100 -1.792992 -2.110112 0
M  V30 33 H -0.538341 -2.251163 1.753993 0
M  V30 34 H 1.394254 -2.407274 3.499634 0
M  V30 35 H 0.868289 -3.798126 2.579424 0
M  V30 36 H 2.384640 -2.818669 2.107133 0
M  V30 37 H 0.478346 -0.683714 3.285414 0
M  V30 38 H 1.903129 -0.475910 2.350671 0
M  V30 39 H 2.679891 -0.109454 0.576777 0
M  V30 40 H 3.995790 0.934721 -1.123119 0
M  V30 41 H 3.245375 2.954651 -2.185821 0
M  V30 42 H 1.150900 3.956611 -1.554231 0
M  V30 43 H -3.264483 3.683830 1.628113 0
M  V30 44 H -4.440625 2.468387 3.342101 0
M  V30 45 H -3.503745 0.460608 4.263066 0
M  V30 46 H -1.404788 -0.373624 3.501981 0
M  V30 END ATOM
M  V30 BEGIN BOND
M  V30 1 1 1 2
M  V30 2 1 2 3
M  V30 3 1 3 4
M  V30 4 1 4 5
M  V30 5 1 3 6
M  V30 6 1 6 7
M  V30 7 1 6 8
M  V30 8 1 8 9
M  V30 9 1 9 10
M  V30 10 2 10 11
M  V30 11 1 11 12
M  V30 12 2 12 13
M  V30 13 1 13 14
M  V30 14 2 14 15
M  V30 15 1 15 16
M  V30 16 1 16 17
M  V30 17 2 17 18
M  V30 18 1 18 19
M  V30 19 2 19 20
M  V30 20 1 20 21
M  V30 21 2 21 22
M  V30 22 1 22 9
M  V30 23 1 15 10
M  V30 24 1 22 17
M  V30 25 1 1 23
M  V30 26 1 1 24
M  V30 27 1 1 25
M  V30 28 1 2 26
M  V30 29 1 2 27
M  V30 30 1 4 28
M  V30 31 1 4 29
M  V30 32 1 5 30
M  V30 33 1 5 31
M  V30 34 1 5 32
M  V30 35 1 6 33
M  V30 36 1 7 34
M  V30 37 1 7 35
M  V30 38 1 7 36
M  V30 39 1 8 37
M  V30 40 1 8 38
M  V30 41 1 11 39
M  V30 42 1 12 40
M  V30 43 1 13 41
M  V30 44 1 14 42
M  V30 45 1 18 43
M  V30 46 1 19 44
M  V30 47 1 20 45
M  V30 48 1 21 46
M  V30 END BOND
M  V30 END CTAB
M  END
>  <Dataset>  (319) 
ChEMBL_Kinases

>  <Ligand_Instance>  (319) 
nan

>  <PDB_ID>  (319) 
nan

>  <Standardized_SMILES>  (319) 
CCN(CC)C(C)CN1c2ccccc2Sc2ccccc21

>  <Name>  (319) 
ETHOPROPAZINE HYDROCHLORIDE

>  <Pocket>  (319) 
nan

>  <ATP_Site>  (319) 
nan

>  <Peripheral>  (319) 
nan

>  <Num_H_Atoms_ProtBoundConf>  (319) 
nan

>  <Num_Resolved_Atoms>  (319) 
nan

>  <Num_Not_Resolved_Atoms>  (319) 
nan

$$$$
CHEMBL1200911
     RDKit          3D

  0  0  0  0  0  0  0  0  0  0999 V3000
M  V30 BEGIN CTAB
M  V30 COUNTS 52 55 0 0 0
M  V30 BEGIN ATOM
M  V30 1 O 2.916741 -2.403285 4.929676 0
M  V30 2 C 2.501553 -3.649136 4.546575 0
M  V30 3 C 1.539408 -3.693972 3.395511 0
M  V30 4 O 1.971272 -3.183044 2.210404 0
M  V30 5 C 2.365526 -1.886496 2.149652 0
M  V30 6 C 2.757993 -1.442491 0.762064 0
M  V30 7 N 1.683957 -1.540974 -0.136479 0
M  V30 8 C 1.963016 -0.852896 -1.420069 0
M  V30 9 C 0.613432 -0.931028 -2.155864 0
M  V30 10 N -0.400718 -1.247979 -1.134885 0
M  V30 11 C -1.194167 -0.171352 -0.656187 0
M  V30 12 N -0.339108 0.629110 -0.121829 0
M  V30 13 C -0.417639 1.861436 0.531286 0
M  V30 14 C 0.787455 2.444483 0.893017 0
M  V30 15 C 0.938873 3.635703 1.540092 0
M  V30 16 C -0.201854 4.350633 1.880486 0
M  V30 17 C -1.437896 3.809499 1.540399 0
M  V30 18 C -1.531926 2.582050 0.875231 0
M  V30 19 S -3.257403 2.313401 0.664091 0
M  V30 20 C -3.539932 0.849458 -0.295876 0
M  V30 21 C -4.866684 0.625424 -0.592329 0
M  V30 22 C -5.363615 -0.448147 -1.330383 0
M  V30 23 C -4.384770 -1.325197 -1.772279 0
M  V30 24 C -3.023094 -1.158374 -1.507193 0
M  V30 25 C -2.621996 -0.052910 -0.760530 0
M  V30 26 C -0.269522 -2.688418 -0.857484 0
M  V30 27 C 1.222322 -2.863505 -0.507773 0
M  V30 28 H 2.123667 -1.867253 5.145977 0
M  V30 29 H 1.971710 -4.129876 5.423539 0
M  V30 30 H 3.359458 -4.338311 4.351910 0
M  V30 31 H 1.264481 -4.792390 3.296276 0
M  V30 32 H 0.560266 -3.224371 3.695130 0
M  V30 33 H 3.201141 -1.638227 2.860605 0
M  V30 34 H 1.462052 -1.252804 2.403513 0
M  V30 35 H 3.248788 -0.442758 0.783379 0
M  V30 36 H 3.618780 -2.133640 0.480136 0
M  V30 37 H 2.191327 0.193967 -1.147962 0
M  V30 38 H 2.760180 -1.347338 -1.993554 0
M  V30 39 H 0.441918 0.098497 -2.563163 0
M  V30 40 H 0.689084 -1.666342 -2.947615 0
M  V30 41 H 1.666858 1.870882 0.620377 0
M  V30 42 H 1.945347 3.958552 1.754341 0
M  V30 43 H -0.026295 5.274177 2.387830 0
M  V30 44 H -2.278366 4.416269 1.834146 0
M  V30 45 H -5.583995 1.341617 -0.221589 0
M  V30 46 H -6.406581 -0.570749 -1.526604 0
M  V30 47 H -4.746678 -2.169144 -2.348825 0
M  V30 48 H -2.348010 -1.902567 -1.900825 0
M  V30 49 H -0.899490 -3.008807 -0.014145 0
M  V30 50 H -0.436676 -3.309658 -1.756870 0
M  V30 51 H 1.424084 -3.662070 0.174458 0
M  V30 52 H 1.750066 -3.156191 -1.476100 0
M  V30 END ATOM
M  V30 BEGIN BOND
M  V30 1 1 1 2
M  V30 2 1 2 3
M  V30 3 1 3 4
M  V30 4 1 4 5
M  V30 5 1 5 6
M  V30 6 1 6 7
M  V30 7 1 7 8
M  V30 8 1 8 9
M  V30 9 1 9 10
M  V30 10 1 10 11
M  V30 11 2 11 12
M  V30 12 1 12 13
M  V30 13 2 13 14
M  V30 14 1 14 15
M  V30 15 2 15 16
M  V30 16 1 16 17
M  V30 17 2 17 18
M  V30 18 1 18 19
M  V30 19 1 19 20
M  V30 20 2 20 21
M  V30 21 1 21 22
M  V30 22 2 22 23
M  V30 23 1 23 24
M  V30 24 2 24 25
M  V30 25 1 10 26
M  V30 26 1 26 27
M  V30 27 1 27 7
M  V30 28 1 25 11
M  V30 29 1 18 13
M  V30 30 1 25 20
M  V30 31 1 1 28
M  V30 32 1 2 29
M  V30 33 1 2 30
M  V30 34 1 3 31
M  V30 35 1 3 32
M  V30 36 1 5 33
M  V30 37 1 5 34
M  V30 38 1 6 35
M  V30 39 1 6 36
M  V30 40 1 8 37
M  V30 41 1 8 38
M  V30 42 1 9 39
M  V30 43 1 9 40
M  V30 44 1 14 41
M  V30 45 1 15 42
M  V30 46 1 16 43
M  V30 47 1 17 44
M  V30 48 1 21 45
M  V30 49 1 22 46
M  V30 50 1 23 47
M  V30 51 1 24 48
M  V30 52 1 26 49
M  V30 53 1 26 50
M  V30 54 1 27 51
M  V30 55 1 27 52
M  V30 END BOND
M  V30 END CTAB
M  END
>  <Dataset>  (320) 
ChEMBL_Kinases

>  <Ligand_Instance>  (320) 
nan

>  <PDB_ID>  (320) 
nan

>  <Standardized_SMILES>  (320) 
OCCOCCN1CCN(C2=Nc3ccccc3Sc3ccccc32)CC1

>  <Name>  (320) 
QUETIAPINE FUMARATE

>  <Pocket>  (320) 
nan

>  <ATP_Site>  (320) 
nan

>  <Peripheral>  (320) 
nan

>  <Num_H_Atoms_ProtBoundConf>  (320) 
nan

>  <Num_Resolved_Atoms>  (320) 
nan

>  <Num_Not_Resolved_Atoms>  (320) 
nan

$$$$
CHEMBL116438
     RDKit          3D

  0  0  0  0  0  0  0  0  0  0999 V3000
M  V30 BEGIN CTAB
M  V30 COUNTS 47 48 0 0 0
M  V30 BEGIN ATOM
M  V30 1 C -1.683447 -6.456356 0.483605 0
M  V30 2 O -1.261177 -6.890099 -0.783349 0
M  V30 3 C -0.609938 -6.002487 -1.621084 0
M  V30 4 C -0.377868 -4.708090 -1.219247 0
M  V30 5 C 0.272292 -3.828196 -2.059678 0
M  V30 6 C 0.527746 -2.453910 -1.654751 0
M  V30 7 C 1.137020 -1.509445 -2.354036 0
M  V30 8 C 1.375593 -0.138410 -1.913682 0
M  V30 9 O 1.967153 0.675910 -2.664242 0
M  V30 10 C 0.944426 0.337897 -0.604485 0
M  V30 11 C 1.157799 1.576221 -0.201068 0
M  V30 12 O 1.818424 2.448241 -1.064281 0
M  V30 13 C 0.729787 2.064665 1.109020 0
M  V30 14 C 0.964393 3.314195 1.473050 0
M  V30 15 C 0.592337 3.912764 2.735647 0
M  V30 16 C 0.882863 5.234058 3.026409 0
M  V30 17 C 0.532534 5.816810 4.227797 0
M  V30 18 C -0.121164 5.095764 5.179658 0
M  V30 19 O -0.463190 5.712463 6.386688 0
M  V30 20 C -0.438064 3.784620 4.955314 0
M  V30 21 O -1.102535 3.070175 5.936101 0
M  V30 22 C -1.442609 1.697464 5.719918 0
M  V30 23 C -0.069336 3.236679 3.737496 0
M  V30 24 C 0.656656 -4.314754 -3.277192 0
M  V30 25 C 0.440686 -5.620346 -3.723464 0
M  V30 26 C -0.217154 -6.482563 -2.853076 0
M  V30 27 O -0.449306 -7.792637 -3.265978 0
M  V30 28 H -1.990638 -7.298826 1.142728 0
M  V30 29 H -2.556667 -5.779377 0.387502 0
M  V30 30 H -0.805749 -5.953323 0.964119 0
M  V30 31 H -0.682863 -4.320028 -0.251764 0
M  V30 32 H 0.189221 -2.133677 -0.663319 0
M  V30 33 H 1.477544 -1.808909 -3.335240 0
M  V30 34 H 0.429071 -0.268931 0.121535 0
M  V30 35 H 2.846056 2.393921 -1.016228 0
M  V30 36 H 0.217929 1.427176 1.804531 0
M  V30 37 H 1.481896 3.924877 0.746231 0
M  V30 38 H 1.409445 5.861509 2.293002 0
M  V30 39 H 0.765451 6.842219 4.436435 0
M  V30 40 H -1.227816 5.354519 6.966355 0
M  V30 41 H -1.926717 1.572037 4.718372 0
M  V30 42 H -0.485531 1.138499 5.739102 0
M  V30 43 H -2.123745 1.325089 6.490372 0
M  V30 44 H -0.339121 2.197713 3.601571 0
M  V30 45 H 1.170786 -3.703826 -4.002322 0
M  V30 46 H 0.756662 -5.970805 -4.688974 0
M  V30 47 H 0.220949 -8.524763 -3.043505 0
M  V30 END ATOM
M  V30 BEGIN BOND
M  V30 1 1 1 2
M  V30 2 1 2 3
M  V30 3 2 3 4
M  V30 4 1 4 5
M  V30 5 1 5 6
M  V30 6 2 6 7
M  V30 7 1 7 8
M  V30 8 2 8 9
M  V30 9 1 8 10
M  V30 10 2 10 11
M  V30 11 1 11 12
M  V30 12 1 11 13
M  V30 13 2 13 14
M  V30 14 1 14 15
M  V30 15 2 15 16
M  V30 16 1 16 17
M  V30 17 2 17 18
M  V30 18 1 18 19
M  V30 19 1 18 20
M  V30 20 1 20 21
M  V30 21 1 21 22
M  V30 22 2 20 23
M  V30 23 2 5 24
M  V30 24 1 24 25
M  V30 25 2 25 26
M  V30 26 1 26 27
M  V30 27 1 26 3
M  V30 28 1 23 15
M  V30 29 1 1 28
M  V30 30 1 1 29
M  V30 31 1 1 30
M  V30 32 1 4 31
M  V30 33 1 6 32
M  V30 34 1 7 33
M  V30 35 1 10 34
M  V30 36 1 12 35
M  V30 37 1 13 36
M  V30 38 1 14 37
M  V30 39 1 16 38
M  V30 40 1 17 39
M  V30 41 1 19 40
M  V30 42 1 22 41
M  V30 43 1 22 42
M  V30 44 1 22 43
M  V30 45 1 23 44
M  V30 46 1 24 45
M  V30 47 1 25 46
M  V30 48 1 27 47
M  V30 END BOND
M  V30 END CTAB
M  END
>  <Dataset>  (321) 
ChEMBL_Kinases

>  <Ligand_Instance>  (321) 
nan

>  <PDB_ID>  (321) 
nan

>  <Standardized_SMILES>  (321) 
COc1cc(/C=C/C(=O)/C=C(O)/C=C/c2ccc(O)c(OC)c2)ccc1O

>  <Name>  (321) 
CURCUMIN

>  <Pocket>  (321) 
nan

>  <ATP_Site>  (321) 
nan

>  <Peripheral>  (321) 
nan

>  <Num_H_Atoms_ProtBoundConf>  (321) 
nan

>  <Num_Resolved_Atoms>  (321) 
nan

>  <Num_Not_Resolved_Atoms>  (321) 
nan

$$$$
CHEMBL1193011
     RDKit          3D

  0  0  0  0  0  0  0  0  0  0999 V3000
M  V30 BEGIN CTAB
M  V30 COUNTS 37 40 0 0 0
M  V30 BEGIN ATOM
M  V30 1 C 0.871493 -5.347865 3.311622 0
M  V30 2 C 0.784629 -4.660884 4.510360 0
M  V30 3 N 0.632434 -3.326551 4.552546 0
M  V30 4 C 0.556492 -2.588248 3.431888 0
M  V30 5 C 0.639993 -3.244830 2.219366 0
M  V30 6 C 0.559838 -2.462944 0.989730 0
M  V30 7 N 0.407440 -1.126889 1.024645 0
M  V30 8 C 0.326561 -0.348715 -0.053139 0
M  V30 9 N 0.165285 1.060333 0.050949 0
M  V30 10 C 0.090248 1.635168 1.389322 0
M  V30 11 C -0.077799 3.109172 1.373703 0
M  V30 12 C -1.347479 3.688603 1.357852 0
M  V30 13 C -1.176677 5.062194 1.345935 0
M  V30 14 C 0.187219 5.246512 1.355157 0
M  V30 15 O 0.794647 4.079828 1.371346 0
M  V30 16 C 0.411292 -1.016902 -1.255566 0
M  V30 17 C 0.340354 -0.319711 -2.436144 0
M  V30 18 C 0.416425 -0.909660 -3.675965 0
M  V30 19 C 0.573129 -2.278923 -3.783018 0
M  V30 20 C 0.646454 -2.997093 -2.601874 0
M  V30 21 C 0.567644 -2.382652 -1.369037 0
M  V30 22 N 0.638504 -3.077897 -0.211814 0
M  V30 23 C 0.794951 -4.602085 2.155830 0
M  V30 24 H 0.991727 -6.406618 3.350975 0
M  V30 25 H 0.830238 -5.124663 5.503078 0
M  V30 26 H 0.433867 -1.515536 3.504626 0
M  V30 27 H 0.093492 1.737902 -0.706054 0
M  V30 28 H 1.023128 1.377286 1.971970 0
M  V30 29 H -0.721907 1.130655 1.954739 0
M  V30 30 H -2.308454 3.195922 1.354875 0
M  V30 31 H -2.013004 5.770217 1.332340 0
M  V30 32 H 0.623116 6.238431 1.349082 0
M  V30 33 H 0.218733 0.748909 -2.449824 0
M  V30 34 H 0.357904 -0.336941 -4.613630 0
M  V30 35 H 0.633794 -2.750621 -4.753246 0
M  V30 36 H 0.770445 -4.083334 -2.643525 0
M  V30 37 H 0.861493 -5.127995 1.233869 0
M  V30 END ATOM
M  V30 BEGIN BOND
M  V30 1 2 1 2
M  V30 2 1 2 3
M  V30 3 2 3 4
M  V30 4 1 4 5
M  V30 5 1 5 6
M  V30 6 2 6 7
M  V30 7 1 7 8
M  V30 8 1 8 9
M  V30 9 1 9 10
M  V30 10 1 10 11
M  V30 11 2 11 12
M  V30 12 1 12 13
M  V30 13 2 13 14
M  V30 14 1 14 15
M  V30 15 2 8 16
M  V30 16 1 16 17
M  V30 17 2 17 18
M  V30 18 1 18 19
M  V30 19 2 19 20
M  V30 20 1 20 21
M  V30 21 2 21 22
M  V30 22 2 5 23
M  V30 23 1 23 1
M  V30 24 1 22 6
M  V30 25 1 15 11
M  V30 26 1 21 16
M  V30 27 1 1 24
M  V30 28 1 2 25
M  V30 29 1 4 26
M  V30 30 1 9 27
M  V30 31 1 10 28
M  V30 32 1 10 29
M  V30 33 1 12 30
M  V30 34 1 13 31
M  V30 35 1 14 32
M  V30 36 1 17 33
M  V30 37 1 18 34
M  V30 38 1 19 35
M  V30 39 1 20 36
M  V30 40 1 23 37
M  V30 END BOND
M  V30 END CTAB
M  END
>  <Dataset>  (322) 
ChEMBL_Kinases

>  <Ligand_Instance>  (322) 
nan

>  <PDB_ID>  (322) 
nan

>  <Standardized_SMILES>  (322) 
c1cncc(-c2nc(NCc3ccco3)c3ccccc3n2)c1

>  <Name>  (322) 
nan

>  <Pocket>  (322) 
nan

>  <ATP_Site>  (322) 
nan

>  <Peripheral>  (322) 
nan

>  <Num_H_Atoms_ProtBoundConf>  (322) 
nan

>  <Num_Resolved_Atoms>  (322) 
nan

>  <Num_Not_Resolved_Atoms>  (322) 
nan

$$$$
CHEMBL119303
     RDKit          3D

  0  0  0  0  0  0  0  0  0  0999 V3000
M  V30 BEGIN CTAB
M  V30 COUNTS 75 75 0 0 0
M  V30 BEGIN ATOM
M  V30 1 C 1.759393 1.682057 3.796168 0
M  V30 2 C 2.704274 0.843114 4.621991 0
M  V30 3 C 4.103832 0.882597 4.170861 0
M  V30 4 C 4.478000 0.419008 2.821185 0
M  V30 5 C 4.273132 -0.981230 2.436728 0
M  V30 6 C 2.991134 -1.644871 2.373417 0
M  V30 7 C 1.877586 -1.227545 1.531707 0
M  V30 8 C 2.062585 -1.177302 0.045938 0
M  V30 9 C 3.068736 -0.224393 -0.404481 0
M  V30 10 C 2.651035 0.750051 -1.226365 0
M  V30 11 C 1.389067 1.198699 -1.871645 0
M  V30 12 C 1.001948 2.610831 -1.500730 0
M  V30 13 C 0.763395 2.833977 -0.048902 0
M  V30 14 C -0.367266 1.986404 0.504123 0
M  V30 15 C -1.668537 2.254709 -0.164431 0
M  V30 16 C -2.825145 1.447666 0.360291 0
M  V30 17 C -2.555489 -0.000248 0.179481 0
M  V30 18 C -3.668250 -0.868044 0.659326 0
M  V30 19 C -4.275614 -1.689018 -0.181361 0
M  V30 20 C -4.064233 -1.957441 -1.647406 0
M  V30 21 C -4.439324 -3.430713 -1.805338 0 CFG=1
M  V30 22 C -4.765033 -3.733209 -3.240051 0
M  V30 23 O -3.585487 -3.585884 -4.004881 0
M  V30 24 C -3.275041 -4.247479 -1.342901 0
M  V30 25 O -2.168912 -4.121835 -2.217332 0
M  V30 26 C -1.020826 -4.832827 -1.898353 0
M  V30 27 C 0.206306 -4.807626 -2.702007 0
M  V30 28 O -1.075478 -5.528912 -0.849444 0
M  V30 29 O -5.558028 -3.547147 -0.935315 0
M  V30 30 C -5.389212 -2.617877 0.109859 0
M  V30 31 O -6.113301 -2.597711 1.161560 0
M  V30 32 H 2.104419 1.794168 2.747516 0
M  V30 33 H 0.784941 1.155769 3.752827 0
M  V30 34 H 1.541992 2.668557 4.248356 0
M  V30 35 H 2.709345 1.372714 5.638001 0
M  V30 36 H 2.250436 -0.116212 4.846935 0
M  V30 37 H 4.704925 0.284394 4.909577 0
M  V30 38 H 4.465712 1.942895 4.309798 0
M  V30 39 H 5.614999 0.563124 2.784754 0
M  V30 40 H 4.175102 1.152998 2.013457 0
M  V30 41 H 4.864038 -1.566619 3.262397 0
M  V30 42 H 4.973427 -1.209174 1.565944 0
M  V30 43 H 2.640260 -1.896325 3.424026 0
M  V30 44 H 3.235121 -2.723358 2.011217 0
M  V30 45 H 1.369633 -0.284145 1.808668 0
M  V30 46 H 1.047677 -2.003075 1.676923 0
M  V30 47 H 1.050857 -0.993323 -0.378823 0
M  V30 48 H 2.405142 -2.195661 -0.271063 0
M  V30 49 H 4.110370 -0.102639 -0.240506 0
M  V30 50 H 3.344585 1.529482 -1.613378 0
M  V30 51 H 1.512678 1.136580 -2.968642 0
M  V30 52 H 0.544244 0.506386 -1.649904 0
M  V30 53 H 1.803936 3.329740 -1.807622 0
M  V30 54 H 0.136752 2.882529 -2.141372 0
M  V30 55 H 0.593465 3.875340 0.213019 0
M  V30 56 H 1.671982 2.507067 0.497654 0
M  V30 57 H -0.455612 2.229552 1.582367 0
M  V30 58 H -0.145274 0.910935 0.412184 0
M  V30 59 H -1.930643 3.346744 -0.169662 0
M  V30 60 H -1.562125 2.000891 -1.258659 0
M  V30 61 H -3.794692 1.777001 -0.057912 0
M  V30 62 H -2.842339 1.642789 1.474643 0
M  V30 63 H -2.367896 -0.203071 -0.879335 0
M  V30 64 H -1.673906 -0.288638 0.788728 0
M  V30 65 H -3.989140 -0.837172 1.689827 0
M  V30 66 H -4.798121 -1.376197 -2.237698 0
M  V30 67 H -3.034150 -1.775937 -1.973472 0
M  V30 68 H -5.063433 -4.774029 -3.358557 0
M  V30 69 H -5.483522 -3.025094 -3.679294 0
M  V30 70 H -3.135363 -2.737582 -3.839947 0
M  V30 71 H -2.929871 -3.879401 -0.354648 0
M  V30 72 H -3.524193 -5.334150 -1.306043 0
M  V30 73 H 1.101230 -4.828132 -2.016838 0
M  V30 74 H 0.299748 -3.918280 -3.347625 0
M  V30 75 H 0.314131 -5.710356 -3.338661 0
M  V30 END ATOM
M  V30 BEGIN BOND
M  V30 1 1 1 2
M  V30 2 1 2 3
M  V30 3 1 3 4
M  V30 4 1 4 5
M  V30 5 1 5 6
M  V30 6 1 6 7
M  V30 7 1 7 8
M  V30 8 1 8 9
M  V30 9 2 9 10
M  V30 10 1 10 11
M  V30 11 1 11 12
M  V30 12 1 12 13
M  V30 13 1 13 14
M  V30 14 1 14 15
M  V30 15 1 15 16
M  V30 16 1 16 17
M  V30 17 1 17 18
M  V30 18 2 18 19
M  V30 19 1 19 20
M  V30 20 1 20 21
M  V30 21 1 21 22 CFG=3
M  V30 22 1 22 23
M  V30 23 1 21 24
M  V30 24 1 24 25
M  V30 25 1 25 26
M  V30 26 1 26 27
M  V30 27 2 26 28
M  V30 28 1 21 29
M  V30 29 1 29 30
M  V30 30 2 30 31
M  V30 31 1 30 19
M  V30 32 1 1 32
M  V30 33 1 1 33
M  V30 34 1 1 34
M  V30 35 1 2 35
M  V30 36 1 2 36
M  V30 37 1 3 37
M  V30 38 1 3 38
M  V30 39 1 4 39
M  V30 40 1 4 40
M  V30 41 1 5 41
M  V30 42 1 5 42
M  V30 43 1 6 43
M  V30 44 1 6 44
M  V30 45 1 7 45
M  V30 46 1 7 46
M  V30 47 1 8 47
M  V30 48 1 8 48
M  V30 49 1 9 49
M  V30 50 1 10 50
M  V30 51 1 11 51
M  V30 52 1 11 52
M  V30 53 1 12 53
M  V30 54 1 12 54
M  V30 55 1 13 55
M  V30 56 1 13 56
M  V30 57 1 14 57
M  V30 58 1 14 58
M  V30 59 1 15 59
M  V30 60 1 15 60
M  V30 61 1 16 61
M  V30 62 1 16 62
M  V30 63 1 17 63
M  V30 64 1 17 64
M  V30 65 1 18 65
M  V30 66 1 20 66
M  V30 67 1 20 67
M  V30 68 1 22 68
M  V30 69 1 22 69
M  V30 70 1 23 70
M  V30 71 1 24 71
M  V30 72 1 24 72
M  V30 73 1 27 73
M  V30 74 1 27 74
M  V30 75 1 27 75
M  V30 END BOND
M  V30 END CTAB
M  END
>  <Dataset>  (323) 
ChEMBL_Kinases

>  <Ligand_Instance>  (323) 
nan

>  <PDB_ID>  (323) 
nan

>  <Standardized_SMILES>  (323) 
CCCCCCCC/C=C\CCCCCCC/C=C1\C[C@@](CO)(COC(C)=O)OC1=O

>  <Name>  (323) 
nan

>  <Pocket>  (323) 
nan

>  <ATP_Site>  (323) 
nan

>  <Peripheral>  (323) 
nan

>  <Num_H_Atoms_ProtBoundConf>  (323) 
nan

>  <Num_Resolved_Atoms>  (323) 
nan

>  <Num_Not_Resolved_Atoms>  (323) 
nan

$$$$
CHEMBL1194023
     RDKit          3D

  0  0  0  0  0  0  0  0  0  0999 V3000
M  V30 BEGIN CTAB
M  V30 COUNTS 39 42 0 0 0
M  V30 BEGIN ATOM
M  V30 1 C 2.890836 -3.654183 4.628548 0
M  V30 2 C 3.528113 -4.709147 3.982185 0
M  V30 3 N 3.575673 -4.725653 2.642130 0
M  V30 4 C 3.018716 -3.741482 1.916325 0
M  V30 5 C 2.369098 -2.661271 2.475188 0
M  V30 6 C 1.742824 -1.557391 1.717470 0
M  V30 7 N 0.346369 -1.807163 1.391370 0
M  V30 8 C -0.365476 -0.833467 0.671575 0
M  V30 9 N 0.224429 0.310681 0.286992 0
M  V30 10 C -0.393245 1.285694 -0.403097 0
M  V30 11 C 0.341912 2.492142 -0.772097 0
M  V30 12 C -0.296766 3.490100 -1.480523 0
M  V30 13 C 0.409050 4.625805 -1.823475 0
M  V30 14 C 1.747368 4.727843 -1.442040 0
M  V30 15 N 2.345373 3.719752 -0.741668 0
M  V30 16 C 1.666036 2.603048 -0.399711 0
M  V30 17 N -1.689952 1.143180 -0.750814 0
M  V30 18 C -2.388233 0.019379 -0.411514 0
M  V30 19 C -3.713648 -0.146776 -0.756632 0
M  V30 20 C -4.406051 -1.280294 -0.410549 0
M  V30 21 C -3.713632 -2.240276 0.296155 0
M  V30 22 C -2.391558 -2.071479 0.638863 0
M  V30 23 C -1.687580 -0.936407 0.295741 0
M  V30 24 C 2.329120 -2.659586 3.854691 0
M  V30 25 H 2.831503 -3.605888 5.725977 0
M  V30 26 H 3.981586 -5.509953 4.562663 0
M  V30 27 H 3.072966 -3.781542 0.828271 0
M  V30 28 H 2.304184 -1.446111 0.751667 0
M  V30 29 H 1.818800 -0.624037 2.304539 0
M  V30 30 H -0.011343 -2.719956 1.734600 0
M  V30 31 H -1.343003 3.378736 -1.762818 0
M  V30 32 H -0.069361 5.426352 -2.380791 0
M  V30 33 H 2.279368 5.633761 -1.725624 0
M  V30 34 H 2.215488 1.846862 0.158268 0
M  V30 35 H -4.191161 0.652437 -1.312987 0
M  V30 36 H -5.444000 -1.437076 -0.667407 0
M  V30 37 H -4.240839 -3.142613 0.579401 0
M  V30 38 H -1.932946 -2.877095 1.192322 0
M  V30 39 H 1.826946 -1.827733 4.352920 0
M  V30 END ATOM
M  V30 BEGIN BOND
M  V30 1 2 1 2
M  V30 2 1 2 3
M  V30 3 2 3 4
M  V30 4 1 4 5
M  V30 5 1 5 6
M  V30 6 1 6 7
M  V30 7 1 7 8
M  V30 8 2 8 9
M  V30 9 1 9 10
M  V30 10 1 10 11
M  V30 11 2 11 12
M  V30 12 1 12 13
M  V30 13 2 13 14
M  V30 14 1 14 15
M  V30 15 2 15 16
M  V30 16 2 10 17
M  V30 17 1 17 18
M  V30 18 2 18 19
M  V30 19 1 19 20
M  V30 20 2 20 21
M  V30 21 1 21 22
M  V30 22 2 22 23
M  V30 23 2 5 24
M  V30 24 1 24 1
M  V30 25 1 23 8
M  V30 26 1 16 11
M  V30 27 1 23 18
M  V30 28 1 1 25
M  V30 29 1 2 26
M  V30 30 1 4 27
M  V30 31 1 6 28
M  V30 32 1 6 29
M  V30 33 1 7 30
M  V30 34 1 12 31
M  V30 35 1 13 32
M  V30 36 1 14 33
M  V30 37 1 16 34
M  V30 38 1 19 35
M  V30 39 1 20 36
M  V30 40 1 21 37
M  V30 41 1 22 38
M  V30 42 1 24 39
M  V30 END BOND
M  V30 END CTAB
M  END
>  <Dataset>  (324) 
ChEMBL_Kinases

>  <Ligand_Instance>  (324) 
nan

>  <PDB_ID>  (324) 
nan

>  <Standardized_SMILES>  (324) 
c1cncc(CNc2nc(-c3cccnc3)nc3ccccc23)c1

>  <Name>  (324) 
nan

>  <Pocket>  (324) 
nan

>  <ATP_Site>  (324) 
nan

>  <Peripheral>  (324) 
nan

>  <Num_H_Atoms_ProtBoundConf>  (324) 
nan

>  <Num_Resolved_Atoms>  (324) 
nan

>  <Num_Not_Resolved_Atoms>  (324) 
nan

$$$$
CHEMBL119595
     RDKit          3D

  0  0  0  0  0  0  0  0  0  0999 V3000
M  V30 BEGIN CTAB
M  V30 COUNTS 50 53 0 0 0
M  V30 BEGIN ATOM
M  V30 1 C -0.451668 -2.512809 5.333834 0
M  V30 2 O 0.790604 -2.300612 4.752768 0
M  V30 3 C 0.869536 -1.025443 4.167544 0
M  V30 4 C 2.255527 -0.905902 3.574787 0 CFG=2
M  V30 5 C 2.454600 0.511429 3.021857 0
M  V30 6 N 2.549684 -1.895185 2.576905 0
M  V30 7 C 1.974340 -2.085523 1.308176 0
M  V30 8 C 1.018578 -1.277723 0.740533 0
M  V30 9 C 0.441350 -1.456224 -0.497006 0
M  V30 10 C -0.572425 -0.577802 -1.062969 0
M  V30 11 C -0.593948 0.759518 -1.420696 0
M  V30 12 C 0.597309 1.593420 -1.240529 0
M  V30 13 C 1.822446 1.442514 -1.818064 0
M  V30 14 C 2.835977 2.347528 -1.518757 0
M  V30 15 C 2.620228 3.394092 -0.647316 0
M  V30 16 C 1.379656 3.535723 -0.070891 0
M  V30 17 C 0.371251 2.653698 -0.354797 0
M  V30 18 N -1.826251 1.066588 -1.911892 0
M  V30 19 C -2.590754 -0.065831 -1.869824 0
M  V30 20 N -3.867912 -0.258946 -2.245000 0
M  V30 21 C -4.480594 -1.455226 -2.135996 0
M  V30 22 N -5.826277 -1.738874 -2.510393 0
M  V30 23 C -3.712133 -2.477395 -1.611742 0
M  V30 24 C -2.397348 -2.268629 -1.228108 0
M  V30 25 N -1.816718 -1.058690 -1.351610 0
M  V30 26 C 0.850747 -2.539130 -1.244499 0
M  V30 27 C 1.807913 -3.353396 -0.684286 0
M  V30 28 N 2.324695 -3.116766 0.527536 0
M  V30 29 H -0.664224 -1.756439 6.144112 0
M  V30 30 H -0.434008 -3.485035 5.861940 0
M  V30 31 H -1.276608 -2.544288 4.620427 0
M  V30 32 H 0.048358 -0.787996 3.497947 0
M  V30 33 H 0.801828 -0.319140 5.046977 0
M  V30 34 H 2.978093 -1.007674 4.423213 0
M  V30 35 H 1.498800 1.061418 2.957846 0
M  V30 36 H 3.094562 1.097908 3.709644 0
M  V30 37 H 2.981427 0.401978 2.047718 0
M  V30 38 H 3.315227 -2.593512 2.824858 0
M  V30 39 H 0.660510 -0.409765 1.267701 0
M  V30 40 H 1.912552 0.605170 -2.484261 0
M  V30 41 H 3.794638 2.197267 -1.994629 0
M  V30 42 H 3.472389 4.047755 -0.477115 0
M  V30 43 H 1.225739 4.370319 0.616646 0
M  V30 44 H -0.576721 2.844273 0.147985 0
M  V30 45 H -6.694942 -1.899879 -1.958779 0
M  V30 46 H -6.698712 -1.899507 -1.919000 0
M  V30 47 H -4.111457 -3.484357 -1.481693 0
M  V30 48 H -1.829615 -3.103504 -0.820284 0
M  V30 49 H 0.413339 -2.701518 -2.217977 0
M  V30 50 H 2.161935 -4.209316 -1.223576 0
M  V30 END ATOM
M  V30 BEGIN BOND
M  V30 1 1 1 2
M  V30 2 1 2 3
M  V30 3 1 3 4
M  V30 4 1 4 5
M  V30 5 1 4 6
M  V30 6 1 6 7
M  V30 7 2 7 8
M  V30 8 1 8 9
M  V30 9 1 9 10
M  V30 10 2 10 11
M  V30 11 1 11 12
M  V30 12 2 12 13
M  V30 13 1 13 14
M  V30 14 2 14 15
M  V30 15 1 15 16
M  V30 16 2 16 17
M  V30 17 1 11 18
M  V30 18 2 18 19
M  V30 19 1 19 20
M  V30 20 2 20 21
M  V30 21 1 21 22
M  V30 22 1 21 23
M  V30 23 2 23 24
M  V30 24 1 24 25
M  V30 25 2 9 26
M  V30 26 1 26 27
M  V30 27 2 27 28
M  V30 28 1 28 7
M  V30 29 1 25 10
M  V30 30 1 17 12
M  V30 31 1 25 19
M  V30 32 1 1 29
M  V30 33 1 1 30
M  V30 34 1 1 31
M  V30 35 1 3 32
M  V30 36 1 3 33
M  V30 37 1 4 34 CFG=1
M  V30 38 1 5 35
M  V30 39 1 5 36
M  V30 40 1 5 37
M  V30 41 1 6 38
M  V30 42 1 8 39
M  V30 43 1 13 40
M  V30 44 1 14 41
M  V30 45 1 15 42
M  V30 46 1 16 43
M  V30 47 1 17 44
M  V30 48 1 22 45
M  V30 49 1 22 46
M  V30 50 1 23 47
M  V30 51 1 24 48
M  V30 52 1 26 49
M  V30 53 1 27 50
M  V30 END BOND
M  V30 END CTAB
M  END
>  <Dataset>  (325) 
ChEMBL_Kinases

>  <Ligand_Instance>  (325) 
nan

>  <PDB_ID>  (325) 
nan

>  <Standardized_SMILES>  (325) 
COC[C@H](C)Nc1cc(-c2c(-c3ccccc3)nc3nc(N)ccn23)ccn1

>  <Name>  (325) 
nan

>  <Pocket>  (325) 
nan

>  <ATP_Site>  (325) 
nan

>  <Peripheral>  (325) 
nan

>  <Num_H_Atoms_ProtBoundConf>  (325) 
nan

>  <Num_Resolved_Atoms>  (325) 
nan

>  <Num_Not_Resolved_Atoms>  (325) 
nan

$$$$
CHEMBL119648
     RDKit          3D

  0  0  0  0  0  0  0  0  0  0999 V3000
M  V30 BEGIN CTAB
M  V30 COUNTS 35 38 0 0 0
M  V30 BEGIN ATOM
M  V30 1 N -0.556721 -4.226463 4.952713 0
M  V30 2 C -0.207869 -3.369425 3.867494 0
M  V30 3 C 1.004891 -3.405476 3.211224 0
M  V30 4 C 1.305423 -2.555825 2.160895 0
M  V30 5 N 0.373434 -1.657917 1.765501 0
M  V30 6 C 0.432781 -0.736293 0.777665 0
M  V30 7 C 1.474671 -0.411883 -0.148828 0
M  V30 8 C 2.699333 0.036076 0.318547 0
M  V30 9 C 3.788442 0.383313 -0.484215 0
M  V30 10 N 3.643583 0.275941 -1.826726 0
M  V30 11 C 2.476960 -0.154524 -2.357817 0
M  V30 12 C 1.433933 -0.483808 -1.519660 0
M  V30 13 C -0.790822 -0.100889 0.819392 0
M  V30 14 C -1.315200 0.978382 -0.006803 0
M  V30 15 C -0.831713 2.267746 -0.148474 0
M  V30 16 C -1.480253 3.157794 -0.993891 0
M  V30 17 C -2.601021 2.736358 -1.680224 0
M  V30 18 F -3.209084 3.650797 -2.503898 0
M  V30 19 C -3.114574 1.471228 -1.571046 0
M  V30 20 C -2.456534 0.603341 -0.727054 0
M  V30 21 N -1.537388 -0.644010 1.808865 0
M  V30 22 C -0.818831 -1.618561 2.406794 0
M  V30 23 N -1.095964 -2.452770 3.427731 0
M  V30 24 H -0.140496 -3.971801 5.850683 0
M  V30 25 H -1.185530 -5.048667 4.841744 0
M  V30 26 H 1.703969 -4.145512 3.575666 0
M  V30 27 H 2.277275 -2.621819 1.673640 0
M  V30 28 H 2.900015 0.151299 1.380270 0
M  V30 29 H 4.718285 0.725683 -0.073937 0
M  V30 30 H 2.391813 -0.229446 -3.423658 0
M  V30 31 H 0.493304 -0.831687 -1.958846 0
M  V30 32 H 0.050819 2.433422 0.457370 0
M  V30 33 H -1.031897 4.139889 -1.041366 0
M  V30 34 H -3.997305 1.175295 -2.126874 0
M  V30 35 H -2.903567 -0.391240 -0.673587 0
M  V30 END ATOM
M  V30 BEGIN BOND
M  V30 1 1 1 2
M  V30 2 1 2 3
M  V30 3 2 3 4
M  V30 4 1 4 5
M  V30 5 1 5 6
M  V30 6 1 6 7
M  V30 7 2 7 8
M  V30 8 1 8 9
M  V30 9 2 9 10
M  V30 10 1 10 11
M  V30 11 2 11 12
M  V30 12 2 6 13
M  V30 13 1 13 14
M  V30 14 2 14 15
M  V30 15 1 15 16
M  V30 16 2 16 17
M  V30 17 1 17 18
M  V30 18 1 17 19
M  V30 19 2 19 20
M  V30 20 1 13 21
M  V30 21 2 21 22
M  V30 22 1 22 23
M  V30 23 2 23 2
M  V30 24 1 22 5
M  V30 25 1 12 7
M  V30 26 1 20 14
M  V30 27 1 1 24
M  V30 28 1 1 25
M  V30 29 1 3 26
M  V30 30 1 4 27
M  V30 31 1 8 28
M  V30 32 1 9 29
M  V30 33 1 11 30
M  V30 34 1 12 31
M  V30 35 1 15 32
M  V30 36 1 16 33
M  V30 37 1 19 34
M  V30 38 1 20 35
M  V30 END BOND
M  V30 END CTAB
M  END
>  <Dataset>  (326) 
ChEMBL_Kinases

>  <Ligand_Instance>  (326) 
nan

>  <PDB_ID>  (326) 
nan

>  <Standardized_SMILES>  (326) 
Nc1ccn2c(-c3ccncc3)c(-c3ccc(F)cc3)nc2n1

>  <Name>  (326) 
nan

>  <Pocket>  (326) 
nan

>  <ATP_Site>  (326) 
nan

>  <Peripheral>  (326) 
nan

>  <Num_H_Atoms_ProtBoundConf>  (326) 
nan

>  <Num_Resolved_Atoms>  (326) 
nan

>  <Num_Not_Resolved_Atoms>  (326) 
nan

$$$$
CHEMBL119675
     RDKit          3D

  0  0  0  0  0  0  0  0  0  0999 V3000
M  V30 BEGIN CTAB
M  V30 COUNTS 49 53 0 0 0
M  V30 BEGIN ATOM
M  V30 1 O 0.590394 -4.956923 1.582446 0
M  V30 2 C 0.579995 -3.681344 1.589613 0
M  V30 3 C 1.624042 -2.661072 1.880065 0
M  V30 4 C 1.689074 -1.665180 0.741123 0
M  V30 5 C 0.368395 -1.141235 0.420644 0
M  V30 6 C 0.068325 0.156212 -0.188404 0
M  V30 7 C 0.486368 1.410756 0.139867 0
M  V30 8 C 1.377037 1.731944 1.238794 0
M  V30 9 C 1.345682 1.254054 2.552699 0
M  V30 10 C 2.289187 1.687849 3.445549 0
M  V30 11 C 3.279143 2.574579 3.131251 0
M  V30 12 C 3.331551 3.061972 1.837781 0
M  V30 13 C 4.397940 4.033638 1.451438 0
M  V30 14 F 5.234421 4.271190 2.502072 0
M  V30 15 F 3.746761 5.200072 1.026861 0
M  V30 16 F 5.109792 3.599808 0.338560 0
M  V30 17 C 2.396335 2.638052 0.935191 0
M  V30 18 N -0.035492 2.328595 -0.691934 0
M  V30 19 C -0.801527 1.654722 -1.569548 0
M  V30 20 C -1.540625 2.151190 -2.611116 0
M  V30 21 C -2.240462 1.203021 -3.356399 0
M  V30 22 C -2.181100 -0.136694 -3.051908 0
M  V30 23 C -1.420215 -0.589949 -1.989463 0
M  V30 24 N -0.738763 0.345826 -1.265886 0
M  V30 25 N -0.724287 -1.818545 0.660938 0
M  V30 26 N -0.697465 -3.106155 1.248498 0
M  V30 27 C -1.940824 -3.800242 1.487012 0
M  V30 28 C -2.699396 -3.725734 2.637678 0
M  V30 29 C -3.867052 -4.458437 2.698392 0
M  V30 30 C -4.314963 -5.256577 1.677951 0
M  V30 31 C -3.546052 -5.322669 0.530641 0
M  V30 32 C -2.378037 -4.600499 0.448190 0
M  V30 33 Cl -1.474379 -4.751171 -1.047554 0
M  V30 34 H 1.343853 -2.090092 2.803738 0
M  V30 35 H 2.580848 -3.147907 2.069265 0
M  V30 36 H 2.103690 -2.229596 -0.144632 0
M  V30 37 H 2.444999 -0.937662 1.003463 0
M  V30 38 H 0.536174 0.557477 2.727021 0
M  V30 39 H 2.212649 1.283613 4.442935 0
M  V30 40 H 4.001842 2.886630 3.873765 0
M  V30 41 H 2.493806 3.063200 -0.075106 0
M  V30 42 H -1.597381 3.201908 -2.863124 0
M  V30 43 H -2.853116 1.496140 -4.199662 0
M  V30 44 H -2.704555 -0.919210 -3.596900 0
M  V30 45 H -1.367136 -1.647445 -1.741048 0
M  V30 46 H -2.314340 -3.086752 3.419729 0
M  V30 47 H -4.459046 -4.396462 3.604124 0
M  V30 48 H -5.238164 -5.814098 1.769933 0
M  V30 49 H -3.905024 -5.958244 -0.278943 0
M  V30 END ATOM
M  V30 BEGIN BOND
M  V30 1 2 1 2
M  V30 2 1 2 3
M  V30 3 1 3 4
M  V30 4 1 4 5
M  V30 5 1 5 6
M  V30 6 2 6 7
M  V30 7 1 7 8
M  V30 8 2 8 9
M  V30 9 1 9 10
M  V30 10 2 10 11
M  V30 11 1 11 12
M  V30 12 1 12 13
M  V30 13 1 13 14
M  V30 14 1 13 15
M  V30 15 1 13 16
M  V30 16 2 12 17
M  V30 17 1 7 18
M  V30 18 2 18 19
M  V30 19 1 19 20
M  V30 20 2 20 21
M  V30 21 1 21 22
M  V30 22 2 22 23
M  V30 23 1 23 24
M  V30 24 2 5 25
M  V30 25 1 25 26
M  V30 26 1 26 27
M  V30 27 2 27 28
M  V30 28 1 28 29
M  V30 29 2 29 30
M  V30 30 1 30 31
M  V30 31 2 31 32
M  V30 32 1 32 33
M  V30 33 1 26 2
M  V30 34 1 32 27
M  V30 35 1 24 6
M  V30 36 1 17 8
M  V30 37 1 24 19
M  V30 38 1 3 34
M  V30 39 1 3 35
M  V30 40 1 4 36
M  V30 41 1 4 37
M  V30 42 1 9 38
M  V30 43 1 10 39
M  V30 44 1 11 40
M  V30 45 1 17 41
M  V30 46 1 20 42
M  V30 47 1 21 43
M  V30 48 1 22 44
M  V30 49 1 23 45
M  V30 50 1 28 46
M  V30 51 1 29 47
M  V30 52 1 30 48
M  V30 53 1 31 49
M  V30 END BOND
M  V30 END CTAB
M  END
>  <Dataset>  (327) 
ChEMBL_Kinases

>  <Ligand_Instance>  (327) 
nan

>  <PDB_ID>  (327) 
nan

>  <Standardized_SMILES>  (327) 
O=C1CCC(c2c(-c3cccc(C(F)(F)F)c3)nc3ccccn23)=NN1c1ccccc1Cl

>  <Name>  (327) 
nan

>  <Pocket>  (327) 
nan

>  <ATP_Site>  (327) 
nan

>  <Peripheral>  (327) 
nan

>  <Num_H_Atoms_ProtBoundConf>  (327) 
nan

>  <Num_Resolved_Atoms>  (327) 
nan

>  <Num_Not_Resolved_Atoms>  (327) 
nan

$$$$
CHEMBL119695
     RDKit          3D

  0  0  0  0  0  0  0  0  0  0999 V3000
M  V30 BEGIN CTAB
M  V30 COUNTS 50 54 0 0 0
M  V30 BEGIN ATOM
M  V30 1 N -1.220192 -1.275292 6.036499 0
M  V30 2 C -0.821401 -1.457056 4.677969 0
M  V30 3 C 0.006777 -0.493014 4.145405 0
M  V30 4 C 0.442162 -0.598067 2.820669 0
M  V30 5 N 0.054049 -1.646994 2.051197 0
M  V30 6 C 0.282262 -2.038275 0.783559 0
M  V30 7 C 1.118335 -1.303097 -0.153864 0
M  V30 8 C 2.319570 -1.643103 -0.739166 0
M  V30 9 C 2.940417 -0.785580 -1.610009 0
M  V30 10 N 2.409460 0.423190 -1.932924 0
M  V30 11 C 1.225813 0.781958 -1.369128 0
M  V30 12 N 0.799784 2.059109 -1.799898 0
M  V30 13 C 1.113539 3.322563 -1.155727 0
M  V30 14 C 0.588209 3.323445 0.247986 0
M  V30 15 C 1.277785 2.903930 1.361246 0
M  V30 16 C 0.649065 2.964313 2.608230 0
M  V30 17 C -0.642136 3.431838 2.756617 0
M  V30 18 C -1.347055 3.856117 1.651255 0
M  V30 19 C -0.708001 3.787909 0.432378 0
M  V30 20 C 0.569224 -0.059932 -0.484105 0
M  V30 21 C -0.409384 -3.212488 0.597837 0
M  V30 22 C -0.471626 -4.017762 -0.616099 0
M  V30 23 C -1.781989 -4.047946 -1.111739 0
M  V30 24 C -2.105223 -4.749844 -2.259183 0
M  V30 25 C -1.130437 -5.442538 -2.946232 0
M  V30 26 F -1.407709 -6.144981 -4.078250 0
M  V30 27 C 0.145138 -5.399437 -2.443344 0
M  V30 28 C 0.503636 -4.711058 -1.303812 0
M  V30 29 N -1.040700 -3.513059 1.745127 0
M  V30 30 C -0.756399 -2.551189 2.639387 0
M  V30 31 N -1.205291 -2.494814 3.916320 0
M  V30 32 H -1.612857 -0.388980 6.448998 0
M  V30 33 H -1.140652 -2.057345 6.740948 0
M  V30 34 H 0.366488 0.378175 4.687221 0
M  V30 35 H 1.091672 0.102596 2.308040 0
M  V30 36 H 2.669476 -2.611014 -0.429009 0
M  V30 37 H 3.888486 -1.170785 -2.008618 0
M  V30 38 H 0.246736 1.831173 -2.639586 0
M  V30 39 H 2.217167 3.400294 -1.092009 0
M  V30 40 H 0.646648 4.151609 -1.692662 0
M  V30 41 H 2.273628 2.552877 1.178803 0
M  V30 42 H 1.262732 2.617394 3.411842 0
M  V30 43 H -1.060933 3.448695 3.750345 0
M  V30 44 H -2.363975 4.228452 1.737885 0
M  V30 45 H -1.281330 4.129643 -0.442512 0
M  V30 46 H -0.363613 0.376504 -0.124003 0
M  V30 47 H -2.655826 -3.553160 -0.682446 0
M  V30 48 H -3.100443 -4.803512 -2.680957 0
M  V30 49 H 0.967006 -5.922079 -2.931796 0
M  V30 50 H 1.453428 -4.620823 -0.839419 0
M  V30 END ATOM
M  V30 BEGIN BOND
M  V30 1 1 1 2
M  V30 2 1 2 3
M  V30 3 2 3 4
M  V30 4 1 4 5
M  V30 5 1 5 6
M  V30 6 1 6 7
M  V30 7 2 7 8
M  V30 8 1 8 9
M  V30 9 2 9 10
M  V30 10 1 10 11
M  V30 11 1 11 12
M  V30 12 1 12 13
M  V30 13 1 13 14
M  V30 14 2 14 15
M  V30 15 1 15 16
M  V30 16 2 16 17
M  V30 17 1 17 18
M  V30 18 2 18 19
M  V30 19 2 11 20
M  V30 20 2 6 21
M  V30 21 1 21 22
M  V30 22 2 22 23
M  V30 23 1 23 24
M  V30 24 2 24 25
M  V30 25 1 25 26
M  V30 26 1 25 27
M  V30 27 2 27 28
M  V30 28 1 21 29
M  V30 29 2 29 30
M  V30 30 1 30 31
M  V30 31 2 31 2
M  V30 32 1 30 5
M  V30 33 1 20 7
M  V30 34 1 28 22
M  V30 35 1 19 14
M  V30 36 1 1 32
M  V30 37 1 1 33
M  V30 38 1 3 34
M  V30 39 1 4 35
M  V30 40 1 8 36
M  V30 41 1 9 37
M  V30 42 1 12 38
M  V30 43 1 13 39
M  V30 44 1 13 40
M  V30 45 1 15 41
M  V30 46 1 16 42
M  V30 47 1 17 43
M  V30 48 1 18 44
M  V30 49 1 19 45
M  V30 50 1 20 46
M  V30 51 1 23 47
M  V30 52 1 24 48
M  V30 53 1 27 49
M  V30 54 1 28 50
M  V30 END BOND
M  V30 END CTAB
M  END
>  <Dataset>  (328) 
ChEMBL_Kinases

>  <Ligand_Instance>  (328) 
nan

>  <PDB_ID>  (328) 
nan

>  <Standardized_SMILES>  (328) 
Nc1ccn2c(-c3ccnc(NCc4ccccc4)c3)c(-c3ccc(F)cc3)nc2n1

>  <Name>  (328) 
nan

>  <Pocket>  (328) 
nan

>  <ATP_Site>  (328) 
nan

>  <Peripheral>  (328) 
nan

>  <Num_H_Atoms_ProtBoundConf>  (328) 
nan

>  <Num_Resolved_Atoms>  (328) 
nan

>  <Num_Not_Resolved_Atoms>  (328) 
nan

$$$$
CHEMBL1200904
     RDKit          3D

  0  0  0  0  0  0  0  0  0  0999 V3000
M  V30 BEGIN CTAB
M  V30 COUNTS 31 31 0 0 0
M  V30 BEGIN ATOM
M  V30 1 C -0.371119 -0.157407 4.096821 0
M  V30 2 C 0.335547 -0.888356 3.465453 0
M  V30 3 C 1.167327 -1.775013 2.692937 0
M  V30 4 N 0.980038 -1.631184 1.256498 0
M  V30 5 C 1.845001 -2.550111 0.538087 0
M  V30 6 C -0.398980 -1.756654 0.875958 0 CFG=2
M  V30 7 C -1.016784 -3.091231 1.095909 0
M  V30 8 C -0.581493 -1.292459 -0.540700 0
M  V30 9 C -0.165592 0.147506 -0.614698 0
M  V30 10 C 1.055006 0.670091 -0.907277 0
M  V30 11 C 1.252087 2.028906 -0.922687 0
M  V30 12 C 0.250443 2.937059 -0.649353 0
M  V30 13 C -0.983720 2.430679 -0.353135 0
M  V30 14 C -1.162565 1.068431 -0.342295 0
M  V30 15 H -0.989028 0.492695 4.660770 0
M  V30 16 H 0.987885 -2.840419 2.936212 0
M  V30 17 H 2.245044 -1.571351 2.893519 0
M  V30 18 H 1.264234 -3.062065 -0.224495 0
M  V30 19 H 2.325025 -3.282064 1.228753 0
M  V30 20 H 2.631162 -1.949791 0.047136 0
M  V30 21 H -0.964355 -1.032424 1.520025 0
M  V30 22 H -0.264032 -3.887273 0.921969 0
M  V30 23 H -1.884841 -3.219584 0.416844 0
M  V30 24 H -1.407222 -3.220726 2.132745 0
M  V30 25 H -1.655313 -1.369242 -0.842128 0
M  V30 26 H -0.006673 -1.891718 -1.251027 0
M  V30 27 H 1.824091 -0.048302 -1.120911 0
M  V30 28 H 2.271135 2.354253 -1.169572 0
M  V30 29 H 0.530062 3.987702 -0.693116 0
M  V30 30 H -1.774255 3.130736 -0.137893 0
M  V30 31 H -2.183480 0.745006 -0.094885 0
M  V30 END ATOM
M  V30 BEGIN BOND
M  V30 1 3 1 2
M  V30 2 1 2 3
M  V30 3 1 3 4
M  V30 4 1 4 5
M  V30 5 1 4 6
M  V30 6 1 6 7
M  V30 7 1 6 8
M  V30 8 1 8 9
M  V30 9 2 9 10
M  V30 10 1 10 11
M  V30 11 2 11 12
M  V30 12 1 12 13
M  V30 13 2 13 14
M  V30 14 1 14 9
M  V30 15 1 1 15
M  V30 16 1 3 16
M  V30 17 1 3 17
M  V30 18 1 5 18
M  V30 19 1 5 19
M  V30 20 1 5 20
M  V30 21 1 6 21 CFG=1
M  V30 22 1 7 22
M  V30 23 1 7 23
M  V30 24 1 7 24
M  V30 25 1 8 25
M  V30 26 1 8 26
M  V30 27 1 10 27
M  V30 28 1 11 28
M  V30 29 1 12 29
M  V30 30 1 13 30
M  V30 31 1 14 31
M  V30 END BOND
M  V30 END CTAB
M  END
>  <Dataset>  (329) 
ChEMBL_Kinases

>  <Ligand_Instance>  (329) 
nan

>  <PDB_ID>  (329) 
nan

>  <Standardized_SMILES>  (329) 
C#CCN(C)[C@H](C)Cc1ccccc1

>  <Name>  (329) 
SELEGILINE HYDROCHLORIDE

>  <Pocket>  (329) 
nan

>  <ATP_Site>  (329) 
nan

>  <Peripheral>  (329) 
nan

>  <Num_H_Atoms_ProtBoundConf>  (329) 
nan

>  <Num_Resolved_Atoms>  (329) 
nan

>  <Num_Not_Resolved_Atoms>  (329) 
nan

$$$$
CHEMBL119907
     RDKit          3D

  0  0  0  0  0  0  0  0  0  0999 V3000
M  V30 BEGIN CTAB
M  V30 COUNTS 61 61 0 0 0
M  V30 BEGIN ATOM
M  V30 1 C 2.340322 -2.479003 4.924692 0
M  V30 2 C 1.122585 -2.214855 4.073320 0
M  V30 3 C 1.474710 -1.303067 2.887823 0
M  V30 4 C 2.510441 -2.014574 2.097910 0
M  V30 5 C 2.996106 -1.287640 0.884396 0
M  V30 6 C 3.618393 0.030084 1.122743 0
M  V30 7 C 4.088592 0.729119 -0.126549 0
M  V30 8 C 3.000068 1.031008 -1.117498 0
M  V30 9 C 1.938496 1.937597 -0.529000 0
M  V30 10 C 0.911159 2.204879 -1.588861 0
M  V30 11 C -0.190580 3.094917 -1.178220 0
M  V30 12 C -1.060016 2.706070 -0.056071 0
M  V30 13 C -1.853234 1.442048 -0.214699 0
M  V30 14 C -1.086269 0.212489 -0.398775 0
M  V30 15 O -0.380290 -0.812080 -0.553666 0
M  V30 16 O -1.942094 -0.839295 -0.521799 0
M  V30 17 C -1.680665 -2.192049 -0.709746 0
M  V30 18 C -3.066687 -2.866091 -0.778736 0 CFG=2
M  V30 19 C -3.738199 -2.238043 -2.000183 0
M  V30 20 O -4.981466 -2.809306 -2.129713 0
M  V30 21 C -3.850986 -2.682039 0.476602 0
M  V30 22 C -4.745309 -3.904923 0.504305 0
M  V30 23 C -4.097039 -4.828468 -0.461749 0
M  V30 24 O -4.750696 -5.892423 -0.568302 0
M  V30 25 O -2.951842 -4.243347 -0.967760 0
M  V30 26 H 2.082637 -2.660701 5.988345 0
M  V30 27 H 2.758473 -3.457343 4.548266 0
M  V30 28 H 3.074634 -1.673176 4.876497 0
M  V30 29 H 0.382402 -1.722036 4.744286 0
M  V30 30 H 0.636823 -3.144307 3.712316 0
M  V30 31 H 0.539495 -1.281014 2.289441 0
M  V30 32 H 1.790254 -0.319076 3.242069 0
M  V30 33 H 3.351829 -2.307800 2.756065 0
M  V30 34 H 2.067823 -2.975770 1.749820 0
M  V30 35 H 2.228052 -1.210096 0.094911 0
M  V30 36 H 3.787970 -1.954156 0.426156 0
M  V30 37 H 4.546933 -0.106987 1.748180 0
M  V30 38 H 2.992590 0.752370 1.672517 0
M  V30 39 H 4.948144 0.207465 -0.599887 0
M  V30 40 H 4.497331 1.724777 0.200028 0
M  V30 41 H 3.460322 1.520146 -2.008269 0
M  V30 42 H 2.500637 0.098272 -1.430782 0
M  V30 43 H 1.539932 1.381677 0.343878 0
M  V30 44 H 2.401783 2.905537 -0.259420 0
M  V30 45 H 0.578299 1.239496 -2.009756 0
M  V30 46 H 1.502755 2.666017 -2.444802 0
M  V30 47 H 0.257809 4.125465 -1.031347 0
M  V30 48 H -0.858234 3.263648 -2.080471 0
M  V30 49 H -1.846321 3.522269 0.033051 0
M  V30 50 H -0.563451 2.747942 0.943711 0
M  V30 51 H -2.520976 1.335803 0.669774 0
M  V30 52 H -2.500386 1.568545 -1.129549 0
M  V30 53 H -1.266947 -2.340478 -1.727089 0
M  V30 54 H -1.081239 -2.682862 0.086456 0
M  V30 55 H -3.762957 -1.136184 -1.920793 0
M  V30 56 H -3.107324 -2.544187 -2.860931 0
M  V30 57 H -4.910396 -3.604010 -2.695143 0
M  V30 58 H -4.436168 -1.741577 0.484365 0
M  V30 59 H -3.160537 -2.731290 1.342115 0
M  V30 60 H -5.734653 -3.582470 0.098058 0
M  V30 61 H -4.830653 -4.325529 1.512897 0
M  V30 END ATOM
M  V30 BEGIN BOND
M  V30 1 1 1 2
M  V30 2 1 2 3
M  V30 3 1 3 4
M  V30 4 1 4 5
M  V30 5 1 5 6
M  V30 6 1 6 7
M  V30 7 1 7 8
M  V30 8 1 8 9
M  V30 9 1 9 10
M  V30 10 1 10 11
M  V30 11 1 11 12
M  V30 12 1 12 13
M  V30 13 1 13 14
M  V30 14 2 14 15
M  V30 15 1 14 16
M  V30 16 1 16 17
M  V30 17 1 18 17 CFG=1
M  V30 18 1 18 19
M  V30 19 1 19 20
M  V30 20 1 18 21
M  V30 21 1 21 22
M  V30 22 1 22 23
M  V30 23 2 23 24
M  V30 24 1 23 25
M  V30 25 1 25 18
M  V30 26 1 1 26
M  V30 27 1 1 27
M  V30 28 1 1 28
M  V30 29 1 2 29
M  V30 30 1 2 30
M  V30 31 1 3 31
M  V30 32 1 3 32
M  V30 33 1 4 33
M  V30 34 1 4 34
M  V30 35 1 5 35
M  V30 36 1 5 36
M  V30 37 1 6 37
M  V30 38 1 6 38
M  V30 39 1 7 39
M  V30 40 1 7 40
M  V30 41 1 8 41
M  V30 42 1 8 42
M  V30 43 1 9 43
M  V30 44 1 9 44
M  V30 45 1 10 45
M  V30 46 1 10 46
M  V30 47 1 11 47
M  V30 48 1 11 48
M  V30 49 1 12 49
M  V30 50 1 12 50
M  V30 51 1 13 51
M  V30 52 1 13 52
M  V30 53 1 17 53
M  V30 54 1 17 54
M  V30 55 1 19 55
M  V30 56 1 19 56
M  V30 57 1 20 57
M  V30 58 1 21 58
M  V30 59 1 21 59
M  V30 60 1 22 60
M  V30 61 1 22 61
M  V30 END BOND
M  V30 END CTAB
M  END
>  <Dataset>  (330) 
ChEMBL_Kinases

>  <Ligand_Instance>  (330) 
nan

>  <PDB_ID>  (330) 
nan

>  <Standardized_SMILES>  (330) 
CCCCCCCCCCCCCC(=O)OC[C@]1(CO)CCC(=O)O1

>  <Name>  (330) 
nan

>  <Pocket>  (330) 
nan

>  <ATP_Site>  (330) 
nan

>  <Peripheral>  (330) 
nan

>  <Num_H_Atoms_ProtBoundConf>  (330) 
nan

>  <Num_Resolved_Atoms>  (330) 
nan

>  <Num_Not_Resolved_Atoms>  (330) 
nan

$$$$
CHEMBL120032
     RDKit          3D

  0  0  0  0  0  0  0  0  0  0999 V3000
M  V30 BEGIN CTAB
M  V30 COUNTS 44 47 0 0 0
M  V30 BEGIN ATOM
M  V30 1 O -2.496650 -4.075134 2.148281 0
M  V30 2 C -1.746413 -3.117100 1.841942 0
M  V30 3 N -2.027624 -1.902669 2.524140 0
M  V30 4 C -1.310554 -0.677802 2.344481 0
M  V30 5 C -0.218418 -0.794395 1.351970 0
M  V30 6 C 0.591453 0.268426 1.029839 0
M  V30 7 C 1.627893 0.255049 0.122284 0
M  V30 8 N 2.407726 1.410293 -0.119235 0
M  V30 9 S 2.387438 3.052287 -0.566163 0
M  V30 10 O 3.816581 3.577876 -0.557773 0
M  V30 11 O 1.870568 3.238697 -1.978924 0
M  V30 12 C 1.493810 4.082986 0.508629 0
M  V30 13 C 2.113983 4.988882 1.358969 0
M  V30 14 C 1.487907 5.813912 2.268741 0
M  V30 15 C 0.112914 5.741442 2.351317 0
M  V30 16 C -0.585347 4.868525 1.542182 0
M  V30 17 C 0.135961 4.087942 0.665702 0
M  V30 18 Cl -0.844955 3.056317 -0.365316 0
M  V30 19 C 1.860109 -0.967387 -0.519012 0
M  V30 20 C 1.102204 -2.081517 -0.260562 0
M  V30 21 C 0.094006 -1.946504 0.665133 0
M  V30 22 N -0.677071 -3.115530 0.913501 0
M  V30 23 C -0.449472 -4.372375 0.262586 0
M  V30 24 C -1.021747 -4.797282 -0.916244 0
M  V30 25 Cl -2.129271 -3.685043 -1.678529 0
M  V30 26 C -0.712121 -6.038079 -1.433308 0
M  V30 27 C 0.179702 -6.907708 -0.799089 0
M  V30 28 C 0.724387 -6.434864 0.376635 0
M  V30 29 C 0.445478 -5.203940 0.931310 0
M  V30 30 Cl 1.233386 -4.780860 2.427140 0
M  V30 31 H -2.801480 -1.779175 3.239733 0
M  V30 32 H -0.886061 -0.285217 3.310426 0
M  V30 33 H -1.984063 0.148383 1.989595 0
M  V30 34 H 0.357202 1.194040 1.581811 0
M  V30 35 H 3.384416 1.026614 0.088903 0
M  V30 36 H 3.207433 5.088557 1.336025 0
M  V30 37 H 2.047996 6.492895 2.895271 0
M  V30 38 H -0.369640 6.390484 3.066850 0
M  V30 39 H -1.657355 4.834303 1.629207 0
M  V30 40 H 2.672918 -0.979729 -1.230109 0
M  V30 41 H 1.302531 -3.012969 -0.770023 0
M  V30 42 H -1.184121 -6.335532 -2.363945 0
M  V30 43 H 0.420372 -7.880819 -1.207783 0
M  V30 44 H 1.421873 -7.117102 0.871000 0
M  V30 END ATOM
M  V30 BEGIN BOND
M  V30 1 2 1 2
M  V30 2 1 2 3
M  V30 3 1 3 4
M  V30 4 1 4 5
M  V30 5 2 5 6
M  V30 6 1 6 7
M  V30 7 1 7 8
M  V30 8 1 8 9
M  V30 9 2 9 10
M  V30 10 2 9 11
M  V30 11 1 9 12
M  V30 12 2 12 13
M  V30 13 1 13 14
M  V30 14 2 14 15
M  V30 15 1 15 16
M  V30 16 2 16 17
M  V30 17 1 17 18
M  V30 18 2 7 19
M  V30 19 1 19 20
M  V30 20 2 20 21
M  V30 21 1 21 22
M  V30 22 1 22 23
M  V30 23 2 23 24
M  V30 24 1 24 25
M  V30 25 1 24 26
M  V30 26 2 26 27
M  V30 27 1 27 28
M  V30 28 2 28 29
M  V30 29 1 29 30
M  V30 30 1 22 2
M  V30 31 1 29 23
M  V30 32 1 21 5
M  V30 33 1 17 12
M  V30 34 1 3 31
M  V30 35 1 4 32
M  V30 36 1 4 33
M  V30 37 1 6 34
M  V30 38 1 8 35
M  V30 39 1 13 36
M  V30 40 1 14 37
M  V30 41 1 15 38
M  V30 42 1 16 39
M  V30 43 1 19 40
M  V30 44 1 20 41
M  V30 45 1 26 42
M  V30 46 1 27 43
M  V30 47 1 28 44
M  V30 END BOND
M  V30 END CTAB
M  END
>  <Dataset>  (331) 
ChEMBL_Kinases

>  <Ligand_Instance>  (331) 
nan

>  <PDB_ID>  (331) 
nan

>  <Standardized_SMILES>  (331) 
O=C1NCc2cc(NS(=O)(=O)c3ccccc3Cl)ccc2N1c1c(Cl)cccc1Cl

>  <Name>  (331) 
nan

>  <Pocket>  (331) 
nan

>  <ATP_Site>  (331) 
nan

>  <Peripheral>  (331) 
nan

>  <Num_H_Atoms_ProtBoundConf>  (331) 
nan

>  <Num_Resolved_Atoms>  (331) 
nan

>  <Num_Not_Resolved_Atoms>  (331) 
nan

$$$$
CHEMBL1200334
     RDKit          3D

  0  0  0  0  0  0  0  0  0  0999 V3000
M  V30 BEGIN CTAB
M  V30 COUNTS 55 58 0 0 0
M  V30 BEGIN ATOM
M  V30 1 C -1.066729 2.703503 5.146344 0
M  V30 2 C 0.296991 3.302784 5.114788 0
M  V30 3 O 1.331893 2.346576 5.081617 0
M  V30 4 C 1.457533 1.438043 4.061372 0
M  V30 5 O 0.599911 1.528051 3.182987 0
M  V30 6 N 2.458699 0.447486 3.951599 0
M  V30 7 C 2.688389 -0.531023 2.959598 0
M  V30 8 C 3.766398 -1.373110 3.180456 0
M  V30 9 C 4.070928 -2.359252 2.268797 0
M  V30 10 C 3.278971 -2.445176 1.188892 0
M  V30 11 C 2.196884 -1.699845 0.836633 0
M  V30 12 C 1.982025 -0.751365 1.809889 0
M  V30 13 N 1.365496 -1.825485 -0.302835 0
M  V30 14 C 0.302843 -0.913426 -0.523921 0
M  V30 15 O -0.448635 -1.007581 -1.481775 0
M  V30 16 C -0.396884 0.264387 -0.044992 0
M  V30 17 C -1.448773 0.861444 -0.978030 0
M  V30 18 N -2.495923 -0.069694 -1.282811 0
M  V30 19 C -3.345842 -0.389937 -0.156457 0
M  V30 20 C -4.442066 -1.307615 -0.643638 0
M  V30 21 O -5.172108 -0.778938 -1.702669 0
M  V30 22 C -4.272303 -0.592118 -2.763611 0
M  V30 23 C -3.338603 0.511376 -2.309548 0
M  V30 24 C 1.585522 -2.821559 -1.275207 0
M  V30 25 C 0.816612 -3.019727 -2.391768 0
M  V30 26 C 0.950018 -3.962609 -3.370943 0
M  V30 27 C 1.996266 -4.868779 -3.262326 0
M  V30 28 C 2.828941 -4.743803 -2.160541 0
M  V30 29 C 2.578119 -3.756370 -1.262698 0
M  V30 30 S 3.739950 -3.738637 0.062870 0
M  V30 31 H -1.814453 3.176358 4.486384 0
M  V30 32 H -1.064870 1.613752 4.884634 0
M  V30 33 H -1.472321 2.782479 6.174645 0
M  V30 34 H 0.445936 3.908480 6.031702 0
M  V30 35 H 0.447618 4.014205 4.274646 0
M  V30 36 H 3.100725 0.510274 4.778369 0
M  V30 37 H 4.397883 -1.281109 4.072057 0
M  V30 38 H 4.919290 -2.988212 2.486805 0
M  V30 39 H 1.188780 -0.068624 1.744399 0
M  V30 40 H -0.900026 0.134649 0.966662 0
M  V30 41 H 0.301384 1.149779 0.112933 0
M  V30 42 H -0.934282 1.204392 -1.896335 0
M  V30 43 H -1.820992 1.750701 -0.466846 0
M  V30 44 H -2.762809 -0.947830 0.596642 0
M  V30 45 H -3.809359 0.524293 0.273845 0
M  V30 46 H -4.007639 -2.264528 -0.982415 0
M  V30 47 H -5.159069 -1.440794 0.199712 0
M  V30 48 H -4.751721 -0.357271 -3.718263 0
M  V30 49 H -3.638861 -1.519639 -2.878336 0
M  V30 50 H -2.749280 0.941113 -3.144694 0
M  V30 51 H -3.896253 1.350433 -1.849075 0
M  V30 52 H -0.030752 -2.410112 -2.624078 0
M  V30 53 H 0.317041 -4.079915 -4.234822 0
M  V30 54 H 2.151902 -5.636493 -4.005813 0
M  V30 55 H 3.622687 -5.454916 -2.107582 0
M  V30 END ATOM
M  V30 BEGIN BOND
M  V30 1 1 1 2
M  V30 2 1 2 3
M  V30 3 1 3 4
M  V30 4 2 4 5
M  V30 5 1 4 6
M  V30 6 1 6 7
M  V30 7 2 7 8
M  V30 8 1 8 9
M  V30 9 2 9 10
M  V30 10 1 10 11
M  V30 11 2 11 12
M  V30 12 1 11 13
M  V30 13 1 13 14
M  V30 14 2 14 15
M  V30 15 1 14 16
M  V30 16 1 16 17
M  V30 17 1 17 18
M  V30 18 1 18 19
M  V30 19 1 19 20
M  V30 20 1 20 21
M  V30 21 1 21 22
M  V30 22 1 22 23
M  V30 23 1 13 24
M  V30 24 2 24 25
M  V30 25 1 25 26
M  V30 26 2 26 27
M  V30 27 1 27 28
M  V30 28 2 28 29
M  V30 29 1 29 30
M  V30 30 1 12 7
M  V30 31 1 23 18
M  V30 32 1 29 24
M  V30 33 1 30 10
M  V30 34 1 1 31
M  V30 35 1 1 32
M  V30 36 1 1 33
M  V30 37 1 2 34
M  V30 38 1 2 35
M  V30 39 1 6 36
M  V30 40 1 8 37
M  V30 41 1 9 38
M  V30 42 1 12 39
M  V30 43 1 16 40
M  V30 44 1 16 41
M  V30 45 1 17 42
M  V30 46 1 17 43
M  V30 47 1 19 44
M  V30 48 1 19 45
M  V30 49 1 20 46
M  V30 50 1 20 47
M  V30 51 1 22 48
M  V30 52 1 22 49
M  V30 53 1 23 50
M  V30 54 1 23 51
M  V30 55 1 25 52
M  V30 56 1 26 53
M  V30 57 1 27 54
M  V30 58 1 28 55
M  V30 END BOND
M  V30 END CTAB
M  END
>  <Dataset>  (332) 
ChEMBL_Kinases

>  <Ligand_Instance>  (332) 
nan

>  <PDB_ID>  (332) 
nan

>  <Standardized_SMILES>  (332) 
CCOC(=O)Nc1ccc2c(c1)N(C(=O)CCN1CCOCC1)c1ccccc1S2

>  <Name>  (332) 
MORICIZINE HYDROCHLORIDE

>  <Pocket>  (332) 
nan

>  <ATP_Site>  (332) 
nan

>  <Peripheral>  (332) 
nan

>  <Num_H_Atoms_ProtBoundConf>  (332) 
nan

>  <Num_Resolved_Atoms>  (332) 
nan

>  <Num_Not_Resolved_Atoms>  (332) 
nan

$$$$
CHEMBL1200348
     RDKit          3D

  0  0  0  0  0  0  0  0  0  0999 V3000
M  V30 BEGIN CTAB
M  V30 COUNTS 39 41 0 0 0
M  V30 BEGIN ATOM
M  V30 1 Cl -0.432589 -5.609173 3.974308 0
M  V30 2 C 0.522748 -4.236846 3.460368 0
M  V30 3 C 0.751414 -4.142532 2.104757 0
M  V30 4 C 1.493499 -3.090912 1.628453 0
M  V30 5 C 2.053658 -2.085282 2.380767 0
M  V30 6 C 2.844266 -0.884657 2.107927 0
M  V30 7 S 2.016518 0.668495 2.088669 0
M  V30 8 C 0.906260 1.110531 0.814090 0
M  V30 9 C 1.564025 1.270231 -0.565700 0
M  V30 10 N 0.590535 1.650229 -1.555276 0
M  V30 11 C -0.255425 1.120273 -2.449014 0
M  V30 12 C -0.958792 2.118205 -3.112778 0
M  V30 13 N -0.525765 3.289700 -2.606187 0
M  V30 14 C 0.403838 2.997547 -1.672399 0
M  V30 15 C -0.394730 0.435602 0.740084 0
M  V30 16 C -0.634859 -0.814133 0.224291 0
M  V30 17 C -1.817558 -1.501495 0.098140 0
M  V30 18 C -2.936400 -0.808614 0.569441 0
M  V30 19 Cl -4.484830 -1.594827 0.455337 0
M  V30 20 C -2.813727 0.445051 1.102651 0
M  V30 21 C -1.570019 1.036911 1.178611 0
M  V30 22 Cl -1.515346 2.656328 1.878803 0
M  V30 23 C 1.786602 -2.238826 3.740538 0
M  V30 24 C 1.050012 -3.268687 4.286054 0
M  V30 25 H 0.420824 -4.802830 1.302344 0
M  V30 26 H 1.746461 -2.931277 0.566790 0
M  V30 27 H 3.476031 -1.058674 1.177902 0
M  V30 28 H 3.663098 -0.810027 2.899521 0
M  V30 29 H 0.641590 2.238701 1.027412 0
M  V30 30 H 2.436041 1.927495 -0.488163 0
M  V30 31 H 1.963794 0.282254 -0.890475 0
M  V30 32 H -0.243964 0.025137 -2.501609 0
M  V30 33 H -1.676129 1.878943 -3.857738 0
M  V30 34 H 0.829870 3.879024 -1.187248 0
M  V30 35 H 0.265401 -1.280821 -0.148642 0
M  V30 36 H -1.827718 -2.500243 -0.339858 0
M  V30 37 H -3.723244 0.943677 1.456126 0
M  V30 38 H 2.133601 -1.557523 4.525189 0
M  V30 39 H 0.837976 -3.397760 5.332628 0
M  V30 END ATOM
M  V30 BEGIN BOND
M  V30 1 1 1 2
M  V30 2 2 2 3
M  V30 3 1 3 4
M  V30 4 2 4 5
M  V30 5 1 5 6
M  V30 6 1 6 7
M  V30 7 1 7 8
M  V30 8 1 8 9
M  V30 9 1 9 10
M  V30 10 1 10 11
M  V30 11 2 11 12
M  V30 12 1 12 13
M  V30 13 2 13 14
M  V30 14 1 8 15
M  V30 15 2 15 16
M  V30 16 1 16 17
M  V30 17 2 17 18
M  V30 18 1 18 19
M  V30 19 1 18 20
M  V30 20 2 20 21
M  V30 21 1 21 22
M  V30 22 1 5 23
M  V30 23 2 23 24
M  V30 24 1 24 2
M  V30 25 1 14 10
M  V30 26 1 21 15
M  V30 27 1 3 25
M  V30 28 1 4 26
M  V30 29 1 6 27
M  V30 30 1 6 28
M  V30 31 1 8 29
M  V30 32 1 9 30
M  V30 33 1 9 31
M  V30 34 1 11 32
M  V30 35 1 12 33
M  V30 36 1 14 34
M  V30 37 1 16 35
M  V30 38 1 17 36
M  V30 39 1 20 37
M  V30 40 1 23 38
M  V30 41 1 24 39
M  V30 END BOND
M  V30 END CTAB
M  END
>  <Dataset>  (333) 
ChEMBL_Kinases

>  <Ligand_Instance>  (333) 
nan

>  <PDB_ID>  (333) 
nan

>  <Standardized_SMILES>  (333) 
Clc1ccc(CSC(Cn2ccnc2)c2ccc(Cl)cc2Cl)cc1

>  <Name>  (333) 
SULCONAZOLE NITRATE

>  <Pocket>  (333) 
nan

>  <ATP_Site>  (333) 
nan

>  <Peripheral>  (333) 
nan

>  <Num_H_Atoms_ProtBoundConf>  (333) 
nan

>  <Num_Resolved_Atoms>  (333) 
nan

>  <Num_Not_Resolved_Atoms>  (333) 
nan

$$$$
CHEMBL1200750
     RDKit          3D

  0  0  0  0  0  0  0  0  0  0999 V3000
M  V30 BEGIN CTAB
M  V30 COUNTS 40 42 0 0 0
M  V30 BEGIN ATOM
M  V30 1 C -1.074668 -2.762662 2.680990 0
M  V30 2 C -0.231005 -1.742475 1.942795 0
M  V30 3 C -0.612399 -1.562784 0.504519 0
M  V30 4 N 0.165490 -0.612918 -0.238040 0
M  V30 5 C 1.460425 -0.961870 -0.660315 0
M  V30 6 C 1.971846 -2.226250 -0.467217 0
M  V30 7 C 3.211780 -2.677619 -0.867108 0
M  V30 8 C 4.050729 -1.806075 -1.529640 0
M  V30 9 C 3.594289 -0.511529 -1.758407 0
M  V30 10 C 2.363056 -0.170851 -1.325131 0
M  V30 11 S 1.937852 1.515149 -1.710927 0
M  V30 12 C 0.266409 1.707553 -1.121603 0
M  V30 13 C -0.253742 2.950605 -1.371522 0
M  V30 14 C -1.526583 3.235909 -0.958744 0
M  V30 15 C -2.234871 2.261577 -0.307856 0
M  V30 16 C -1.640014 1.044094 -0.098070 0
M  V30 17 C -0.370422 0.676336 -0.479346 0
M  V30 18 N -0.067619 -0.517978 2.684238 0
M  V30 19 C 0.684673 -0.809815 3.924682 0
M  V30 20 C -1.268389 0.111097 3.112862 0
M  V30 21 H -0.535785 -3.082214 3.595974 0
M  V30 22 H -1.073294 -3.675495 2.020249 0
M  V30 23 H -2.115780 -2.495312 2.826623 0
M  V30 24 H 0.773983 -2.200125 1.990372 0
M  V30 25 H -1.712139 -1.447057 0.432516 0
M  V30 26 H -0.488631 -2.547532 -0.066923 0
M  V30 27 H 1.429526 -3.025724 0.012994 0
M  V30 28 H 3.601030 -3.676030 -0.707275 0
M  V30 29 H 5.029466 -2.126950 -1.856970 0
M  V30 30 H 4.291970 0.118943 -2.278426 0
M  V30 31 H 0.265050 3.749857 -1.880040 0
M  V30 32 H -1.972755 4.203642 -1.136708 0
M  V30 33 H -3.243665 2.517160 0.008576 0
M  V30 34 H -2.296438 0.366667 0.425007 0
M  V30 35 H 0.019522 -0.848746 4.798069 0
M  V30 36 H 1.432222 -0.010102 4.077169 0
M  V30 37 H 1.215752 -1.782917 3.774883 0
M  V30 38 H -1.253064 1.170713 2.781337 0
M  V30 39 H -2.198277 -0.324216 2.718863 0
M  V30 40 H -1.392050 0.127498 4.213379 0
M  V30 END ATOM
M  V30 BEGIN BOND
M  V30 1 1 1 2
M  V30 2 1 2 3
M  V30 3 1 3 4
M  V30 4 1 4 5
M  V30 5 2 5 6
M  V30 6 1 6 7
M  V30 7 2 7 8
M  V30 8 1 8 9
M  V30 9 2 9 10
M  V30 10 1 10 11
M  V30 11 1 11 12
M  V30 12 2 12 13
M  V30 13 1 13 14
M  V30 14 2 14 15
M  V30 15 1 15 16
M  V30 16 2 16 17
M  V30 17 1 2 18
M  V30 18 1 18 19
M  V30 19 1 18 20
M  V30 20 1 17 4
M  V30 21 1 10 5
M  V30 22 1 17 12
M  V30 23 1 1 21
M  V30 24 1 1 22
M  V30 25 1 1 23
M  V30 26 1 2 24
M  V30 27 1 3 25
M  V30 28 1 3 26
M  V30 29 1 6 27
M  V30 30 1 7 28
M  V30 31 1 8 29
M  V30 32 1 9 30
M  V30 33 1 13 31
M  V30 34 1 14 32
M  V30 35 1 15 33
M  V30 36 1 16 34
M  V30 37 1 19 35
M  V30 38 1 19 36
M  V30 39 1 19 37
M  V30 40 1 20 38
M  V30 41 1 20 39
M  V30 42 1 20 40
M  V30 END BOND
M  V30 END CTAB
M  END
>  <Dataset>  (334) 
ChEMBL_Kinases

>  <Ligand_Instance>  (334) 
nan

>  <PDB_ID>  (334) 
nan

>  <Standardized_SMILES>  (334) 
CC(CN1c2ccccc2Sc2ccccc21)N(C)C

>  <Name>  (334) 
PROMETHAZINE HYDROCHLORIDE

>  <Pocket>  (334) 
nan

>  <ATP_Site>  (334) 
nan

>  <Peripheral>  (334) 
nan

>  <Num_H_Atoms_ProtBoundConf>  (334) 
nan

>  <Num_Resolved_Atoms>  (334) 
nan

>  <Num_Not_Resolved_Atoms>  (334) 
nan

$$$$
CHEMBL1200781
     RDKit          3D

  0  0  0  0  0  0  0  0  0  0999 V3000
M  V30 BEGIN CTAB
M  V30 COUNTS 45 47 0 0 0
M  V30 BEGIN ATOM
M  V30 1 C -0.986323 -3.336706 -1.489994 0
M  V30 2 N 0.370208 -3.002129 -1.723163 0
M  V30 3 C 1.395007 -3.740219 -1.136681 0
M  V30 4 C 0.551351 -1.665694 -2.112921 0
M  V30 5 C 0.230115 -0.641842 -1.026227 0
M  V30 6 C 1.114904 -0.871590 0.156756 0
M  V30 7 C 0.881367 0.078449 1.313854 0
M  V30 8 C 1.098496 1.451118 0.865824 0
M  V30 9 C 0.321240 2.313418 0.139046 0
M  V30 10 C 0.644203 3.596324 -0.232772 0
M  V30 11 C 1.868409 4.099535 0.148323 0
M  V30 12 F 2.251106 5.351599 -0.181565 0
M  V30 13 C 2.734905 3.321774 0.883635 0
M  V30 14 C 2.322969 2.048111 1.208700 0
M  V30 15 O 1.848128 -0.250673 2.315546 0
M  V30 16 C 1.341123 -1.366911 2.958993 0
M  V30 17 C -0.102878 -1.034841 3.088691 0
M  V30 18 C -0.997893 -1.507646 4.019242 0
M  V30 19 C -2.293550 -1.051944 3.943226 0
M  V30 20 C -3.236430 -1.534594 4.904015 0
M  V30 21 N -4.004212 -1.923531 5.671562 0
M  V30 22 C -2.651666 -0.155317 2.959707 0
M  V30 23 C -1.676490 0.253402 2.078310 0
M  V30 24 C -0.350226 -0.126247 2.047623 0
M  V30 25 H -1.322993 -3.114258 -0.445334 0
M  V30 26 H -1.695886 -2.757146 -2.128150 0
M  V30 27 H -1.165230 -4.403800 -1.749914 0
M  V30 28 H 1.744469 -4.562351 -1.810635 0
M  V30 29 H 1.110926 -4.170570 -0.147795 0
M  V30 30 H 2.309926 -3.110226 -0.966217 0
M  V30 31 H -0.088439 -1.458963 -3.017221 0
M  V30 32 H 1.602995 -1.526639 -2.453278 0
M  V30 33 H -0.838873 -0.650961 -0.784287 0
M  V30 34 H 0.446152 0.368275 -1.482856 0
M  V30 35 H 2.174613 -0.853582 -0.167010 0
M  V30 36 H 0.946583 -1.913364 0.567876 0
M  V30 37 H -0.639432 1.943433 -0.167604 0
M  V30 38 H -0.060407 4.176460 -0.809759 0
M  V30 39 H 3.697925 3.699866 1.191043 0
M  V30 40 H 3.050259 1.476920 1.793181 0
M  V30 41 H 1.541335 -2.312786 2.436096 0
M  V30 42 H 1.751338 -1.429015 4.009138 0
M  V30 43 H -0.684110 -2.210399 4.777567 0
M  V30 44 H -3.672903 0.183646 2.925166 0
M  V30 45 H -2.053278 0.948608 1.350411 0
M  V30 END ATOM
M  V30 BEGIN BOND
M  V30 1 1 1 2
M  V30 2 1 2 3
M  V30 3 1 2 4
M  V30 4 1 4 5
M  V30 5 1 5 6
M  V30 6 1 6 7
M  V30 7 1 7 8
M  V30 8 2 8 9
M  V30 9 1 9 10
M  V30 10 2 10 11
M  V30 11 1 11 12
M  V30 12 1 11 13
M  V30 13 2 13 14
M  V30 14 1 7 15
M  V30 15 1 15 16
M  V30 16 1 16 17
M  V30 17 2 17 18
M  V30 18 1 18 19
M  V30 19 1 19 20
M  V30 20 3 20 21
M  V30 21 2 19 22
M  V30 22 1 22 23
M  V30 23 2 23 24
M  V30 24 1 24 7
M  V30 25 1 14 8
M  V30 26 1 24 17
M  V30 27 1 1 25
M  V30 28 1 1 26
M  V30 29 1 1 27
M  V30 30 1 3 28
M  V30 31 1 3 29
M  V30 32 1 3 30
M  V30 33 1 4 31
M  V30 34 1 4 32
M  V30 35 1 5 33
M  V30 36 1 5 34
M  V30 37 1 6 35
M  V30 38 1 6 36
M  V30 39 1 9 37
M  V30 40 1 10 38
M  V30 41 1 13 39
M  V30 42 1 14 40
M  V30 43 1 16 41
M  V30 44 1 16 42
M  V30 45 1 18 43
M  V30 46 1 22 44
M  V30 47 1 23 45
M  V30 END BOND
M  V30 END CTAB
M  END
>  <Dataset>  (335) 
ChEMBL_Kinases

>  <Ligand_Instance>  (335) 
nan

>  <PDB_ID>  (335) 
nan

>  <Standardized_SMILES>  (335) 
CN(C)CCCC1(c2ccc(F)cc2)OCc2cc(C#N)ccc21

>  <Name>  (335) 
CITALOPRAM HYDROBROMIDE

>  <Pocket>  (335) 
nan

>  <ATP_Site>  (335) 
nan

>  <Peripheral>  (335) 
nan

>  <Num_H_Atoms_ProtBoundConf>  (335) 
nan

>  <Num_Resolved_Atoms>  (335) 
nan

>  <Num_Not_Resolved_Atoms>  (335) 
nan

$$$$
CHEMBL1200796
     RDKit          3D

  0  0  0  0  0  0  0  0  0  0999 V3000
M  V30 BEGIN CTAB
M  V30 COUNTS 29 29 0 0 0
M  V30 BEGIN ATOM
M  V30 1 O 2.174564 -2.013654 1.671858 0
M  V30 2 P 1.101774 -1.457609 0.745975 0
M  V30 3 N 0.371985 -0.095523 1.496457 0
M  V30 4 C 1.260581 0.781295 2.118864 0
M  V30 5 C 1.768459 0.417304 3.485843 0
M  V30 6 Cl 0.552803 0.227727 4.721848 0
M  V30 7 C -0.934044 -0.282989 1.968733 0
M  V30 8 C -1.885905 0.857112 1.845326 0
M  V30 9 Cl -2.133455 1.370086 0.154442 0
M  V30 10 N -0.036709 -2.674829 0.292979 0
M  V30 11 C 0.123021 -2.865043 -1.156431 0
M  V30 12 C -0.092127 -1.558976 -1.879633 0
M  V30 13 C 0.927531 -0.516221 -1.552536 0
M  V30 14 O 1.899730 -0.934828 -0.647313 0
M  V30 15 H 0.952632 1.871257 2.078578 0
M  V30 16 H 2.191224 0.797478 1.480166 0
M  V30 17 H 2.492638 1.241938 3.774234 0
M  V30 18 H 2.409712 -0.503023 3.435928 0
M  V30 19 H -1.379599 -1.098266 1.311628 0
M  V30 20 H -0.987555 -0.731806 2.975194 0
M  V30 21 H -2.886210 0.562540 2.228158 0
M  V30 22 H -1.588229 1.765778 2.402496 0
M  V30 23 H 0.280598 -3.603697 0.703656 0
M  V30 24 H 1.115377 -3.299413 -1.376210 0
M  V30 25 H -0.649908 -3.564754 -1.500271 0
M  V30 26 H -1.121453 -1.228485 -1.663058 0
M  V30 27 H 0.009588 -1.783994 -2.958742 0
M  V30 28 H 1.385977 -0.060091 -2.459957 0
M  V30 29 H 0.399893 0.328284 -1.049518 0
M  V30 END ATOM
M  V30 BEGIN BOND
M  V30 1 2 1 2
M  V30 2 1 2 3
M  V30 3 1 3 4
M  V30 4 1 4 5
M  V30 5 1 5 6
M  V30 6 1 3 7
M  V30 7 1 7 8
M  V30 8 1 8 9
M  V30 9 1 2 10
M  V30 10 1 10 11
M  V30 11 1 11 12
M  V30 12 1 12 13
M  V30 13 1 13 14
M  V30 14 1 14 2
M  V30 15 1 4 15
M  V30 16 1 4 16
M  V30 17 1 5 17
M  V30 18 1 5 18
M  V30 19 1 7 19
M  V30 20 1 7 20
M  V30 21 1 8 21
M  V30 22 1 8 22
M  V30 23 1 10 23
M  V30 24 1 11 24
M  V30 25 1 11 25
M  V30 26 1 12 26
M  V30 27 1 12 27
M  V30 28 1 13 28
M  V30 29 1 13 29
M  V30 END BOND
M  V30 END CTAB
M  END
>  <Dataset>  (336) 
ChEMBL_Kinases

>  <Ligand_Instance>  (336) 
nan

>  <PDB_ID>  (336) 
nan

>  <Standardized_SMILES>  (336) 
O=P1(N(CCCl)CCCl)NCCCO1

>  <Name>  (336) 
CYCLOPHOSPHAMIDE

>  <Pocket>  (336) 
nan

>  <ATP_Site>  (336) 
nan

>  <Peripheral>  (336) 
nan

>  <Num_H_Atoms_ProtBoundConf>  (336) 
nan

>  <Num_Resolved_Atoms>  (336) 
nan

>  <Num_Not_Resolved_Atoms>  (336) 
nan

$$$$
CHEMBL1200887
     RDKit          3D

  0  0  0  0  0  0  0  0  0  0999 V3000
M  V30 BEGIN CTAB
M  V30 COUNTS 56 57 0 0 0
M  V30 BEGIN ATOM
M  V30 1 C 3.374920 -4.650444 2.157516 0
M  V30 2 O 2.497422 -5.381678 1.317676 0
M  V30 3 C 1.859105 -4.732841 0.283308 0
M  V30 4 C 2.047340 -3.389201 0.037100 0
M  V30 5 C 1.412444 -2.742892 -0.992097 0
M  V30 6 C 1.537359 -1.333281 -1.338545 0
M  V30 7 O 0.896259 -0.866135 -2.337634 0
M  V30 8 N 2.336170 -0.431172 -0.628363 0
M  V30 9 C 2.554243 0.984461 -0.855556 0
M  V30 10 C 1.394477 1.805814 -0.397683 0
M  V30 11 C 0.329668 2.165517 -1.200219 0
M  V30 12 C -0.696534 2.937192 -0.638486 0
M  V30 13 C -0.669081 3.348561 0.702902 0
M  V30 14 O -1.798376 4.072995 0.924686 0
M  V30 15 C -2.259504 4.692023 2.081984 0
M  V30 16 C -2.528910 3.729659 3.183413 0
M  V30 17 N -3.543840 2.759136 2.777126 0
M  V30 18 C -3.845549 1.805030 3.802751 0
M  V30 19 C -4.713641 3.386089 2.219212 0
M  V30 20 C 0.423207 2.950846 1.434071 0
M  V30 21 C 1.451130 2.194074 0.923567 0
M  V30 22 C 0.569960 -3.548993 -1.760357 0
M  V30 23 C 0.349523 -4.884528 -1.557513 0
M  V30 24 O -0.493895 -5.640837 -2.344476 0
M  V30 25 C -1.219459 -5.147750 -3.431652 0
M  V30 26 C 1.011315 -5.487673 -0.510027 0
M  V30 27 O 0.828887 -6.848884 -0.250294 0
M  V30 28 C 1.721884 -7.734581 -0.910820 0
M  V30 29 H 2.846289 -3.727631 2.490793 0
M  V30 30 H 4.274845 -4.318539 1.606585 0
M  V30 31 H 3.737993 -5.248083 3.007326 0
M  V30 32 H 2.699642 -2.819887 0.651561 0
M  V30 33 H 2.849116 -0.853991 0.188779 0
M  V30 34 H 3.470646 1.328968 -0.344212 0
M  V30 35 H 2.741327 1.175662 -1.938399 0
M  V30 36 H 0.377349 1.816462 -2.218190 0
M  V30 37 H -1.446175 3.125598 -1.407673 0
M  V30 38 H -1.403879 5.353603 2.428633 0
M  V30 39 H -3.107403 5.385502 1.891722 0
M  V30 40 H -2.951331 4.302682 4.052464 0
M  V30 41 H -1.674586 3.163988 3.516003 0
M  V30 42 H -4.706345 2.138087 4.417836 0
M  V30 43 H -3.004321 1.675674 4.520024 0
M  V30 44 H -4.068426 0.800139 3.390589 0
M  V30 45 H -5.642861 2.810757 2.455055 0
M  V30 46 H -4.847456 4.407614 2.619619 0
M  V30 47 H -4.550919 3.466233 1.124365 0
M  V30 48 H 0.372626 3.315813 2.445890 0
M  V30 49 H 2.215297 1.985685 1.655977 0
M  V30 50 H 0.029480 -3.090863 -2.603112 0
M  V30 51 H -1.857323 -4.286190 -3.158892 0
M  V30 52 H -1.924461 -5.956331 -3.754519 0
M  V30 53 H -0.581926 -4.904760 -4.295953 0
M  V30 54 H 2.777524 -7.400813 -0.720412 0
M  V30 55 H 1.596499 -7.685183 -2.009476 0
M  V30 56 H 1.575759 -8.776566 -0.581127 0
M  V30 END ATOM
M  V30 BEGIN BOND
M  V30 1 1 1 2
M  V30 2 1 2 3
M  V30 3 2 3 4
M  V30 4 1 4 5
M  V30 5 1 5 6
M  V30 6 2 6 7
M  V30 7 1 6 8
M  V30 8 1 8 9
M  V30 9 1 9 10
M  V30 10 2 10 11
M  V30 11 1 11 12
M  V30 12 2 12 13
M  V30 13 1 13 14
M  V30 14 1 14 15
M  V30 15 1 15 16
M  V30 16 1 16 17
M  V30 17 1 17 18
M  V30 18 1 17 19
M  V30 19 1 13 20
M  V30 20 2 20 21
M  V30 21 2 5 22
M  V30 22 1 22 23
M  V30 23 1 23 24
M  V30 24 1 24 25
M  V30 25 2 23 26
M  V30 26 1 26 27
M  V30 27 1 27 28
M  V30 28 1 26 3
M  V30 29 1 21 10
M  V30 30 1 1 29
M  V30 31 1 1 30
M  V30 32 1 1 31
M  V30 33 1 4 32
M  V30 34 1 8 33
M  V30 35 1 9 34
M  V30 36 1 9 35
M  V30 37 1 11 36
M  V30 38 1 12 37
M  V30 39 1 15 38
M  V30 40 1 15 39
M  V30 41 1 16 40
M  V30 42 1 16 41
M  V30 43 1 18 42
M  V30 44 1 18 43
M  V30 45 1 18 44
M  V30 46 1 19 45
M  V30 47 1 19 46
M  V30 48 1 19 47
M  V30 49 1 20 48
M  V30 50 1 21 49
M  V30 51 1 22 50
M  V30 52 1 25 51
M  V30 53 1 25 52
M  V30 54 1 25 53
M  V30 55 1 28 54
M  V30 56 1 28 55
M  V30 57 1 28 56
M  V30 END BOND
M  V30 END CTAB
M  END
>  <Dataset>  (337) 
ChEMBL_Kinases

>  <Ligand_Instance>  (337) 
nan

>  <PDB_ID>  (337) 
nan

>  <Standardized_SMILES>  (337) 
COc1cc(C(=O)NCc2ccc(OCCN(C)C)cc2)cc(OC)c1OC

>  <Name>  (337) 
TRIMETHOBENZAMIDE HYDROCHLORIDE

>  <Pocket>  (337) 
nan

>  <ATP_Site>  (337) 
nan

>  <Peripheral>  (337) 
nan

>  <Num_H_Atoms_ProtBoundConf>  (337) 
nan

>  <Num_Resolved_Atoms>  (337) 
nan

>  <Num_Not_Resolved_Atoms>  (337) 
nan

$$$$
CHEMBL119849
     RDKit          3D

  0  0  0  0  0  0  0  0  0  0999 V3000
M  V30 BEGIN CTAB
M  V30 COUNTS 38 41 0 0 0
M  V30 BEGIN ATOM
M  V30 1 C 2.094576 -5.004904 1.098173 0
M  V30 2 S 3.563757 -3.988359 0.792156 0
M  V30 3 C 3.040301 -2.280311 0.736798 0
M  V30 4 N 4.032867 -1.390711 0.513772 0
M  V30 5 C 3.648526 -0.083772 0.468863 0
M  V30 6 C 2.337248 0.328612 0.637305 0
M  V30 7 C 1.359217 -0.626865 0.863332 0
M  V30 8 C -0.021423 -0.211297 1.042418 0
M  V30 9 C -0.802642 0.438630 0.086704 0
M  V30 10 C -0.392913 0.828998 -1.275486 0
M  V30 11 C -0.006363 -0.000998 -2.307559 0
M  V30 12 C 0.340018 0.581234 -3.513037 0
M  V30 13 C 0.301946 1.949869 -3.683800 0
M  V30 14 C -0.081682 2.795444 -2.664123 0
M  V30 15 C -0.428652 2.214981 -1.457129 0
M  V30 16 N -2.027341 0.647401 0.652867 0
M  V30 17 C -2.008601 0.146531 1.912444 0
M  V30 18 N -2.983890 0.123927 2.844361 0
M  V30 19 C -2.759804 -0.435479 4.068719 0
M  V30 20 N -3.780332 -0.464828 5.058219 0
M  V30 21 C -1.507688 -0.965867 4.297433 0
M  V30 22 C -0.498372 -0.940901 3.329003 0
M  V30 23 N -0.789358 -0.373393 2.144097 0
M  V30 24 N 1.756573 -1.910822 0.904415 0
M  V30 25 H 1.955697 -5.011229 2.199961 0
M  V30 26 H 1.208182 -4.491068 0.671731 0
M  V30 27 H 2.250981 -6.016300 0.678375 0
M  V30 28 H 4.331802 0.738323 0.298721 0
M  V30 29 H 2.029509 1.349932 0.603266 0
M  V30 30 H -0.014780 -1.051673 -2.058844 0
M  V30 31 H 0.631881 -0.138198 -4.272599 0
M  V30 32 H 0.586611 2.351195 -4.658449 0
M  V30 33 H -0.106496 3.869771 -2.813724 0
M  V30 34 H -0.725675 2.930774 -0.680593 0
M  V30 35 H -3.568942 -0.914625 5.962077 0
M  V30 36 H -4.700132 -0.030118 4.828640 0
M  V30 37 H -1.254723 -1.421777 5.232204 0
M  V30 38 H 0.464838 -1.363258 3.541472 0
M  V30 END ATOM
M  V30 BEGIN BOND
M  V30 1 1 1 2
M  V30 2 1 2 3
M  V30 3 2 3 4
M  V30 4 1 4 5
M  V30 5 2 5 6
M  V30 6 1 6 7
M  V30 7 1 7 8
M  V30 8 2 8 9
M  V30 9 1 9 10
M  V30 10 2 10 11
M  V30 11 1 11 12
M  V30 12 2 12 13
M  V30 13 1 13 14
M  V30 14 2 14 15
M  V30 15 1 9 16
M  V30 16 2 16 17
M  V30 17 1 17 18
M  V30 18 2 18 19
M  V30 19 1 19 20
M  V30 20 1 19 21
M  V30 21 2 21 22
M  V30 22 1 22 23
M  V30 23 2 7 24
M  V30 24 1 24 3
M  V30 25 1 23 8
M  V30 26 1 15 10
M  V30 27 1 23 17
M  V30 28 1 1 25
M  V30 29 1 1 26
M  V30 30 1 1 27
M  V30 31 1 5 28
M  V30 32 1 6 29
M  V30 33 1 11 30
M  V30 34 1 12 31
M  V30 35 1 13 32
M  V30 36 1 14 33
M  V30 37 1 15 34
M  V30 38 1 20 35
M  V30 39 1 20 36
M  V30 40 1 21 37
M  V30 41 1 22 38
M  V30 END BOND
M  V30 END CTAB
M  END
>  <Dataset>  (338) 
ChEMBL_Kinases

>  <Ligand_Instance>  (338) 
nan

>  <PDB_ID>  (338) 
nan

>  <Standardized_SMILES>  (338) 
CSc1nccc(-c2c(-c3ccccc3)nc3nc(N)ccn23)n1

>  <Name>  (338) 
nan

>  <Pocket>  (338) 
nan

>  <ATP_Site>  (338) 
nan

>  <Peripheral>  (338) 
nan

>  <Num_H_Atoms_ProtBoundConf>  (338) 
nan

>  <Num_Resolved_Atoms>  (338) 
nan

>  <Num_Not_Resolved_Atoms>  (338) 
nan

$$$$
CHEMBL1223118
     RDKit          3D

  0  0  0  0  0  0  0  0  0  0999 V3000
M  V30 BEGIN CTAB
M  V30 COUNTS 60 64 0 0 0
M  V30 BEGIN ATOM
M  V30 1 C 6.752407 -2.315172 6.802138 0
M  V30 2 O 7.406996 -1.070476 6.783308 0
M  V30 3 C 6.925613 0.033137 6.122812 0
M  V30 4 C 5.735244 0.003710 5.403975 0
M  V30 5 C 5.238145 1.121474 4.729465 0
M  V30 6 C 3.978227 0.959377 4.007578 0
M  V30 7 C 3.035397 1.973436 3.826734 0
M  V30 8 C 1.867786 1.727694 3.121214 0
M  V30 9 C 1.625990 0.478130 2.591630 0
M  V30 10 C 2.535196 -0.548922 2.749846 0
M  V30 11 C 3.695639 -0.291318 3.454492 0
M  V30 12 N 2.080902 -1.763214 2.117032 0
M  V30 13 C 0.815627 -1.445764 1.540453 0
M  V30 14 O 0.182947 -2.310349 0.919965 0
M  V30 15 C 0.517120 -0.068579 1.823754 0
M  V30 16 C -0.581253 0.511606 1.386933 0
M  V30 17 C -1.677050 -0.061334 0.624982 0
M  V30 18 C -2.426766 -1.228412 0.875484 0
M  V30 19 C -3.394165 -1.594980 0.017205 0
M  V30 20 C -3.671479 -0.862037 -1.094711 0
M  V30 21 C -4.642422 -1.031360 -2.174012 0
M  V30 22 O -5.369694 -2.041025 -2.100998 0
M  V30 23 N -4.695278 -0.061744 -3.211727 0
M  V30 24 C -5.647375 -0.237999 -4.271791 0
M  V30 25 C -5.475976 -1.502722 -5.068561 0
M  V30 26 C -6.507279 -1.630428 -6.170618 0
M  V30 27 N -6.339176 -2.841248 -6.937207 0
M  V30 28 C -6.986803 -3.969551 -6.537263 0
M  V30 29 C -6.658153 -4.970652 -7.436411 0
M  V30 30 N -5.834448 -4.435784 -8.342755 0
M  V30 31 C -5.642834 -3.149693 -8.040035 0
M  V30 32 Se -2.446705 0.528586 -0.965292 0 VAL=2
M  V30 33 C 5.968322 2.309923 4.782275 0
M  V30 34 C 7.172079 2.367454 5.499784 0
M  V30 35 C 7.615794 1.225070 6.149629 0
M  V30 36 O 8.815270 1.288670 6.862743 0
M  V30 37 H 6.420081 -2.589409 5.797873 0
M  V30 38 H 5.869626 -2.320066 7.478668 0
M  V30 39 H 7.442842 -3.084304 7.247056 0
M  V30 40 H 5.234760 -0.955900 5.418583 0
M  V30 41 H 3.260302 2.920536 4.252326 0
M  V30 42 H 1.125474 2.504700 2.975164 0
M  V30 43 H 4.402685 -1.096649 3.573888 0
M  V30 44 H 2.596040 -2.656814 2.107649 0
M  V30 45 H -0.703029 1.581684 1.619247 0
M  V30 46 H -2.232599 -1.823515 1.788598 0
M  V30 47 H -4.011320 -2.487701 0.146018 0
M  V30 48 H -4.034008 0.773179 -3.180393 0
M  V30 49 H -6.711320 -0.162019 -3.955706 0
M  V30 50 H -5.516095 0.630820 -4.979224 0
M  V30 51 H -5.517113 -2.376519 -4.395693 0
M  V30 52 H -4.449944 -1.512988 -5.536628 0
M  V30 53 H -7.523278 -1.555916 -5.732888 0
M  V30 54 H -6.381442 -0.719493 -6.817761 0
M  V30 55 H -7.652551 -4.125521 -5.680466 0
M  V30 56 H -7.003786 -6.008616 -7.416007 0
M  V30 57 H -5.068946 -2.331205 -8.476178 0
M  V30 58 H 5.579392 3.172348 4.259259 0
M  V30 59 H 7.731404 3.307511 5.531447 0
M  V30 60 H 9.131653 0.475385 7.397989 0
M  V30 END ATOM
M  V30 BEGIN BOND
M  V30 1 1 1 2
M  V30 2 1 2 3
M  V30 3 2 3 4
M  V30 4 1 4 5
M  V30 5 1 5 6
M  V30 6 2 6 7
M  V30 7 1 7 8
M  V30 8 2 8 9
M  V30 9 1 9 10
M  V30 10 2 10 11
M  V30 11 1 10 12
M  V30 12 1 12 13
M  V30 13 2 13 14
M  V30 14 1 13 15
M  V30 15 2 15 16
M  V30 16 1 16 17
M  V30 17 2 17 18
M  V30 18 1 18 19
M  V30 19 2 19 20
M  V30 20 1 20 21
M  V30 21 2 21 22
M  V30 22 1 21 23
M  V30 23 1 23 24
M  V30 24 1 24 25
M  V30 25 1 25 26
M  V30 26 1 26 27
M  V30 27 1 27 28
M  V30 28 2 28 29
M  V30 29 1 29 30
M  V30 30 2 30 31
M  V30 31 1 20 32
M  V30 32 2 5 33
M  V30 33 1 33 34
M  V30 34 2 34 35
M  V30 35 1 35 36
M  V30 36 1 35 3
M  V30 37 1 11 6
M  V30 38 1 32 17
M  V30 39 1 15 9
M  V30 40 1 31 27
M  V30 41 1 1 37
M  V30 42 1 1 38
M  V30 43 1 1 39
M  V30 44 1 4 40
M  V30 45 1 7 41
M  V30 46 1 8 42
M  V30 47 1 11 43
M  V30 48 1 12 44
M  V30 49 1 16 45
M  V30 50 1 18 46
M  V30 51 1 19 47
M  V30 52 1 23 48
M  V30 53 1 24 49
M  V30 54 1 24 50
M  V30 55 1 25 51
M  V30 56 1 25 52
M  V30 57 1 26 53
M  V30 58 1 26 54
M  V30 59 1 28 55
M  V30 60 1 29 56
M  V30 61 1 31 57
M  V30 62 1 33 58
M  V30 63 1 34 59
M  V30 64 1 36 60
M  V30 END BOND
M  V30 END CTAB
M  END
>  <Dataset>  (339) 
ChEMBL_Kinases

>  <Ligand_Instance>  (339) 
nan

>  <PDB_ID>  (339) 
nan

>  <Standardized_SMILES>  (339) 
COc1cc(-c2ccc3c(c2)NC(=O)/C3=C\c2ccc(C(=O)NCCCn3ccnc3)[se]2)ccc1O

>  <Name>  (339) 
nan

>  <Pocket>  (339) 
nan

>  <ATP_Site>  (339) 
nan

>  <Peripheral>  (339) 
nan

>  <Num_H_Atoms_ProtBoundConf>  (339) 
nan

>  <Num_Resolved_Atoms>  (339) 
nan

>  <Num_Not_Resolved_Atoms>  (339) 
nan

$$$$
CHEMBL1223117
     RDKit          3D

  0  0  0  0  0  0  0  0  0  0999 V3000
M  V30 BEGIN CTAB
M  V30 COUNTS 63 67 0 0 0
M  V30 BEGIN ATOM
M  V30 1 C 7.000300 6.062899 3.099349 0
M  V30 2 O 8.058358 5.105812 3.189488 0
M  V30 3 C 7.719418 3.828418 2.764118 0
M  V30 4 C 6.457365 3.534578 2.296653 0
M  V30 5 C 6.120736 2.261305 1.873854 0
M  V30 6 C 4.791949 1.919743 1.370921 0
M  V30 7 C 3.991712 2.814500 0.675914 0
M  V30 8 C 2.737255 2.455271 0.217741 0
M  V30 9 C 2.290162 1.169950 0.470241 0
M  V30 10 C 3.069664 0.243978 1.166395 0
M  V30 11 C 4.319649 0.645677 1.607279 0
M  V30 12 N 2.385186 -1.006305 1.298089 0
M  V30 13 C 1.151635 -0.829809 0.661016 0
M  V30 14 O 0.279043 -1.725844 0.579271 0
M  V30 15 C 1.042349 0.503452 0.129555 0
M  V30 16 C 0.020063 1.006260 -0.522065 0
M  V30 17 C -1.182801 0.344460 -0.844580 0
M  V30 18 C -2.426171 0.928545 -0.741156 0
M  V30 19 C -3.587589 0.296216 -1.068979 0
M  V30 20 C -3.550740 -1.021943 -1.540848 0
M  V30 21 C -4.554953 -1.961128 -1.972284 0
M  V30 22 O -5.712587 -1.520203 -1.969871 0
M  V30 23 N -4.217676 -3.249772 -2.353023 0
M  V30 24 C -5.041263 -4.335863 -2.815234 0
M  V30 25 C -5.770452 -4.018562 -4.075468 0
M  V30 26 N -6.716060 -2.942733 -4.004154 0
M  V30 27 C -7.246777 -2.714205 -5.356492 0
M  V30 28 C -8.307129 -1.648179 -5.321566 0
M  V30 29 O -9.393779 -2.108308 -4.545550 0
M  V30 30 C -8.861924 -2.217819 -3.244059 0
M  V30 31 C -7.915644 -3.389828 -3.247216 0
M  V30 32 Se -1.626369 -1.425613 -1.521062 0 VAL=2
M  V30 33 C 7.076815 1.244789 1.918684 0
M  V30 34 C 8.374896 1.485562 2.383694 0
M  V30 35 C 8.614952 2.777817 2.781084 0
M  V30 36 O 9.918405 3.033190 3.251526 0
M  V30 37 H 7.309525 7.048121 3.500779 0
M  V30 38 H 6.131271 5.675231 3.709815 0
M  V30 39 H 6.633389 6.160681 2.051421 0
M  V30 40 H 5.683926 4.300308 2.245304 0
M  V30 41 H 4.353110 3.815746 0.489126 0
M  V30 42 H 2.126593 3.166223 -0.322679 0
M  V30 43 H 4.935973 -0.056465 2.147218 0
M  V30 44 H 2.751262 -1.860845 1.774897 0
M  V30 45 H 0.125041 2.032999 -0.842127 0
M  V30 46 H -2.544598 1.969183 -0.375732 0
M  V30 47 H -4.592594 0.683844 -1.015931 0
M  V30 48 H -3.175693 -3.467278 -2.292444 0
M  V30 49 H -5.786964 -4.625978 -2.023619 0
M  V30 50 H -4.419227 -5.223766 -2.989872 0
M  V30 51 H -5.015833 -3.756274 -4.854274 0
M  V30 52 H -6.250765 -4.967393 -4.444191 0
M  V30 53 H -7.685954 -3.626033 -5.791914 0
M  V30 54 H -6.436763 -2.384872 -6.052619 0
M  V30 55 H -7.961691 -0.723973 -4.801021 0
M  V30 56 H -8.638525 -1.438049 -6.348188 0
M  V30 57 H -9.703936 -2.338560 -2.539551 0
M  V30 58 H -8.319327 -1.256735 -3.078937 0
M  V30 59 H -7.568066 -3.644292 -2.228830 0
M  V30 60 H -8.357907 -4.222539 -3.799926 0
M  V30 61 H 6.891847 0.209055 1.606304 0
M  V30 62 H 9.138014 0.721774 2.432819 0
M  V30 63 H 10.572104 3.479119 2.629939 0
M  V30 END ATOM
M  V30 BEGIN BOND
M  V30 1 1 1 2
M  V30 2 1 2 3
M  V30 3 2 3 4
M  V30 4 1 4 5
M  V30 5 1 5 6
M  V30 6 2 6 7
M  V30 7 1 7 8
M  V30 8 2 8 9
M  V30 9 1 9 10
M  V30 10 2 10 11
M  V30 11 1 10 12
M  V30 12 1 12 13
M  V30 13 2 13 14
M  V30 14 1 13 15
M  V30 15 2 15 16
M  V30 16 1 16 17
M  V30 17 2 17 18
M  V30 18 1 18 19
M  V30 19 2 19 20
M  V30 20 1 20 21
M  V30 21 2 21 22
M  V30 22 1 21 23
M  V30 23 1 23 24
M  V30 24 1 24 25
M  V30 25 1 25 26
M  V30 26 1 26 27
M  V30 27 1 27 28
M  V30 28 1 28 29
M  V30 29 1 29 30
M  V30 30 1 30 31
M  V30 31 1 20 32
M  V30 32 2 5 33
M  V30 33 1 33 34
M  V30 34 2 34 35
M  V30 35 1 35 36
M  V30 36 1 35 3
M  V30 37 1 11 6
M  V30 38 1 32 17
M  V30 39 1 15 9
M  V30 40 1 31 26
M  V30 41 1 1 37
M  V30 42 1 1 38
M  V30 43 1 1 39
M  V30 44 1 4 40
M  V30 45 1 7 41
M  V30 46 1 8 42
M  V30 47 1 11 43
M  V30 48 1 12 44
M  V30 49 1 16 45
M  V30 50 1 18 46
M  V30 51 1 19 47
M  V30 52 1 23 48
M  V30 53 1 24 49
M  V30 54 1 24 50
M  V30 55 1 25 51
M  V30 56 1 25 52
M  V30 57 1 27 53
M  V30 58 1 27 54
M  V30 59 1 28 55
M  V30 60 1 28 56
M  V30 61 1 30 57
M  V30 62 1 30 58
M  V30 63 1 31 59
M  V30 64 1 31 60
M  V30 65 1 33 61
M  V30 66 1 34 62
M  V30 67 1 36 63
M  V30 END BOND
M  V30 END CTAB
M  END
>  <Dataset>  (340) 
ChEMBL_Kinases

>  <Ligand_Instance>  (340) 
nan

>  <PDB_ID>  (340) 
nan

>  <Standardized_SMILES>  (340) 
COc1cc(-c2ccc3c(c2)NC(=O)/C3=C\c2ccc(C(=O)NCCN3CCOCC3)[se]2)ccc1O

>  <Name>  (340) 
nan

>  <Pocket>  (340) 
nan

>  <ATP_Site>  (340) 
nan

>  <Peripheral>  (340) 
nan

>  <Num_H_Atoms_ProtBoundConf>  (340) 
nan

>  <Num_Resolved_Atoms>  (340) 
nan

>  <Num_Not_Resolved_Atoms>  (340) 
nan

$$$$
CHEMBL1223116
     RDKit          3D

  0  0  0  0  0  0  0  0  0  0999 V3000
M  V30 BEGIN CTAB
M  V30 COUNTS 62 66 0 0 0
M  V30 BEGIN ATOM
M  V30 1 C 5.897397 1.526033 8.347486 0
M  V30 2 O 4.672516 1.609206 7.688185 0
M  V30 3 C 3.664730 1.684912 7.090368 0
M  V30 4 C 3.295916 1.855428 5.804196 0
M  V30 5 C 1.988334 1.906672 5.372762 0
M  V30 6 C 1.464342 2.028230 3.996463 0
M  V30 7 C 2.295791 1.424529 3.082339 0
M  V30 8 C 1.898751 1.332831 1.756538 0
M  V30 9 C 0.664578 1.866297 1.452356 0
M  V30 10 C -0.184294 2.486014 2.387537 0
M  V30 11 C 0.221485 2.572740 3.693157 0
M  V30 12 N -1.417171 2.852815 1.703617 0
M  V30 13 C -1.378377 2.470163 0.326296 0
M  V30 14 O -2.235560 2.608216 -0.565848 0
M  V30 15 C -0.098712 1.879422 0.242024 0
M  V30 16 C 0.388089 1.365527 -0.825835 0
M  V30 17 C -0.266851 1.252001 -2.248958 0
M  V30 18 C -1.297051 0.287012 -1.773880 0
M  V30 19 C -2.372087 -0.467891 -2.171939 0
M  V30 20 C -2.418138 -0.117136 -3.526744 0
M  V30 21 C -3.087042 -0.425810 -4.832706 0
M  V30 22 O -3.657057 -0.780817 -5.898025 0
M  V30 23 N -3.291842 -1.891253 -4.566818 0
M  V30 24 C -3.970548 -2.924607 -5.384784 0
M  V30 25 C -3.812565 -4.319607 -4.771976 0
M  V30 26 N -2.550151 -4.902953 -4.905424 0
M  V30 27 C -1.429896 -4.318589 -4.247231 0
M  V30 28 C -0.374280 -5.477623 -4.401903 0
M  V30 29 C -1.263811 -6.544170 -3.703263 0
M  V30 30 C -2.621853 -6.259473 -4.329192 0
M  V30 31 Se -1.028947 1.111360 -3.874901 0 VAL=2
M  V30 32 C 0.939189 1.780716 6.307612 0
M  V30 33 C 1.244673 1.597941 7.691971 0
M  V30 34 C 2.606287 1.559489 8.012211 0
M  V30 35 O 2.656048 1.374713 9.407442 0
M  V30 36 H 6.070525 2.495586 8.891550 0
M  V30 37 H 6.754069 1.528248 7.584403 0
M  V30 38 H 6.052669 0.683165 9.012121 0
M  V30 39 H 4.031087 1.963961 5.049229 0
M  V30 40 H 3.286483 0.988061 3.321036 0
M  V30 41 H 2.545618 0.866764 1.005373 0
M  V30 42 H -0.360894 3.032537 4.453800 0
M  V30 43 H -2.181951 3.320384 2.208573 0
M  V30 44 H 1.365947 0.901991 -1.026651 0
M  V30 45 H -1.485575 -0.163409 -0.699548 0
M  V30 46 H -3.189304 -1.119245 -2.142687 0
M  V30 47 H -2.974340 -2.461310 -3.672190 0
M  V30 48 H -5.061052 -2.709776 -5.361777 0
M  V30 49 H -3.538589 -2.879737 -6.406176 0
M  V30 50 H -3.930469 -4.134989 -3.620979 0
M  V30 51 H -4.644002 -4.999254 -5.010815 0
M  V30 52 H -1.070791 -3.406251 -4.670221 0
M  V30 53 H -1.647221 -4.372801 -3.171212 0
M  V30 54 H -0.217918 -5.719911 -5.449995 0
M  V30 55 H 0.494108 -5.192790 -3.810789 0
M  V30 56 H -0.859706 -7.517958 -3.909120 0
M  V30 57 H -1.226576 -6.321292 -2.615986 0
M  V30 58 H -3.367838 -6.349732 -3.540394 0
M  V30 59 H -2.810420 -7.015250 -5.114030 0
M  V30 60 H -0.093843 1.827585 6.013385 0
M  V30 61 H 0.338062 1.505204 8.316940 0
M  V30 62 H 2.778843 0.425641 9.716733 0
M  V30 END ATOM
M  V30 BEGIN BOND
M  V30 1 1 1 2
M  V30 2 1 2 3
M  V30 3 2 3 4
M  V30 4 1 4 5
M  V30 5 1 5 6
M  V30 6 2 6 7
M  V30 7 1 7 8
M  V30 8 2 8 9
M  V30 9 1 9 10
M  V30 10 2 10 11
M  V30 11 1 10 12
M  V30 12 1 12 13
M  V30 13 2 13 14
M  V30 14 1 13 15
M  V30 15 2 15 16
M  V30 16 1 16 17
M  V30 17 2 17 18
M  V30 18 1 18 19
M  V30 19 2 19 20
M  V30 20 1 20 21
M  V30 21 2 21 22
M  V30 22 1 21 23
M  V30 23 1 23 24
M  V30 24 1 24 25
M  V30 25 1 25 26
M  V30 26 1 26 27
M  V30 27 1 27 28
M  V30 28 1 28 29
M  V30 29 1 29 30
M  V30 30 1 20 31
M  V30 31 2 5 32
M  V30 32 1 32 33
M  V30 33 2 33 34
M  V30 34 1 34 35
M  V30 35 1 34 3
M  V30 36 1 11 6
M  V30 37 1 31 17
M  V30 38 1 15 9
M  V30 39 1 30 26
M  V30 40 1 1 36
M  V30 41 1 1 37
M  V30 42 1 1 38
M  V30 43 1 4 39
M  V30 44 1 7 40
M  V30 45 1 8 41
M  V30 46 1 11 42
M  V30 47 1 12 43
M  V30 48 1 16 44
M  V30 49 1 18 45
M  V30 50 1 19 46
M  V30 51 1 23 47
M  V30 52 1 24 48
M  V30 53 1 24 49
M  V30 54 1 25 50
M  V30 55 1 25 51
M  V30 56 1 27 52
M  V30 57 1 27 53
M  V30 58 1 28 54
M  V30 59 1 28 55
M  V30 60 1 29 56
M  V30 61 1 29 57
M  V30 62 1 30 58
M  V30 63 1 30 59
M  V30 64 1 32 60
M  V30 65 1 33 61
M  V30 66 1 35 62
M  V30 END BOND
M  V30 END CTAB
M  END
>  <Dataset>  (341) 
ChEMBL_Kinases

>  <Ligand_Instance>  (341) 
nan

>  <PDB_ID>  (341) 
nan

>  <Standardized_SMILES>  (341) 
COc1cc(-c2ccc3c(c2)NC(=O)/C3=C\c2ccc(C(=O)NCCN3CCCC3)[se]2)ccc1O

>  <Name>  (341) 
nan

>  <Pocket>  (341) 
nan

>  <ATP_Site>  (341) 
nan

>  <Peripheral>  (341) 
nan

>  <Num_H_Atoms_ProtBoundConf>  (341) 
nan

>  <Num_Resolved_Atoms>  (341) 
nan

>  <Num_Not_Resolved_Atoms>  (341) 
nan

$$$$
CHEMBL1223115
     RDKit          3D

  0  0  0  0  0  0  0  0  0  0999 V3000
M  V30 BEGIN CTAB
M  V30 COUNTS 64 67 0 0 0
M  V30 BEGIN ATOM
M  V30 1 C 3.877735 -2.550471 3.987266 0
M  V30 2 C 3.368731 -1.193025 3.578683 0
M  V30 3 N 3.370700 -0.984030 2.166088 0
M  V30 4 C 2.436842 -1.840373 1.541220 0
M  V30 5 C 1.001605 -1.474841 1.912091 0
M  V30 6 C 4.689503 -0.886254 1.668879 0
M  V30 7 C 4.785159 -0.588084 0.179049 0
M  V30 8 N 4.126305 0.642256 -0.123840 0
M  V30 9 C 4.300152 2.010889 0.162464 0
M  V30 10 O 5.354777 2.305551 0.834368 0
M  V30 11 C 3.343167 3.060403 -0.266040 0
M  V30 12 C 3.053949 4.266120 -0.604639 0
M  V30 13 C 1.773563 4.679216 -0.771993 0
M  V30 14 C 0.639258 4.028493 -0.647615 0
M  V30 15 C -0.656171 3.305591 -0.507923 0
M  V30 16 C -1.264782 2.594950 -1.474899 0
M  V30 17 C -0.900023 2.358644 -2.872479 0
M  V30 18 O -0.017784 3.129362 -3.307089 0
M  V30 19 N -1.690876 1.287760 -3.321452 0
M  V30 20 C -2.537043 0.849784 -2.240748 0
M  V30 21 C -3.393458 -0.251871 -2.123635 0
M  V30 22 C -3.954472 -0.499575 -0.872056 0
M  V30 23 C -4.632155 -1.818942 -0.967066 0
M  V30 24 C -5.314867 -2.521777 -1.894493 0
M  V30 25 C -5.602616 -3.864172 -1.692612 0
M  V30 26 C -5.184217 -4.505961 -0.523607 0
M  V30 27 O -5.637646 -5.827232 -0.665805 0
M  V30 28 C -4.464062 -3.811957 0.487371 0
M  V30 29 O -4.300930 -4.818719 1.397160 0
M  V30 30 C -3.738966 -4.581666 2.684537 0
M  V30 31 C -4.254310 -2.527385 0.177977 0
M  V30 32 C -3.756125 0.228996 0.240759 0
M  V30 33 C -2.911877 1.315082 0.107201 0
M  V30 34 C -2.320459 1.594198 -1.133506 0
M  V30 35 Se 1.603853 2.336872 -0.153263 0 VAL=2
M  V30 36 H 4.618992 -2.459791 4.798776 0
M  V30 37 H 3.026711 -3.185376 4.359851 0
M  V30 38 H 4.311254 -3.133951 3.164672 0
M  V30 39 H 2.388341 -1.013904 4.071991 0
M  V30 40 H 4.054960 -0.419296 4.032693 0
M  V30 41 H 2.523605 -2.916155 1.823877 0
M  V30 42 H 2.480037 -1.823685 0.413854 0
M  V30 43 H 0.404400 -1.164533 1.056930 0
M  V30 44 H 1.066856 -0.610089 2.604950 0
M  V30 45 H 0.470086 -2.303459 2.442949 0
M  V30 46 H 5.206700 -1.861589 1.828028 0
M  V30 47 H 5.247942 -0.134642 2.269246 0
M  V30 48 H 4.315055 -1.414073 -0.356808 0
M  V30 49 H 5.852191 -0.619379 -0.085889 0
M  V30 50 H 3.274195 0.479911 -0.748310 0
M  V30 51 H 3.963036 4.808155 -0.723693 0
M  V30 52 H 1.342484 5.627505 -1.056638 0
M  V30 53 H -1.168851 3.389914 0.467380 0
M  V30 54 H -1.592327 0.973339 -4.282674 0
M  V30 55 H -3.534917 -0.816966 -3.053202 0
M  V30 56 H -5.553767 -1.845449 -2.723117 0
M  V30 57 H -6.157024 -4.221507 -2.570279 0
M  V30 58 H -5.025352 -6.601559 -0.795730 0
M  V30 59 H -3.563869 -5.483679 3.244927 0
M  V30 60 H -4.462398 -3.946687 3.216576 0
M  V30 61 H -2.799594 -3.979245 2.566249 0
M  V30 62 H -3.695554 -2.206775 1.069693 0
M  V30 63 H -4.247364 -0.072880 1.136596 0
M  V30 64 H -2.727824 1.922631 1.000467 0
M  V30 END ATOM
M  V30 BEGIN BOND
M  V30 1 1 1 2
M  V30 2 1 2 3
M  V30 3 1 3 4
M  V30 4 1 4 5
M  V30 5 1 3 6
M  V30 6 1 6 7
M  V30 7 1 7 8
M  V30 8 1 8 9
M  V30 9 2 9 10
M  V30 10 1 9 11
M  V30 11 2 11 12
M  V30 12 1 12 13
M  V30 13 2 13 14
M  V30 14 1 14 15
M  V30 15 2 15 16
M  V30 16 1 16 17
M  V30 17 2 17 18
M  V30 18 1 17 19
M  V30 19 1 19 20
M  V30 20 2 20 21
M  V30 21 1 21 22
M  V30 22 1 22 23
M  V30 23 2 23 24
M  V30 24 1 24 25
M  V30 25 2 25 26
M  V30 26 1 26 27
M  V30 27 1 26 28
M  V30 28 1 28 29
M  V30 29 1 29 30
M  V30 30 2 28 31
M  V30 31 2 22 32
M  V30 32 1 32 33
M  V30 33 2 33 34
M  V30 34 1 14 35
M  V30 35 1 35 11
M  V30 36 1 34 16
M  V30 37 1 34 20
M  V30 38 1 31 23
M  V30 39 1 1 36
M  V30 40 1 1 37
M  V30 41 1 1 38
M  V30 42 1 2 39
M  V30 43 1 2 40
M  V30 44 1 4 41
M  V30 45 1 4 42
M  V30 46 1 5 43
M  V30 47 1 5 44
M  V30 48 1 5 45
M  V30 49 1 6 46
M  V30 50 1 6 47
M  V30 51 1 7 48
M  V30 52 1 7 49
M  V30 53 1 8 50
M  V30 54 1 12 51
M  V30 55 1 13 52
M  V30 56 1 15 53
M  V30 57 1 19 54
M  V30 58 1 21 55
M  V30 59 1 24 56
M  V30 60 1 25 57
M  V30 61 1 27 58
M  V30 62 1 30 59
M  V30 63 1 30 60
M  V30 64 1 30 61
M  V30 65 1 31 62
M  V30 66 1 32 63
M  V30 67 1 33 64
M  V30 END BOND
M  V30 END CTAB
M  END
>  <Dataset>  (342) 
ChEMBL_Kinases

>  <Ligand_Instance>  (342) 
nan

>  <PDB_ID>  (342) 
nan

>  <Standardized_SMILES>  (342) 
CCN(CC)CCNC(=O)c1ccc(/C=C2\C(=O)Nc3cc(-c4ccc(O)c(OC)c4)ccc32)[se]1

>  <Name>  (342) 
nan

>  <Pocket>  (342) 
nan

>  <ATP_Site>  (342) 
nan

>  <Peripheral>  (342) 
nan

>  <Num_H_Atoms_ProtBoundConf>  (342) 
nan

>  <Num_Resolved_Atoms>  (342) 
nan

>  <Num_Not_Resolved_Atoms>  (342) 
nan

$$$$
CHEMBL1223044
     RDKit          3D

  0  0  0  0  0  0  0  0  0  0999 V3000
M  V30 BEGIN CTAB
M  V30 COUNTS 58 61 0 0 0
M  V30 BEGIN ATOM
M  V30 1 C -3.734318 -5.220342 -7.637685 0
M  V30 2 O -4.861862 -5.427059 -6.826240 0
M  V30 3 C -4.929586 -4.942825 -5.527401 0
M  V30 4 C -3.935943 -4.217578 -4.875433 0
M  V30 5 C -4.062252 -3.768600 -3.596425 0
M  V30 6 C -2.954982 -3.019420 -3.016090 0
M  V30 7 C -2.762902 -3.135540 -1.635083 0
M  V30 8 C -1.721424 -2.437893 -1.057295 0
M  V30 9 C -0.921554 -1.662026 -1.863396 0
M  V30 10 C -1.072805 -1.517663 -3.226866 0
M  V30 11 C -2.120679 -2.225218 -3.778676 0
M  V30 12 N -0.064579 -0.636750 -3.739367 0
M  V30 13 C 0.726504 -0.235533 -2.630001 0
M  V30 14 O 1.694014 0.544871 -2.771473 0
M  V30 15 C 0.217897 -0.858994 -1.441551 0
M  V30 16 C 0.761003 -0.633961 -0.258056 0
M  V30 17 C 1.881176 0.157347 0.113450 0
M  V30 18 C 3.132803 0.415406 -0.217201 0
M  V30 19 C 3.937306 1.321979 0.404320 0
M  V30 20 C 3.437666 2.060352 1.485144 0
M  V30 21 C 3.997166 3.085459 2.364015 0
M  V30 22 O 5.164875 3.387525 2.126990 0
M  V30 23 N 3.146862 3.608495 3.374441 0
M  V30 24 C 3.848938 4.618573 4.166858 0
M  V30 25 C 2.923279 5.137073 5.207477 0
M  V30 26 N 1.734568 5.756067 4.775218 0
M  V30 27 C 1.815641 6.991914 4.095663 0
M  V30 28 C 0.587286 4.955320 4.557462 0
M  V30 29 Se 1.622727 1.371716 1.611949 0 VAL=2
M  V30 30 C -5.226574 -4.038592 -2.901047 0
M  V30 31 C -6.205036 -4.755698 -3.550331 0
M  V30 32 C -6.111194 -5.227557 -4.848669 0
M  V30 33 O -7.133410 -5.945601 -5.448785 0
M  V30 34 H -3.414031 -4.151766 -7.553540 0
M  V30 35 H -3.953657 -5.514107 -8.675230 0
M  V30 36 H -2.905392 -5.838243 -7.190265 0
M  V30 37 H -3.036579 -4.034926 -5.478277 0
M  V30 38 H -3.397062 -3.747553 -1.011493 0
M  V30 39 H -1.561321 -2.520080 0.017660 0
M  V30 40 H -2.290634 -2.153574 -4.839644 0
M  V30 41 H 0.047010 -0.358376 -4.738618 0
M  V30 42 H 0.220498 -1.173460 0.543456 0
M  V30 43 H 3.573836 -0.148680 -1.041233 0
M  V30 44 H 4.960845 1.574016 0.178628 0
M  V30 45 H 2.169588 3.257317 3.462610 0
M  V30 46 H 4.716355 4.138570 4.647639 0
M  V30 47 H 4.248368 5.374278 3.485602 0
M  V30 48 H 2.635494 4.268116 5.863247 0
M  V30 49 H 3.477413 5.883910 5.845503 0
M  V30 50 H 2.832346 7.316506 3.864162 0
M  V30 51 H 1.404615 7.782694 4.789291 0
M  V30 52 H 1.129996 7.050554 3.209953 0
M  V30 53 H 0.569969 4.000555 5.077140 0
M  V30 54 H -0.288907 5.534693 4.979957 0
M  V30 55 H 0.338264 4.796859 3.467379 0
M  V30 56 H -5.346292 -3.690729 -1.884661 0
M  V30 57 H -7.115234 -4.949388 -2.963016 0
M  V30 58 H -8.113304 -5.747250 -5.332417 0
M  V30 END ATOM
M  V30 BEGIN BOND
M  V30 1 1 1 2
M  V30 2 1 2 3
M  V30 3 2 3 4
M  V30 4 1 4 5
M  V30 5 1 5 6
M  V30 6 2 6 7
M  V30 7 1 7 8
M  V30 8 2 8 9
M  V30 9 1 9 10
M  V30 10 2 10 11
M  V30 11 1 10 12
M  V30 12 1 12 13
M  V30 13 2 13 14
M  V30 14 1 13 15
M  V30 15 2 15 16
M  V30 16 1 16 17
M  V30 17 2 17 18
M  V30 18 1 18 19
M  V30 19 2 19 20
M  V30 20 1 20 21
M  V30 21 2 21 22
M  V30 22 1 21 23
M  V30 23 1 23 24
M  V30 24 1 24 25
M  V30 25 1 25 26
M  V30 26 1 26 27
M  V30 27 1 26 28
M  V30 28 1 20 29
M  V30 29 2 5 30
M  V30 30 1 30 31
M  V30 31 2 31 32
M  V30 32 1 32 33
M  V30 33 1 32 3
M  V30 34 1 11 6
M  V30 35 1 29 17
M  V30 36 1 15 9
M  V30 37 1 1 34
M  V30 38 1 1 35
M  V30 39 1 1 36
M  V30 40 1 4 37
M  V30 41 1 7 38
M  V30 42 1 8 39
M  V30 43 1 11 40
M  V30 44 1 12 41
M  V30 45 1 16 42
M  V30 46 1 18 43
M  V30 47 1 19 44
M  V30 48 1 23 45
M  V30 49 1 24 46
M  V30 50 1 24 47
M  V30 51 1 25 48
M  V30 52 1 25 49
M  V30 53 1 27 50
M  V30 54 1 27 51
M  V30 55 1 27 52
M  V30 56 1 28 53
M  V30 57 1 28 54
M  V30 58 1 28 55
M  V30 59 1 30 56
M  V30 60 1 31 57
M  V30 61 1 33 58
M  V30 END BOND
M  V30 END CTAB
M  END
>  <Dataset>  (343) 
ChEMBL_Kinases

>  <Ligand_Instance>  (343) 
nan

>  <PDB_ID>  (343) 
nan

>  <Standardized_SMILES>  (343) 
COc1cc(-c2ccc3c(c2)NC(=O)/C3=C\c2ccc(C(=O)NCCN(C)C)[se]2)ccc1O

>  <Name>  (343) 
nan

>  <Pocket>  (343) 
nan

>  <ATP_Site>  (343) 
nan

>  <Peripheral>  (343) 
nan

>  <Num_H_Atoms_ProtBoundConf>  (343) 
nan

>  <Num_Resolved_Atoms>  (343) 
nan

>  <Num_Not_Resolved_Atoms>  (343) 
nan

$$$$
CHEMBL1223043
     RDKit          3D

  0  0  0  0  0  0  0  0  0  0999 V3000
M  V30 BEGIN CTAB
M  V30 COUNTS 46 49 0 0 0
M  V30 BEGIN ATOM
M  V30 1 C 5.589088 2.753891 -2.637066 0
M  V30 2 O 6.220278 1.727980 -1.875622 0
M  V30 3 C 5.424946 0.801694 -1.216291 0
M  V30 4 C 4.036613 0.760655 -1.213859 0
M  V30 5 C 3.369582 -0.223542 -0.511083 0
M  V30 6 C 1.890819 -0.164642 -0.579608 0
M  V30 7 C 1.210077 1.031782 -0.690559 0
M  V30 8 C -0.183595 0.946398 -0.749493 0
M  V30 9 C -0.796493 -0.297759 -0.695393 0
M  V30 10 C -0.095290 -1.482432 -0.584296 0
M  V30 11 C 1.281009 -1.400906 -0.525675 0
M  V30 12 N -0.997541 -2.585121 -0.555191 0
M  V30 13 C -2.301691 -2.024974 -0.653868 0
M  V30 14 O -3.283218 -2.794207 -0.648035 0
M  V30 15 C -2.229408 -0.572836 -0.745975 0
M  V30 16 C -3.303710 0.155055 -0.806641 0
M  V30 17 C -4.680276 -0.243492 -0.858563 0
M  V30 18 C -5.324738 -1.190434 -1.725740 0
M  V30 19 C -6.622237 -1.494178 -1.647629 0
M  V30 20 C -7.427980 -2.405691 -2.419856 0
M  V30 21 O -8.641808 -2.519939 -2.157720 0
M  V30 22 O -6.858267 -3.133500 -3.427135 0
M  V30 23 C -7.548496 -0.897154 -0.668438 0
M  V30 24 C -8.838620 -0.762719 -0.097830 0
M  V30 25 Se -6.111707 0.353660 0.283789 0 VAL=2
M  V30 26 C 4.004779 -1.195208 0.208220 0
M  V30 27 C 5.382267 -1.128738 0.187409 0
M  V30 28 C 6.119681 -0.173266 -0.492958 0
M  V30 29 O 7.517494 -0.182609 -0.457878 0
M  V30 30 H 4.773432 2.309394 -3.279897 0
M  V30 31 H 6.313657 3.261250 -3.306385 0
M  V30 32 H 5.177406 3.539756 -1.963704 0
M  V30 33 H 3.558517 1.545854 -1.794881 0
M  V30 34 H 1.749742 1.965178 -0.728447 0
M  V30 35 H -0.770323 1.852947 -0.837024 0
M  V30 36 H 1.805932 -2.333517 -0.439339 0
M  V30 37 H -0.700277 -3.598068 -0.474948 0
M  V30 38 H -3.132590 1.240017 -0.820792 0
M  V30 39 H -4.787605 -1.694503 -2.508975 0
M  V30 40 H -7.207028 -4.068426 -3.696746 0
M  V30 41 H -9.605601 -0.795793 -0.916858 0
M  V30 42 H -9.036989 -1.522429 0.676206 0
M  V30 43 H -9.026958 0.236122 0.387448 0
M  V30 44 H 3.467404 -1.950106 0.746117 0
M  V30 45 H 5.936396 -1.891947 0.754098 0
M  V30 46 H 7.974952 0.188550 -1.297440 0
M  V30 END ATOM
M  V30 BEGIN BOND
M  V30 1 1 1 2
M  V30 2 1 2 3
M  V30 3 2 3 4
M  V30 4 1 4 5
M  V30 5 1 5 6
M  V30 6 2 6 7
M  V30 7 1 7 8
M  V30 8 2 8 9
M  V30 9 1 9 10
M  V30 10 2 10 11
M  V30 11 1 10 12
M  V30 12 1 12 13
M  V30 13 2 13 14
M  V30 14 1 13 15
M  V30 15 2 15 16
M  V30 16 1 16 17
M  V30 17 2 17 18
M  V30 18 1 18 19
M  V30 19 1 19 20
M  V30 20 2 20 21
M  V30 21 1 20 22
M  V30 22 2 19 23
M  V30 23 1 23 24
M  V30 24 1 23 25
M  V30 25 2 5 26
M  V30 26 1 26 27
M  V30 27 2 27 28
M  V30 28 1 28 29
M  V30 29 1 28 3
M  V30 30 1 11 6
M  V30 31 1 25 17
M  V30 32 1 15 9
M  V30 33 1 1 30
M  V30 34 1 1 31
M  V30 35 1 1 32
M  V30 36 1 4 33
M  V30 37 1 7 34
M  V30 38 1 8 35
M  V30 39 1 11 36
M  V30 40 1 12 37
M  V30 41 1 16 38
M  V30 42 1 18 39
M  V30 43 1 22 40
M  V30 44 1 24 41
M  V30 45 1 24 42
M  V30 46 1 24 43
M  V30 47 1 26 44
M  V30 48 1 27 45
M  V30 49 1 29 46
M  V30 END BOND
M  V30 END CTAB
M  END
>  <Dataset>  (344) 
ChEMBL_Kinases

>  <Ligand_Instance>  (344) 
nan

>  <PDB_ID>  (344) 
nan

>  <Standardized_SMILES>  (344) 
COc1cc(-c2ccc3c(c2)NC(=O)/C3=C\c2cc(C(=O)O)c(C)[se]2)ccc1O

>  <Name>  (344) 
nan

>  <Pocket>  (344) 
nan

>  <ATP_Site>  (344) 
nan

>  <Peripheral>  (344) 
nan

>  <Num_H_Atoms_ProtBoundConf>  (344) 
nan

>  <Num_Resolved_Atoms>  (344) 
nan

>  <Num_Not_Resolved_Atoms>  (344) 
nan

$$$$
CHEMBL1223042
     RDKit          3D

  0  0  0  0  0  0  0  0  0  0999 V3000
M  V30 BEGIN CTAB
M  V30 COUNTS 43 46 0 0 0
M  V30 BEGIN ATOM
M  V30 1 C -0.017082 -6.899490 0.671162 0
M  V30 2 O 1.343226 -6.936345 0.278654 0
M  V30 3 C 2.114295 -5.780561 0.201595 0
M  V30 4 C 1.503458 -4.562039 0.518331 0
M  V30 5 C 2.309830 -3.447316 0.426208 0
M  V30 6 C 1.620408 -2.200206 0.753850 0
M  V30 7 C 0.596530 -2.085111 1.680807 0
M  V30 8 C 0.007630 -0.837125 1.880435 0
M  V30 9 C 0.466792 0.244890 1.144731 0
M  V30 10 C 1.499839 0.129929 0.209793 0
M  V30 11 C 2.068160 -1.113412 0.028484 0
M  V30 12 N 1.743413 1.420705 -0.387090 0
M  V30 13 C 0.817679 2.308374 0.226045 0
M  V30 14 O 0.805151 3.497701 -0.104764 0
M  V30 15 C -0.019467 1.634552 1.202868 0
M  V30 16 C -0.995907 2.154394 1.922675 0
M  V30 17 C -1.344698 3.529600 1.872778 0
M  V30 18 C -0.904403 4.790855 1.901532 0
M  V30 19 C -1.654367 5.915462 1.778049 0
M  V30 20 C -3.064272 5.748685 1.599383 0
M  V30 21 C -4.095676 6.757196 1.439725 0
M  V30 22 O -3.729999 7.928215 1.454860 0
M  V30 23 O -5.390651 6.381146 1.283445 0
M  V30 24 Se -3.259941 3.843069 1.617957 0 VAL=2
M  V30 25 C 3.647286 -3.458416 0.051606 0
M  V30 26 C 4.152053 -4.706910 -0.238814 0
M  V30 27 C 3.433899 -5.874176 -0.178296 0
M  V30 28 O 3.964769 -7.121150 -0.476515 0
M  V30 29 H -0.174164 -6.353433 1.618897 0
M  V30 30 H -0.407782 -7.922587 0.803832 0
M  V30 31 H -0.577763 -6.387872 -0.138750 0
M  V30 32 H 0.482159 -4.547627 0.805237 0
M  V30 33 H 0.296863 -2.967137 2.212749 0
M  V30 34 H -0.786525 -0.736060 2.596468 0
M  V30 35 H 2.879593 -1.177131 -0.711048 0
M  V30 36 H 2.471282 1.573447 -1.113458 0
M  V30 37 H -1.527649 1.454216 2.571619 0
M  V30 38 H 0.162229 4.860408 2.059966 0
M  V30 39 H -1.270550 6.921481 1.803490 0
M  V30 40 H -6.007680 6.928841 0.664841 0
M  V30 41 H 4.225578 -2.542085 0.000919 0
M  V30 42 H 5.185134 -4.803721 -0.538332 0
M  V30 43 H 3.406286 -7.942637 -0.507133 0
M  V30 END ATOM
M  V30 BEGIN BOND
M  V30 1 1 1 2
M  V30 2 1 2 3
M  V30 3 2 3 4
M  V30 4 1 4 5
M  V30 5 1 5 6
M  V30 6 2 6 7
M  V30 7 1 7 8
M  V30 8 2 8 9
M  V30 9 1 9 10
M  V30 10 2 10 11
M  V30 11 1 10 12
M  V30 12 1 12 13
M  V30 13 2 13 14
M  V30 14 1 13 15
M  V30 15 2 15 16
M  V30 16 1 16 17
M  V30 17 2 17 18
M  V30 18 1 18 19
M  V30 19 2 19 20
M  V30 20 1 20 21
M  V30 21 2 21 22
M  V30 22 1 21 23
M  V30 23 1 20 24
M  V30 24 2 5 25
M  V30 25 1 25 26
M  V30 26 2 26 27
M  V30 27 1 27 28
M  V30 28 1 27 3
M  V30 29 1 11 6
M  V30 30 1 24 17
M  V30 31 1 15 9
M  V30 32 1 1 29
M  V30 33 1 1 30
M  V30 34 1 1 31
M  V30 35 1 4 32
M  V30 36 1 7 33
M  V30 37 1 8 34
M  V30 38 1 11 35
M  V30 39 1 12 36
M  V30 40 1 16 37
M  V30 41 1 18 38
M  V30 42 1 19 39
M  V30 43 1 23 40
M  V30 44 1 25 41
M  V30 45 1 26 42
M  V30 46 1 28 43
M  V30 END BOND
M  V30 END CTAB
M  END
>  <Dataset>  (345) 
ChEMBL_Kinases

>  <Ligand_Instance>  (345) 
nan

>  <PDB_ID>  (345) 
nan

>  <Standardized_SMILES>  (345) 
COc1cc(-c2ccc3c(c2)NC(=O)/C3=C\c2ccc(C(=O)O)[se]2)ccc1O

>  <Name>  (345) 
nan

>  <Pocket>  (345) 
nan

>  <ATP_Site>  (345) 
nan

>  <Peripheral>  (345) 
nan

>  <Num_H_Atoms_ProtBoundConf>  (345) 
nan

>  <Num_Resolved_Atoms>  (345) 
nan

>  <Num_Not_Resolved_Atoms>  (345) 
nan

$$$$
CHEMBL1223041
     RDKit          3D

  0  0  0  0  0  0  0  0  0  0999 V3000
M  V30 BEGIN CTAB
M  V30 COUNTS 43 46 0 0 0
M  V30 BEGIN ATOM
M  V30 1 C 2.796170 -6.656177 0.266863 0
M  V30 2 O 2.484516 -6.583867 -1.101930 0
M  V30 3 C 1.922206 -5.410359 -1.577246 0
M  V30 4 C 1.647431 -4.299574 -0.775195 0
M  V30 5 C 1.085456 -3.188336 -1.367966 0
M  V30 6 C 0.797398 -2.010550 -0.529966 0
M  V30 7 C 1.599676 -1.701883 0.569441 0
M  V30 8 C 1.380483 -0.607888 1.392366 0
M  V30 9 C 0.294972 0.173734 1.048110 0
M  V30 10 C -0.544733 -0.064426 -0.020141 0
M  V30 11 C -0.282190 -1.168718 -0.809497 0
M  V30 12 N -1.558875 0.932288 -0.082175 0
M  V30 13 C -1.343627 1.825359 0.987876 0
M  V30 14 O -2.102595 2.806821 1.162629 0
M  V30 15 C -0.177190 1.363326 1.715471 0
M  V30 16 C 0.238236 2.072816 2.750124 0
M  V30 17 C -0.266314 3.256297 3.390837 0
M  V30 18 C -1.548529 3.500841 3.842277 0
M  V30 19 C -1.971626 4.656213 4.412630 0
M  V30 20 C -0.981424 5.702824 4.549213 0
M  V30 21 C -1.013609 7.060196 5.079473 0
M  V30 22 Se 0.659909 4.821987 3.751444 0 VAL=2
M  V30 23 C 0.774707 -3.107167 -2.722268 0
M  V30 24 C 1.042658 -4.209088 -3.538845 0
M  V30 25 C 1.603776 -5.301276 -2.912699 0
M  V30 26 O 1.863275 -6.396021 -3.756276 0
M  V30 27 H 3.395734 -7.592470 0.419886 0
M  V30 28 H 1.849731 -6.815391 0.851696 0
M  V30 29 H 3.334647 -5.754299 0.620421 0
M  V30 30 H 1.886598 -4.369538 0.261158 0
M  V30 31 H 2.432307 -2.377389 0.761398 0
M  V30 32 H 2.016569 -0.385678 2.242902 0
M  V30 33 H -0.895826 -1.420495 -1.665321 0
M  V30 34 H -2.300823 0.946021 -0.813293 0
M  V30 35 H 1.154757 1.695955 3.232841 0
M  V30 36 H -2.344636 2.737536 3.788634 0
M  V30 37 H -2.913573 4.982686 4.801494 0
M  V30 38 H -2.048780 7.473991 4.956638 0
M  V30 39 H -0.817062 7.030838 6.168480 0
M  V30 40 H -0.258638 7.724891 4.623794 0
M  V30 41 H 0.332357 -2.196814 -3.115033 0
M  V30 42 H 0.812186 -4.173877 -4.594087 0
M  V30 43 H 1.939263 -7.352723 -3.377367 0
M  V30 END ATOM
M  V30 BEGIN BOND
M  V30 1 1 1 2
M  V30 2 1 2 3
M  V30 3 2 3 4
M  V30 4 1 4 5
M  V30 5 1 5 6
M  V30 6 2 6 7
M  V30 7 1 7 8
M  V30 8 2 8 9
M  V30 9 1 9 10
M  V30 10 2 10 11
M  V30 11 1 10 12
M  V30 12 1 12 13
M  V30 13 2 13 14
M  V30 14 1 13 15
M  V30 15 2 15 16
M  V30 16 1 16 17
M  V30 17 2 17 18
M  V30 18 1 18 19
M  V30 19 2 19 20
M  V30 20 1 20 21
M  V30 21 1 20 22
M  V30 22 2 5 23
M  V30 23 1 23 24
M  V30 24 2 24 25
M  V30 25 1 25 26
M  V30 26 1 25 3
M  V30 27 1 11 6
M  V30 28 1 22 17
M  V30 29 1 15 9
M  V30 30 1 1 27
M  V30 31 1 1 28
M  V30 32 1 1 29
M  V30 33 1 4 30
M  V30 34 1 7 31
M  V30 35 1 8 32
M  V30 36 1 11 33
M  V30 37 1 12 34
M  V30 38 1 16 35
M  V30 39 1 18 36
M  V30 40 1 19 37
M  V30 41 1 21 38
M  V30 42 1 21 39
M  V30 43 1 21 40
M  V30 44 1 23 41
M  V30 45 1 24 42
M  V30 46 1 26 43
M  V30 END BOND
M  V30 END CTAB
M  END
>  <Dataset>  (346) 
ChEMBL_Kinases

>  <Ligand_Instance>  (346) 
nan

>  <PDB_ID>  (346) 
nan

>  <Standardized_SMILES>  (346) 
COc1cc(-c2ccc3c(c2)NC(=O)/C3=C\c2ccc(C)[se]2)ccc1O

>  <Name>  (346) 
nan

>  <Pocket>  (346) 
nan

>  <ATP_Site>  (346) 
nan

>  <Peripheral>  (346) 
nan

>  <Num_H_Atoms_ProtBoundConf>  (346) 
nan

>  <Num_Resolved_Atoms>  (346) 
nan

>  <Num_Not_Resolved_Atoms>  (346) 
nan

$$$$
CHEMBL1223040
     RDKit          3D

  0  0  0  0  0  0  0  0  0  0999 V3000
M  V30 BEGIN CTAB
M  V30 COUNTS 40 43 0 0 0
M  V30 BEGIN ATOM
M  V30 1 C 2.527891 -6.111621 -0.278720 0
M  V30 2 O 2.252729 -6.218831 1.102066 0
M  V30 3 C 1.743927 -5.115576 1.751513 0
M  V30 4 C 1.475649 -3.900644 1.161760 0
M  V30 5 C 0.965793 -2.858061 1.900825 0
M  V30 6 C 0.637401 -1.539203 1.372497 0
M  V30 7 C 0.741047 -0.406868 2.162528 0
M  V30 8 C 0.430564 0.866667 1.726820 0
M  V30 9 C -0.010858 1.051806 0.435160 0
M  V30 10 C -0.127710 -0.071608 -0.395875 0
M  V30 11 C 0.188690 -1.345079 0.057451 0
M  V30 12 N -0.602979 0.364202 -1.663068 0
M  V30 13 C -0.783907 1.777347 -1.615302 0
M  V30 14 O -1.190558 2.462440 -2.561002 0
M  V30 15 C -0.416560 2.253186 -0.292404 0
M  V30 16 C -0.441241 3.477461 0.195265 0
M  V30 17 C -0.869809 4.609958 -0.635845 0
M  V30 18 C -1.767061 5.519854 0.068864 0
M  V30 19 C -2.239702 6.637324 -0.547308 0
M  V30 20 C -1.855757 6.947656 -1.931716 0
M  V30 21 Se -0.583625 5.222205 -2.254415 0 VAL=2
M  V30 22 C 0.726033 -3.045153 3.245942 0
M  V30 23 C 0.990913 -4.270722 3.866352 0
M  V30 24 C 1.505257 -5.319416 3.114221 0
M  V30 25 O 1.713939 -6.461928 3.859562 0
M  V30 26 H 1.627394 -6.269095 -0.908770 0
M  V30 27 H 3.042729 -5.149386 -0.443717 0
M  V30 28 H 3.315619 -6.891608 -0.474318 0
M  V30 29 H 1.665474 -3.762013 0.109147 0
M  V30 30 H 1.083338 -0.461007 3.203350 0
M  V30 31 H 0.529517 1.732115 2.389960 0
M  V30 32 H 0.093352 -2.206934 -0.600615 0
M  V30 33 H -0.801163 -0.228215 -2.520005 0
M  V30 34 H -0.123446 3.588692 1.245976 0
M  V30 35 H -2.125296 5.392420 1.108686 0
M  V30 36 H -2.882996 7.366933 -0.091330 0
M  V30 37 H -2.306140 7.946547 -2.425268 0
M  V30 38 H 0.324258 -2.241467 3.858124 0
M  V30 39 H 0.770747 -4.335502 4.943980 0
M  V30 40 H 0.980027 -6.855325 4.465459 0
M  V30 END ATOM
M  V30 BEGIN BOND
M  V30 1 1 1 2
M  V30 2 1 2 3
M  V30 3 2 3 4
M  V30 4 1 4 5
M  V30 5 1 5 6
M  V30 6 2 6 7
M  V30 7 1 7 8
M  V30 8 2 8 9
M  V30 9 1 9 10
M  V30 10 2 10 11
M  V30 11 1 10 12
M  V30 12 1 12 13
M  V30 13 2 13 14
M  V30 14 1 13 15
M  V30 15 2 15 16
M  V30 16 1 16 17
M  V30 17 2 17 18
M  V30 18 1 18 19
M  V30 19 2 19 20
M  V30 20 1 20 21
M  V30 21 2 5 22
M  V30 22 1 22 23
M  V30 23 2 23 24
M  V30 24 1 24 25
M  V30 25 1 24 3
M  V30 26 1 11 6
M  V30 27 1 21 17
M  V30 28 1 15 9
M  V30 29 1 1 26
M  V30 30 1 1 27
M  V30 31 1 1 28
M  V30 32 1 4 29
M  V30 33 1 7 30
M  V30 34 1 8 31
M  V30 35 1 11 32
M  V30 36 1 12 33
M  V30 37 1 16 34
M  V30 38 1 18 35
M  V30 39 1 19 36
M  V30 40 1 20 37
M  V30 41 1 22 38
M  V30 42 1 23 39
M  V30 43 1 25 40
M  V30 END BOND
M  V30 END CTAB
M  END
>  <Dataset>  (347) 
ChEMBL_Kinases

>  <Ligand_Instance>  (347) 
nan

>  <PDB_ID>  (347) 
nan

>  <Standardized_SMILES>  (347) 
COc1cc(-c2ccc3c(c2)NC(=O)/C3=C\c2ccc[se]2)ccc1O

>  <Name>  (347) 
nan

>  <Pocket>  (347) 
nan

>  <ATP_Site>  (347) 
nan

>  <Peripheral>  (347) 
nan

>  <Num_H_Atoms_ProtBoundConf>  (347) 
nan

>  <Num_Resolved_Atoms>  (347) 
nan

>  <Num_Not_Resolved_Atoms>  (347) 
nan

$$$$
CHEMBL122264
     RDKit          3D

  0  0  0  0  0  0  0  0  0  0999 V3000
M  V30 BEGIN CTAB
M  V30 COUNTS 45 48 0 0 0
M  V30 BEGIN ATOM
M  V30 1 C 0.667948 -6.288899 0.907970 0
M  V30 2 C 1.532967 -5.889936 1.905260 0
M  V30 3 C 1.468723 -4.618457 2.438712 0
M  V30 4 C 0.518530 -3.717288 1.968593 0
M  V30 5 N 0.375144 -2.372565 2.459692 0
M  V30 6 C -0.617599 -1.490142 1.944085 0
M  V30 7 N -0.264451 -0.753918 0.891591 0
M  V30 8 C -1.008661 0.139206 0.233866 0
M  V30 9 O -0.840501 0.949708 -0.810309 0
M  V30 10 C 0.149704 1.252089 -1.684988 0
M  V30 11 C 1.379975 1.831143 -1.031208 0
M  V30 12 C 1.069838 3.091136 -0.267938 0
M  V30 13 C 1.933581 3.313240 0.930363 0
M  V30 14 C 1.795400 2.052706 1.773517 0
M  V30 15 C 2.517646 0.944327 1.059865 0
M  V30 16 C 2.292050 0.865587 -0.407875 0
M  V30 17 C -2.295426 0.261110 0.769847 0
M  V30 18 N -3.401016 0.999183 0.485516 0
M  V30 19 C -4.449576 0.785677 1.290382 0
M  V30 20 N -4.020229 -0.147174 2.160962 0
M  V30 21 C -2.746177 -0.475548 1.874371 0
M  V30 22 N -1.865236 -1.345390 2.432445 0
M  V30 23 C -0.350495 -4.123844 0.964049 0
M  V30 24 C -0.268882 -5.399666 0.444844 0
M  V30 25 H 0.738013 -7.286816 0.507679 0
M  V30 26 H 2.282374 -6.574695 2.287916 0
M  V30 27 H 2.133740 -4.288452 3.216272 0
M  V30 28 H 1.013617 -2.025165 3.216513 0
M  V30 29 H 0.510612 0.383768 -2.302597 0
M  V30 30 H -0.207978 2.031999 -2.423462 0
M  V30 31 H 1.966796 2.243372 -1.942398 0
M  V30 32 H 1.052435 4.008053 -0.901357 0
M  V30 33 H 0.014505 3.000079 0.126306 0
M  V30 34 H 1.538054 4.167999 1.485585 0
M  V30 35 H 3.005501 3.439104 0.650543 0
M  V30 36 H 2.264005 2.283296 2.738217 0
M  V30 37 H 0.712326 1.871544 1.917053 0
M  V30 38 H 3.614679 1.139381 1.257953 0
M  V30 39 H 2.320229 -0.001311 1.602823 0
M  V30 40 H 1.923905 -0.179955 -0.636508 0
M  V30 41 H 3.307917 0.852645 -0.929594 0
M  V30 42 H -3.463614 1.695679 -0.300744 0
M  V30 43 H -5.412589 1.265283 1.234818 0
M  V30 44 H -1.127611 -3.508192 0.522887 0
M  V30 45 H -0.931345 -5.752907 -0.341374 0
M  V30 END ATOM
M  V30 BEGIN BOND
M  V30 1 2 1 2
M  V30 2 1 2 3
M  V30 3 2 3 4
M  V30 4 1 4 5
M  V30 5 1 5 6
M  V30 6 2 6 7
M  V30 7 1 7 8
M  V30 8 1 8 9
M  V30 9 1 9 10
M  V30 10 1 10 11
M  V30 11 1 11 12
M  V30 12 1 12 13
M  V30 13 1 13 14
M  V30 14 1 14 15
M  V30 15 1 15 16
M  V30 16 2 8 17
M  V30 17 1 17 18
M  V30 18 1 18 19
M  V30 19 2 19 20
M  V30 20 1 20 21
M  V30 21 2 21 22
M  V30 22 1 4 23
M  V30 23 2 23 24
M  V30 24 1 24 1
M  V30 25 1 22 6
M  V30 26 1 16 11
M  V30 27 1 21 17
M  V30 28 1 1 25
M  V30 29 1 2 26
M  V30 30 1 3 27
M  V30 31 1 5 28
M  V30 32 1 10 29
M  V30 33 1 10 30
M  V30 34 1 11 31
M  V30 35 1 12 32
M  V30 36 1 12 33
M  V30 37 1 13 34
M  V30 38 1 13 35
M  V30 39 1 14 36
M  V30 40 1 14 37
M  V30 41 1 15 38
M  V30 42 1 15 39
M  V30 43 1 16 40
M  V30 44 1 16 41
M  V30 45 1 18 42
M  V30 46 1 19 43
M  V30 47 1 23 44
M  V30 48 1 24 45
M  V30 END BOND
M  V30 END CTAB
M  END
>  <Dataset>  (348) 
ChEMBL_Kinases

>  <Ligand_Instance>  (348) 
nan

>  <PDB_ID>  (348) 
nan

>  <Standardized_SMILES>  (348) 
c1ccc(Nc2nc(OCC3CCCCC3)c3[nH]cnc3n2)cc1

>  <Name>  (348) 
nan

>  <Pocket>  (348) 
nan

>  <ATP_Site>  (348) 
nan

>  <Peripheral>  (348) 
nan

>  <Num_H_Atoms_ProtBoundConf>  (348) 
nan

>  <Num_Resolved_Atoms>  (348) 
nan

>  <Num_Not_Resolved_Atoms>  (348) 
nan

$$$$
CHEMBL1222317
     RDKit          3D

  0  0  0  0  0  0  0  0  0  0999 V3000
M  V30 BEGIN CTAB
M  V30 COUNTS 58 63 0 0 0
M  V30 BEGIN ATOM
M  V30 1 C 0.418295 0.114549 -1.640928 0
M  V30 2 C 0.277405 -0.467592 -0.291810 0
M  V30 3 C 0.799288 -0.056859 0.908293 0
M  V30 4 C 1.650600 1.111785 1.020945 0
M  V30 5 O 2.034975 1.651967 -0.047716 0
M  V30 6 C 2.214006 1.875189 2.113128 0
M  V30 7 C 1.473121 2.414025 3.173783 0
M  V30 8 C 1.921128 3.185491 4.222900 0
M  V30 9 C 3.275198 3.431833 4.181178 0
M  V30 10 C 4.108341 2.958589 3.193757 0
M  V30 11 C 5.452552 3.268879 3.269577 0
M  V30 12 C 6.303623 2.792953 2.290983 0
M  V30 13 C 5.802000 2.009711 1.243744 0
M  V30 14 C 4.447661 1.750668 1.248611 0
M  V30 15 C 3.558737 2.193587 2.186793 0
M  V30 16 C 0.377071 -0.935225 1.880149 0
M  V30 17 C 0.571876 -1.049811 3.234235 0
M  V30 18 C -0.014046 -2.091296 3.922740 0
M  V30 19 C -0.808885 -3.041780 3.268467 0
M  V30 20 C -1.014174 -2.942436 1.910418 0
M  V30 21 C -0.407667 -1.887240 1.272727 0
M  V30 22 N -0.439519 -1.572204 -0.013043 0
M  V30 23 C -1.223392 -2.458607 -0.902227 0 CFG=2
M  V30 24 C -2.570786 -1.816988 -1.026333 0
M  V30 25 N -3.385768 -2.634634 -1.879652 0
M  V30 26 C -4.744761 -2.108119 -1.977053 0
M  V30 27 C -5.582365 -3.233058 -2.547953 0
M  V30 28 O -5.105345 -3.433557 -3.850569 0
M  V30 29 C -3.823031 -3.913542 -3.845691 0
M  V30 30 C -2.847083 -2.934818 -3.175060 0
M  V30 31 C -1.389143 -3.818727 -0.296522 0
M  V30 32 O -1.751310 -3.754967 1.068286 0
M  V30 33 H -0.133178 -0.433445 -2.409530 0
M  V30 34 H 1.495769 0.114729 -1.894737 0
M  V30 35 H -0.004337 1.149633 -1.641935 0
M  V30 36 H 0.395993 2.178154 3.145982 0
M  V30 37 H 1.220348 3.528463 4.969028 0
M  V30 38 H 3.691801 4.043583 4.993477 0
M  V30 39 H 5.856951 3.874275 4.075001 0
M  V30 40 H 7.368194 3.028365 2.335722 0
M  V30 41 H 6.498004 1.658161 0.501574 0
M  V30 42 H 4.157353 1.134132 0.412115 0
M  V30 43 H 1.182185 -0.325373 3.709004 0
M  V30 44 H 0.112109 -2.219485 4.984353 0
M  V30 45 H -1.304987 -3.887309 3.728944 0
M  V30 46 H -0.713019 -2.511077 -1.885123 0
M  V30 47 H -2.456647 -0.820101 -1.535566 0
M  V30 48 H -3.085089 -1.712686 -0.061913 0
M  V30 49 H -5.022862 -1.808925 -0.962897 0
M  V30 50 H -4.739761 -1.286892 -2.723965 0
M  V30 51 H -6.651790 -3.018787 -2.602572 0
M  V30 52 H -5.326474 -4.171550 -1.987421 0
M  V30 53 H -3.701564 -4.909479 -3.386654 0
M  V30 54 H -3.475733 -4.017921 -4.890075 0
M  V30 55 H -1.898685 -3.483386 -3.057175 0
M  V30 56 H -2.756421 -2.005735 -3.747738 0
M  V30 57 H -0.409655 -4.361953 -0.405755 0
M  V30 58 H -2.132498 -4.381010 -0.891037 0
M  V30 END ATOM
M  V30 BEGIN BOND
M  V30 1 1 1 2
M  V30 2 2 2 3
M  V30 3 1 3 4
M  V30 4 2 4 5
M  V30 5 1 4 6
M  V30 6 2 6 7
M  V30 7 1 7 8
M  V30 8 2 8 9
M  V30 9 1 9 10
M  V30 10 2 10 11
M  V30 11 1 11 12
M  V30 12 2 12 13
M  V30 13 1 13 14
M  V30 14 2 14 15
M  V30 15 1 3 16
M  V30 16 2 16 17
M  V30 17 1 17 18
M  V30 18 2 18 19
M  V30 19 1 19 20
M  V30 20 2 20 21
M  V30 21 1 21 22
M  V30 22 1 22 23
M  V30 23 1 23 24
M  V30 24 1 24 25
M  V30 25 1 25 26
M  V30 26 1 26 27
M  V30 27 1 27 28
M  V30 28 1 28 29
M  V30 29 1 29 30
M  V30 30 1 23 31
M  V30 31 1 31 32
M  V30 32 1 22 2
M  V30 33 1 30 25
M  V30 34 1 15 6
M  V30 35 1 21 16
M  V30 36 1 15 10
M  V30 37 1 32 20
M  V30 38 1 1 33
M  V30 39 1 1 34
M  V30 40 1 1 35
M  V30 41 1 7 36
M  V30 42 1 8 37
M  V30 43 1 9 38
M  V30 44 1 11 39
M  V30 45 1 12 40
M  V30 46 1 13 41
M  V30 47 1 14 42
M  V30 48 1 17 43
M  V30 49 1 18 44
M  V30 50 1 19 45
M  V30 51 1 23 46 CFG=3
M  V30 52 1 24 47
M  V30 53 1 24 48
M  V30 54 1 26 49
M  V30 55 1 26 50
M  V30 56 1 27 51
M  V30 57 1 27 52
M  V30 58 1 29 53
M  V30 59 1 29 54
M  V30 60 1 30 55
M  V30 61 1 30 56
M  V30 62 1 31 57
M  V30 63 1 31 58
M  V30 END BOND
M  V30 END CTAB
M  END
>  <Dataset>  (349) 
ChEMBL_Kinases

>  <Ligand_Instance>  (349) 
nan

>  <PDB_ID>  (349) 
nan

>  <Standardized_SMILES>  (349) 
Cc1c(C(=O)c2cccc3ccccc23)c2cccc3c2n1[C@H](CN1CCOCC1)CO3

>  <Name>  (349) 
nan

>  <Pocket>  (349) 
nan

>  <ATP_Site>  (349) 
nan

>  <Peripheral>  (349) 
nan

>  <Num_H_Atoms_ProtBoundConf>  (349) 
nan

>  <Num_Resolved_Atoms>  (349) 
nan

>  <Num_Not_Resolved_Atoms>  (349) 
nan

$$$$
CHEMBL1221656
     RDKit          3D

  0  0  0  0  0  0  0  0  0  0999 V3000
M  V30 BEGIN CTAB
M  V30 COUNTS 115 120 0 0 0
M  V30 BEGIN ATOM
M  V30 1 C 3.873984 1.416492 2.327557 0
M  V30 2 C 5.158655 1.238915 1.565845 0
M  V30 3 C 6.344287 1.088211 2.153029 0
M  V30 4 C 7.412564 0.938604 1.179715 0
M  V30 5 C 8.871776 0.747838 1.373130 0
M  V30 6 C 6.838457 1.003230 -0.007422 0
M  V30 7 C 7.315793 0.929407 -1.384137 0
M  V30 8 C 6.624955 1.590383 -2.323828 0
M  V30 9 C 6.954926 1.626807 -3.741551 0
M  V30 10 C 6.015359 2.390953 -4.269590 0
M  V30 11 C 5.072727 2.868944 -3.281743 0
M  V30 12 C 3.862504 3.707424 -3.326820 0
M  V30 13 C 2.691864 3.134699 -4.021026 0
M  V30 14 C 2.803950 2.828622 -5.440701 0
M  V30 15 O 3.516896 2.902637 -6.470255 0
M  V30 16 N 1.588166 2.151689 -5.857163 0
M  V30 17 C 1.283380 1.676626 -7.211426 0
M  V30 18 C -0.088352 0.993716 -7.226378 0
M  V30 19 C -1.193101 1.910610 -6.807799 0
M  V30 20 C -2.559968 1.198024 -6.784792 0
M  V30 21 C -2.483663 0.036801 -5.855952 0
M  V30 22 C -3.753245 -0.677542 -5.669422 0
M  V30 23 O -4.904108 -0.392522 -6.069275 0
M  V30 24 N -3.693031 -1.869203 -4.926630 0
M  V30 25 C -4.285338 -3.005541 -4.310947 0
M  V30 26 C -5.127141 -2.636079 -3.113672 0
M  V30 27 C -6.273825 -1.775887 -3.410467 0
M  V30 28 C -7.179776 -1.445812 -2.226869 0
M  V30 29 N -6.625581 -0.734349 -1.154564 0
M  V30 30 C -5.670530 -0.743734 -0.119884 0
M  V30 31 O -4.965601 -1.741764 0.018070 0
M  V30 32 O -5.444061 0.278648 0.765420 0
M  V30 33 C -4.479863 0.326486 1.783528 0
M  V30 34 C -3.131091 0.294349 1.150962 0
M  V30 35 C -1.948075 0.358765 2.070103 0
M  V30 36 N -1.905414 -0.746037 2.988881 0
M  V30 37 C -2.352641 -0.931085 4.238675 0
M  V30 38 C -3.007904 0.045551 5.056555 0
M  V30 39 O -3.176692 1.198570 4.590786 0
M  V30 40 C -3.523774 -0.153343 6.429200 0
M  V30 41 F -2.523891 0.118068 7.376602 0
M  V30 42 C -2.052332 -2.207059 4.652006 0
M  V30 43 C -2.272311 -2.971766 5.867691 0
M  V30 44 C -1.218314 -2.742405 6.763069 0
M  V30 45 C -1.155671 -3.362312 8.015447 0
M  V30 46 C -2.173267 -4.233893 8.380856 0
M  V30 47 C -2.101732 -4.887308 9.710842 0
M  V30 48 C -3.210975 -4.464001 7.506096 0
M  V30 49 C -3.268731 -3.852673 6.276894 0
M  V30 50 C -1.387146 -2.849811 3.616983 0
M  V30 51 C -0.834512 -4.115427 3.411154 0
M  V30 52 N -0.906457 -5.072706 4.441141 0
M  V30 53 N -0.231492 -4.431465 2.234658 0
M  V30 54 C -0.168372 -3.504596 1.252181 0
M  V30 55 N -0.692017 -2.279456 1.423662 0
M  V30 56 C -1.305862 -1.918978 2.587820 0
M  V30 57 N 5.444326 2.383897 -2.115713 0 CHG=1 VAL=4
M  V30 58 B 4.889545 2.482358 -0.672779 0 CHG=-1 VAL=4
M  V30 59 F 3.446699 2.416536 -0.762723 0
M  V30 60 F 5.349084 3.694617 -0.076327 0
M  V30 61 C 5.369706 1.190607 0.126497 0
M  V30 62 H 3.051014 1.593902 1.636398 0
M  V30 63 H 3.654575 0.466405 2.896951 0
M  V30 64 H 3.959377 2.210042 3.099876 0
M  V30 65 H 6.486070 1.079795 3.239878 0
M  V30 66 H 9.227126 1.288288 2.274322 0
M  V30 67 H 9.088794 -0.340006 1.548187 0
M  V30 68 H 9.425046 1.029246 0.467314 0
M  V30 69 H 8.204980 0.355466 -1.608161 0
M  V30 70 H 7.754981 1.159771 -4.261948 0
M  V30 71 H 5.951301 2.638920 -5.315969 0
M  V30 72 H 3.512747 4.051093 -2.318162 0
M  V30 73 H 4.100938 4.689995 -3.866320 0
M  V30 74 H 1.839785 3.867437 -3.858824 0
M  V30 75 H 2.327460 2.233195 -3.426589 0
M  V30 76 H 0.804807 1.937524 -5.179459 0
M  V30 77 H 2.041206 0.983312 -7.572559 0
M  V30 78 H 1.253745 2.552024 -7.883162 0
M  V30 79 H -0.022877 0.137040 -6.499236 0
M  V30 80 H -0.311022 0.588122 -8.218277 0
M  V30 81 H -1.047764 2.308996 -5.786055 0
M  V30 82 H -1.297642 2.749475 -7.539984 0
M  V30 83 H -2.754336 0.878195 -7.819613 0
M  V30 84 H -3.347210 1.906518 -6.471874 0
M  V30 85 H -1.749967 -0.724275 -6.277345 0
M  V30 86 H -2.052889 0.291713 -4.870111 0
M  V30 87 H -2.690214 -2.065920 -4.643061 0
M  V30 88 H -5.017034 -3.441318 -5.104473 0
M  V30 89 H -3.633763 -3.856729 -4.124637 0
M  V30 90 H -5.387157 -3.586924 -2.597236 0
M  V30 91 H -4.419825 -2.130653 -2.377621 0
M  V30 92 H -6.866530 -2.198554 -4.247410 0
M  V30 93 H -5.958400 -0.744693 -3.778864 0
M  V30 94 H -8.095760 -0.967001 -2.615088 0
M  V30 95 H -7.562807 -2.476523 -1.905884 0
M  V30 96 H -7.133134 0.216023 -1.094256 0
M  V30 97 H -4.628491 1.319936 2.305149 0
M  V30 98 H -4.596903 -0.434921 2.573859 0
M  V30 99 H -3.046059 -0.638022 0.545501 0
M  V30 100 H -3.047735 1.198682 0.474067 0
M  V30 101 H -1.048636 0.355558 1.402425 0
M  V30 102 H -2.015654 1.313506 2.633523 0
M  V30 103 H -3.947956 -1.137290 6.629819 0
M  V30 104 H -4.278786 0.667263 6.624105 0
M  V30 105 H -0.362066 -2.085123 6.601796 0
M  V30 106 H -0.349503 -3.191360 8.710086 0
M  V30 107 H -1.048778 -4.857336 10.064965 0
M  V30 108 H -2.670930 -4.292903 10.477728 0
M  V30 109 H -2.441701 -5.935421 9.700282 0
M  V30 110 H -4.015023 -5.124806 7.739599 0
M  V30 111 H -4.015696 -3.942392 5.503376 0
M  V30 112 H -1.544914 -5.801135 4.836268 0
M  V30 113 H 0.032422 -4.939460 4.915395 0
M  V30 114 H 0.327822 -3.794325 0.311298 0
M  V30 115 H 4.887798 0.270334 -0.260822 0
M  V30 END ATOM
M  V30 BEGIN BOND
M  V30 1 1 1 2
M  V30 2 2 2 3
M  V30 3 1 3 4
M  V30 4 1 4 5
M  V30 5 2 4 6
M  V30 6 1 6 7
M  V30 7 2 7 8
M  V30 8 1 8 9
M  V30 9 2 9 10
M  V30 10 1 10 11
M  V30 11 1 11 12
M  V30 12 1 12 13
M  V30 13 1 13 14
M  V30 14 2 14 15
M  V30 15 1 14 16
M  V30 16 1 16 17
M  V30 17 1 17 18
M  V30 18 1 18 19
M  V30 19 1 19 20
M  V30 20 1 20 21
M  V30 21 1 21 22
M  V30 22 2 22 23
M  V30 23 1 22 24
M  V30 24 1 24 25
M  V30 25 1 25 26
M  V30 26 1 26 27
M  V30 27 1 27 28
M  V30 28 1 28 29
M  V30 29 1 29 30
M  V30 30 2 30 31
M  V30 31 1 30 32
M  V30 32 1 32 33
M  V30 33 1 33 34
M  V30 34 1 34 35
M  V30 35 1 35 36
M  V30 36 1 36 37
M  V30 37 1 37 38
M  V30 38 2 38 39
M  V30 39 1 38 40
M  V30 40 1 40 41
M  V30 41 2 37 42
M  V30 42 1 42 43
M  V30 43 2 43 44
M  V30 44 1 44 45
M  V30 45 2 45 46
M  V30 46 1 46 47
M  V30 47 1 46 48
M  V30 48 2 48 49
M  V30 49 1 42 50
M  V30 50 2 50 51
M  V30 51 1 51 52
M  V30 52 1 51 53
M  V30 53 2 53 54
M  V30 54 1 54 55
M  V30 55 2 55 56
M  V30 56 2 11 57
M  V30 57 1 57 58
M  V30 58 1 58 59
M  V30 59 1 58 60
M  V30 60 1 58 61
M  V30 61 1 61 2
M  V30 62 1 61 6
M  V30 63 1 57 8
M  V30 64 1 56 36
M  V30 65 1 49 43
M  V30 66 1 56 50
M  V30 67 1 1 62
M  V30 68 1 1 63
M  V30 69 1 1 64
M  V30 70 1 3 65
M  V30 71 1 5 66
M  V30 72 1 5 67
M  V30 73 1 5 68
M  V30 74 1 7 69
M  V30 75 1 9 70
M  V30 76 1 10 71
M  V30 77 1 12 72
M  V30 78 1 12 73
M  V30 79 1 13 74
M  V30 80 1 13 75
M  V30 81 1 16 76
M  V30 82 1 17 77
M  V30 83 1 17 78
M  V30 84 1 18 79
M  V30 85 1 18 80
M  V30 86 1 19 81
M  V30 87 1 19 82
M  V30 88 1 20 83
M  V30 89 1 20 84
M  V30 90 1 21 85
M  V30 91 1 21 86
M  V30 92 1 24 87
M  V30 93 1 25 88
M  V30 94 1 25 89
M  V30 95 1 26 90
M  V30 96 1 26 91
M  V30 97 1 27 92
M  V30 98 1 27 93
M  V30 99 1 28 94
M  V30 100 1 28 95
M  V30 101 1 29 96
M  V30 102 1 33 97
M  V30 103 1 33 98
M  V30 104 1 34 99
M  V30 105 1 34 100
M  V30 106 1 35 101
M  V30 107 1 35 102
M  V30 108 1 40 103
M  V30 109 1 40 104
M  V30 110 1 44 105
M  V30 111 1 45 106
M  V30 112 1 47 107
M  V30 113 1 47 108
M  V30 114 1 47 109
M  V30 115 1 48 110
M  V30 116 1 49 111
M  V30 117 1 52 112
M  V30 118 1 52 113
M  V30 119 1 54 114
M  V30 120 1 61 115
M  V30 END BOND
M  V30 END CTAB
M  END
>  <Dataset>  (350) 
ChEMBL_Kinases

>  <Ligand_Instance>  (350) 
nan

>  <PDB_ID>  (350) 
nan

>  <Standardized_SMILES>  (350) 
CC1=CC(C)=C2C=C3C=CC(CCC(=O)NCCCCCC(=O)NCCCCNC(=O)OCCCn4c(C(=O)CF)c(-c5ccc(C)cc5)c5c(N)ncnc54)=[N+]3[B-](F)(F)C12

>  <Name>  (350) 
nan

>  <Pocket>  (350) 
nan

>  <ATP_Site>  (350) 
nan

>  <Peripheral>  (350) 
nan

>  <Num_H_Atoms_ProtBoundConf>  (350) 
nan

>  <Num_Resolved_Atoms>  (350) 
nan

>  <Num_Not_Resolved_Atoms>  (350) 
nan

$$$$
CHEMBL122061
     RDKit          3D

  0  0  0  0  0  0  0  0  0  0999 V3000
M  V30 BEGIN CTAB
M  V30 COUNTS 57 62 0 0 0
M  V30 BEGIN ATOM
M  V30 1 N 2.799525 -3.999033 6.237106 0
M  V30 2 C 2.627386 -3.351026 4.982711 0
M  V30 3 C 2.854273 -2.043235 4.614330 0
M  V30 4 C 2.645157 -1.538160 3.371258 0
M  V30 5 N 2.175602 -2.443305 2.462422 0
M  V30 6 C 1.877010 -2.233620 1.150260 0
M  V30 7 C 1.959965 -1.034458 0.335162 0
M  V30 8 C 3.223422 -0.476126 0.096452 0
M  V30 9 C 3.323902 0.678277 -0.692318 0
M  V30 10 N 2.247663 1.307783 -1.256057 0
M  V30 11 C 1.016632 0.806774 -1.053853 0
M  V30 12 N -0.308487 1.143002 -1.451618 0
M  V30 13 C -1.240962 1.610761 -0.481480 0 CFG=1
M  V30 14 C -0.958237 2.928898 0.148722 0
M  V30 15 C -1.951448 3.177113 1.257705 0
M  V30 16 C -3.015642 2.139068 1.389888 0
M  V30 17 C -3.590912 1.827284 0.056230 0
M  V30 18 C -4.929962 1.791646 -0.261200 0
M  V30 19 C -5.392718 1.492510 -1.523999 0
M  V30 20 C -4.409860 1.221249 -2.487193 0
M  V30 21 C -3.067764 1.253918 -2.178252 0
M  V30 22 C -2.641616 1.553749 -0.915251 0
M  V30 23 C 0.920726 -0.335203 -0.272946 0
M  V30 24 C 1.439272 -3.437291 0.636159 0
M  V30 25 C 0.971712 -3.871483 -0.661556 0
M  V30 26 C -0.356055 -3.540070 -0.899316 0
M  V30 27 C -1.015957 -3.841116 -2.072869 0
M  V30 28 C -0.333376 -4.503488 -3.064587 0
M  V30 29 C 0.981931 -4.836813 -2.838608 0
M  V30 30 C 1.635238 -4.536304 -1.671401 0
M  V30 31 N 1.479918 -4.361689 1.645701 0
M  V30 32 C 1.937162 -3.728769 2.765318 0
M  V30 33 N 2.161112 -4.189740 4.024830 0
M  V30 34 H 3.805370 -3.734692 6.414499 0
M  V30 35 H 1.991948 -4.518075 6.639878 0
M  V30 36 H 3.233581 -1.444611 5.441617 0
M  V30 37 H 2.839759 -0.515255 3.148587 0
M  V30 38 H 4.143786 -0.891131 0.488788 0
M  V30 39 H 4.247633 1.184615 -0.934125 0
M  V30 40 H -0.132034 0.907370 -2.454143 0
M  V30 41 H -1.183054 0.859473 0.382048 0
M  V30 42 H -0.946094 3.772783 -0.574423 0
M  V30 43 H 0.049447 2.909444 0.597192 0
M  V30 44 H -1.479301 3.302662 2.253594 0
M  V30 45 H -2.483672 4.151177 1.066882 0
M  V30 46 H -2.581048 1.223097 1.880456 0
M  V30 47 H -3.762347 2.509683 2.121963 0
M  V30 48 H -5.638907 2.012759 0.536832 0
M  V30 49 H -6.441642 1.461278 -1.773672 0
M  V30 50 H -4.669028 0.974689 -3.503413 0
M  V30 51 H -2.317201 1.039034 -2.952369 0
M  V30 52 H -0.006401 -0.870018 0.005020 0
M  V30 53 H -1.016475 -3.017881 -0.199060 0
M  V30 54 H -2.043594 -3.594785 -2.282875 0
M  V30 55 H -0.824315 -4.750911 -3.996893 0
M  V30 56 H 1.541102 -5.351942 -3.589287 0
M  V30 57 H 2.669888 -4.763617 -1.417751 0
M  V30 END ATOM
M  V30 BEGIN BOND
M  V30 1 1 1 2
M  V30 2 1 2 3
M  V30 3 2 3 4
M  V30 4 1 4 5
M  V30 5 1 5 6
M  V30 6 1 6 7
M  V30 7 2 7 8
M  V30 8 1 8 9
M  V30 9 2 9 10
M  V30 10 1 10 11
M  V30 11 1 11 12
M  V30 12 1 12 13
M  V30 13 1 13 14
M  V30 14 1 14 15
M  V30 15 1 15 16
M  V30 16 1 16 17
M  V30 17 2 17 18
M  V30 18 1 18 19
M  V30 19 2 19 20
M  V30 20 1 20 21
M  V30 21 2 21 22
M  V30 22 2 11 23
M  V30 23 2 6 24
M  V30 24 1 24 25
M  V30 25 2 25 26
M  V30 26 1 26 27
M  V30 27 2 27 28
M  V30 28 1 28 29
M  V30 29 2 29 30
M  V30 30 1 24 31
M  V30 31 2 31 32
M  V30 32 1 32 33
M  V30 33 2 33 2
M  V30 34 1 32 5
M  V30 35 1 23 7
M  V30 36 1 30 25
M  V30 37 1 22 13
M  V30 38 1 22 17
M  V30 39 1 1 34
M  V30 40 1 1 35
M  V30 41 1 3 36
M  V30 42 1 4 37
M  V30 43 1 8 38
M  V30 44 1 9 39
M  V30 45 1 12 40
M  V30 46 1 13 41 CFG=1
M  V30 47 1 14 42
M  V30 48 1 14 43
M  V30 49 1 15 44
M  V30 50 1 15 45
M  V30 51 1 16 46
M  V30 52 1 16 47
M  V30 53 1 18 48
M  V30 54 1 19 49
M  V30 55 1 20 50
M  V30 56 1 21 51
M  V30 57 1 23 52
M  V30 58 1 26 53
M  V30 59 1 27 54
M  V30 60 1 28 55
M  V30 61 1 29 56
M  V30 62 1 30 57
M  V30 END BOND
M  V30 END CTAB
M  END
>  <Dataset>  (351) 
ChEMBL_Kinases

>  <Ligand_Instance>  (351) 
nan

>  <PDB_ID>  (351) 
nan

>  <Standardized_SMILES>  (351) 
Nc1ccn2c(-c3ccnc(N[C@H]4CCCc5ccccc54)c3)c(-c3ccccc3)nc2n1

>  <Name>  (351) 
nan

>  <Pocket>  (351) 
nan

>  <ATP_Site>  (351) 
nan

>  <Peripheral>  (351) 
nan

>  <Num_H_Atoms_ProtBoundConf>  (351) 
nan

>  <Num_Resolved_Atoms>  (351) 
nan

>  <Num_Not_Resolved_Atoms>  (351) 
nan

$$$$
CHEMBL1214142
     RDKit          3D

  0  0  0  0  0  0  0  0  0  0999 V3000
M  V30 BEGIN CTAB
M  V30 COUNTS 62 66 0 0 0
M  V30 BEGIN ATOM
M  V30 1 C 1.362212 -2.605552 5.173717 0
M  V30 2 C 1.566123 -1.324893 4.453217 0
M  V30 3 C 2.369806 -0.275922 4.834114 0
M  V30 4 C 2.477299 0.871454 4.083449 0
M  V30 5 C 1.785193 1.031643 2.908517 0
M  V30 6 N 1.805161 2.165928 2.051429 0
M  V30 7 C 2.745295 2.291076 0.990423 0
M  V30 8 O 3.616316 1.426199 0.730724 0
M  V30 9 C 2.675137 3.506395 0.169345 0
M  V30 10 C 3.578900 3.651058 -0.879831 0
M  V30 11 C 3.541902 4.798786 -1.679274 0
M  V30 12 C 2.591138 5.751892 -1.382293 0
M  V30 13 C 1.681513 5.643107 -0.352858 0
M  V30 14 C 0.656374 6.705385 -0.050361 0
M  V30 15 F 0.974617 7.358344 1.129305 0
M  V30 16 F -0.581216 6.085710 0.023553 0
M  V30 17 F 0.638937 7.532221 -1.136842 0
M  V30 18 C 1.754306 4.489916 0.412543 0
M  V30 19 C 0.975357 -0.043813 2.537436 0
M  V30 20 C 0.849544 -1.224747 3.288065 0
M  V30 21 N -0.055372 -2.163479 2.667347 0
M  V30 22 C 0.538794 -3.064559 1.727838 0
M  V30 23 C -0.495484 -3.640253 0.792087 0
M  V30 24 C 0.030925 -4.299438 -0.314799 0
M  V30 25 N -0.946631 -4.865593 -1.080377 0
M  V30 26 C -2.246871 -4.791294 -0.796330 0
M  V30 27 N -2.978603 -5.489380 -1.795265 0
M  V30 28 C -3.219917 -4.803680 -3.041548 0
M  V30 29 C -3.946149 -5.347297 -4.103107 0
M  V30 30 C -4.176217 -4.720329 -5.294094 0
M  V30 31 C -3.635494 -3.442745 -5.437675 0
M  V30 32 C -2.900582 -2.818712 -4.441333 0
M  V30 33 C -2.728983 -3.540808 -3.279936 0
M  V30 34 N -2.719143 -4.134069 0.299262 0
M  V30 35 C -1.816762 -3.525957 1.138649 0
M  V30 36 N -2.344955 -2.780542 2.225847 0
M  V30 37 C -3.763632 -2.775840 2.499439 0
M  V30 38 C -1.419627 -2.064480 3.036406 0
M  V30 39 O -1.823294 -1.382975 4.028601 0
M  V30 40 H 1.942078 -3.390235 4.659211 0
M  V30 41 H 0.291466 -2.849285 5.332112 0
M  V30 42 H 1.845800 -2.525150 6.193155 0
M  V30 43 H 2.916032 -0.396784 5.760404 0
M  V30 44 H 3.101702 1.693763 4.380446 0
M  V30 45 H 1.057782 2.825073 2.338033 0
M  V30 46 H 4.304061 2.855369 -1.057394 0
M  V30 47 H 4.238060 4.926393 -2.494870 0
M  V30 48 H 2.578565 6.640842 -2.014437 0
M  V30 49 H 1.031679 4.441455 1.197649 0
M  V30 50 H 0.426242 0.083654 1.598971 0
M  V30 51 H 1.391312 -2.695249 1.168706 0
M  V30 52 H 0.856340 -3.970884 2.338438 0
M  V30 53 H 1.084501 -4.332525 -0.498232 0
M  V30 54 H -3.348308 -6.456464 -1.682606 0
M  V30 55 H -4.338436 -6.358730 -3.914116 0
M  V30 56 H -4.748121 -5.214336 -6.063908 0
M  V30 57 H -3.836899 -2.964857 -6.409267 0
M  V30 58 H -2.503539 -1.828269 -4.606685 0
M  V30 59 H -2.157728 -3.066416 -2.492138 0
M  V30 60 H -4.073332 -3.847220 2.556652 0
M  V30 61 H -4.377756 -2.266539 1.744801 0
M  V30 62 H -3.898602 -2.308604 3.513395 0
M  V30 END ATOM
M  V30 BEGIN BOND
M  V30 1 1 1 2
M  V30 2 2 2 3
M  V30 3 1 3 4
M  V30 4 2 4 5
M  V30 5 1 5 6
M  V30 6 1 6 7
M  V30 7 2 7 8
M  V30 8 1 7 9
M  V30 9 2 9 10
M  V30 10 1 10 11
M  V30 11 2 11 12
M  V30 12 1 12 13
M  V30 13 1 13 14
M  V30 14 1 14 15
M  V30 15 1 14 16
M  V30 16 1 14 17
M  V30 17 2 13 18
M  V30 18 1 5 19
M  V30 19 2 19 20
M  V30 20 1 20 21
M  V30 21 1 21 22
M  V30 22 1 22 23
M  V30 23 2 23 24
M  V30 24 1 24 25
M  V30 25 2 25 26
M  V30 26 1 26 27
M  V30 27 1 27 28
M  V30 28 2 28 29
M  V30 29 1 29 30
M  V30 30 2 30 31
M  V30 31 1 31 32
M  V30 32 2 32 33
M  V30 33 1 26 34
M  V30 34 2 34 35
M  V30 35 1 35 36
M  V30 36 1 36 37
M  V30 37 1 36 38
M  V30 38 2 38 39
M  V30 39 1 20 2
M  V30 40 1 38 21
M  V30 41 1 18 9
M  V30 42 1 35 23
M  V30 43 1 33 28
M  V30 44 1 1 40
M  V30 45 1 1 41
M  V30 46 1 1 42
M  V30 47 1 3 43
M  V30 48 1 4 44
M  V30 49 1 6 45
M  V30 50 1 10 46
M  V30 51 1 11 47
M  V30 52 1 12 48
M  V30 53 1 18 49
M  V30 54 1 19 50
M  V30 55 1 22 51
M  V30 56 1 22 52
M  V30 57 1 24 53
M  V30 58 1 27 54
M  V30 59 1 29 55
M  V30 60 1 30 56
M  V30 61 1 31 57
M  V30 62 1 32 58
M  V30 63 1 33 59
M  V30 64 1 37 60
M  V30 65 1 37 61
M  V30 66 1 37 62
M  V30 END BOND
M  V30 END CTAB
M  END
>  <Dataset>  (352) 
ChEMBL_Kinases

>  <Ligand_Instance>  (352) 
nan

>  <PDB_ID>  (352) 
nan

>  <Standardized_SMILES>  (352) 
Cc1ccc(NC(=O)c2cccc(C(F)(F)F)c2)cc1N1Cc2cnc(Nc3ccccc3)nc2N(C)C1=O

>  <Name>  (352) 
nan

>  <Pocket>  (352) 
nan

>  <ATP_Site>  (352) 
nan

>  <Peripheral>  (352) 
nan

>  <Num_H_Atoms_ProtBoundConf>  (352) 
nan

>  <Num_Resolved_Atoms>  (352) 
nan

>  <Num_Not_Resolved_Atoms>  (352) 
nan

$$$$
CHEMBL1214141
     RDKit          3D

  0  0  0  0  0  0  0  0  0  0999 V3000
M  V30 BEGIN CTAB
M  V30 COUNTS 64 68 0 0 0
M  V30 BEGIN ATOM
M  V30 1 C 6.403089 1.175325 7.198373 0
M  V30 2 C 5.734895 1.933382 6.106093 0
M  V30 3 C 4.518405 1.430776 5.660264 0
M  V30 4 C 3.861242 2.117255 4.629594 0
M  V30 5 C 4.365349 3.265413 4.039746 0
M  V30 6 N 3.629123 3.899323 2.987886 0
M  V30 7 C 2.381646 3.295505 2.672070 0
M  V30 8 N 1.161129 3.681495 3.125219 0
M  V30 9 C 0.037652 3.006408 2.749065 0
M  V30 10 C 0.096587 1.918854 1.904301 0
M  V30 11 C 1.349722 1.548779 1.460981 0
M  V30 12 N 2.466591 2.233946 1.844813 0
M  V30 13 N 1.486916 0.416199 0.615640 0
M  V30 14 C 2.818908 0.051582 0.159086 0
M  V30 15 C 0.337098 -0.349534 0.221611 0
M  V30 16 O 0.536116 -1.328065 -0.521848 0
M  V30 17 N -0.939073 0.073589 0.713395 0
M  V30 18 C -1.971495 -0.809896 0.335384 0
M  V30 19 C -2.751356 -0.907453 -0.795254 0
M  V30 20 C -3.708963 -1.891934 -0.866108 0
M  V30 21 N -4.463712 -1.940341 -2.096349 0
M  V30 22 C -3.661039 -2.872778 -2.833160 0
M  V30 23 O -2.677130 -3.248251 -2.147564 0
M  V30 24 C -3.989641 -3.305895 -4.216126 0
M  V30 25 C -5.047681 -2.896705 -4.995416 0
M  V30 26 C -5.197008 -3.417645 -6.262793 0
M  V30 27 C -4.304769 -4.356946 -6.793759 0
M  V30 28 C -3.270949 -4.726389 -5.972818 0
M  V30 29 C -2.343252 -5.731773 -6.571703 0
M  V30 30 F -3.067052 -6.796484 -7.104270 0
M  V30 31 F -1.608946 -5.213741 -7.595018 0
M  V30 32 F -1.479496 -6.269632 -5.642116 0
M  V30 33 C -3.069155 -4.243621 -4.702745 0
M  V30 34 C -3.960587 -2.812458 0.125570 0
M  V30 35 C -3.175771 -2.724388 1.278919 0
M  V30 36 C -2.200639 -1.732380 1.365913 0
M  V30 37 C -1.454056 -1.787321 2.668815 0
M  V30 38 C -1.172072 1.251103 1.524254 0
M  V30 39 C 5.580537 3.703603 4.538741 0
M  V30 40 N 6.208047 3.045586 5.524489 0
M  V30 41 H 5.770079 1.167982 8.107132 0
M  V30 42 H 6.513394 0.091627 6.897703 0
M  V30 43 H 7.389151 1.581334 7.474017 0
M  V30 44 H 4.088572 0.531465 6.095778 0
M  V30 45 H 2.920888 1.662860 4.339245 0
M  V30 46 H 4.103416 4.728127 2.585181 0
M  V30 47 H -0.868820 3.412643 3.177090 0
M  V30 48 H 2.746039 -0.598384 -0.754033 0
M  V30 49 H 3.261374 -0.582439 0.953631 0
M  V30 50 H 3.444797 0.947208 -0.006529 0
M  V30 51 H -2.493527 -0.156572 -1.518505 0
M  V30 52 H -5.320476 -1.542224 -2.549981 0
M  V30 53 H -5.699231 -2.172646 -4.531644 0
M  V30 54 H -6.053695 -3.039956 -6.803468 0
M  V30 55 H -4.470654 -4.732405 -7.795405 0
M  V30 56 H -2.195800 -4.630777 -4.159557 0
M  V30 57 H -4.739398 -3.548706 -0.028772 0
M  V30 58 H -3.382286 -3.443587 2.036880 0
M  V30 59 H -1.174924 -2.846124 2.853551 0
M  V30 60 H -2.045737 -1.447861 3.514615 0
M  V30 61 H -0.457175 -1.267452 2.563012 0
M  V30 62 H -1.742125 1.969327 0.871593 0
M  V30 63 H -1.844812 1.046401 2.381996 0
M  V30 64 H 6.002208 4.600285 4.097010 0
M  V30 END ATOM
M  V30 BEGIN BOND
M  V30 1 1 1 2
M  V30 2 2 2 3
M  V30 3 1 3 4
M  V30 4 2 4 5
M  V30 5 1 5 6
M  V30 6 1 6 7
M  V30 7 2 7 8
M  V30 8 1 8 9
M  V30 9 2 9 10
M  V30 10 1 10 11
M  V30 11 2 11 12
M  V30 12 1 11 13
M  V30 13 1 13 14
M  V30 14 1 13 15
M  V30 15 2 15 16
M  V30 16 1 15 17
M  V30 17 1 17 18
M  V30 18 2 18 19
M  V30 19 1 19 20
M  V30 20 1 20 21
M  V30 21 1 21 22
M  V30 22 2 22 23
M  V30 23 1 22 24
M  V30 24 2 24 25
M  V30 25 1 25 26
M  V30 26 2 26 27
M  V30 27 1 27 28
M  V30 28 1 28 29
M  V30 29 1 29 30
M  V30 30 1 29 31
M  V30 31 1 29 32
M  V30 32 2 28 33
M  V30 33 2 20 34
M  V30 34 1 34 35
M  V30 35 2 35 36
M  V30 36 1 36 37
M  V30 37 1 17 38
M  V30 38 1 5 39
M  V30 39 2 39 40
M  V30 40 1 40 2
M  V30 41 1 12 7
M  V30 42 1 36 18
M  V30 43 1 38 10
M  V30 44 1 33 24
M  V30 45 1 1 41
M  V30 46 1 1 42
M  V30 47 1 1 43
M  V30 48 1 3 44
M  V30 49 1 4 45
M  V30 50 1 6 46
M  V30 51 1 9 47
M  V30 52 1 14 48
M  V30 53 1 14 49
M  V30 54 1 14 50
M  V30 55 1 19 51
M  V30 56 1 21 52
M  V30 57 1 25 53
M  V30 58 1 26 54
M  V30 59 1 27 55
M  V30 60 1 33 56
M  V30 61 1 34 57
M  V30 62 1 35 58
M  V30 63 1 37 59
M  V30 64 1 37 60
M  V30 65 1 37 61
M  V30 66 1 38 62
M  V30 67 1 38 63
M  V30 68 1 39 64
M  V30 END BOND
M  V30 END CTAB
M  END
>  <Dataset>  (353) 
ChEMBL_Kinases

>  <Ligand_Instance>  (353) 
nan

>  <PDB_ID>  (353) 
nan

>  <Standardized_SMILES>  (353) 
Cc1ccc(Nc2ncc3c(n2)N(C)C(=O)N(c2cc(NC(=O)c4cccc(C(F)(F)F)c4)ccc2C)C3)cn1

>  <Name>  (353) 
nan

>  <Pocket>  (353) 
nan

>  <ATP_Site>  (353) 
nan

>  <Peripheral>  (353) 
nan

>  <Num_H_Atoms_ProtBoundConf>  (353) 
nan

>  <Num_Resolved_Atoms>  (353) 
nan

>  <Num_Not_Resolved_Atoms>  (353) 
nan

$$$$
CHEMBL1210236
     RDKit          3D

  0  0  0  0  0  0  0  0  0  0999 V3000
M  V30 BEGIN CTAB
M  V30 COUNTS 36 39 0 0 0
M  V30 BEGIN ATOM
M  V30 1 N 3.854131 -3.592425 5.359825 0
M  V30 2 C 3.439766 -3.808458 4.290369 0
M  V30 3 C 2.911277 -4.083377 2.976215 0
M  V30 4 C 3.173783 -5.349521 2.448085 0
M  V30 5 C 2.709398 -5.712298 1.191292 0
M  V30 6 C 1.981637 -4.770620 0.493094 0
M  V30 7 C 1.722441 -3.520136 1.014817 0
M  V30 8 C 0.943805 -2.587591 0.204689 0
M  V30 9 N 0.569831 -1.329384 0.497807 0
M  V30 10 C -0.149445 -0.784185 -0.516799 0
M  V30 11 C -0.732952 0.456066 -0.668064 0
M  V30 12 N -0.615697 1.409570 0.374902 0
M  V30 13 C -1.134517 2.729313 0.423266 0
M  V30 14 C -0.924467 3.545801 1.540410 0
M  V30 15 C -1.421217 4.825478 1.600264 0
M  V30 16 C -2.150308 5.370270 0.566002 0
M  V30 17 C -2.380513 4.599588 -0.553860 0
M  V30 18 C -1.867308 3.320849 -0.579235 0
M  V30 19 N -1.364414 0.611849 -1.830606 0
M  V30 20 C -1.458721 -0.308687 -2.798829 0
M  V30 21 N -0.871403 -1.501750 -2.600030 0
M  V30 22 C -0.204886 -1.774668 -1.464284 0
M  V30 23 N 0.449855 -2.841185 -1.020796 0
M  V30 24 C 2.175367 -3.140812 2.262068 0
M  V30 25 H 3.751460 -6.091024 3.007331 0
M  V30 26 H 2.907112 -6.683678 0.778575 0
M  V30 27 H 1.632323 -5.097551 -0.497774 0
M  V30 28 H -0.080735 1.118823 1.225932 0
M  V30 29 H -0.357348 3.181433 2.394890 0
M  V30 30 H -1.236233 5.419461 2.478858 0
M  V30 31 H -2.535415 6.378056 0.625629 0
M  V30 32 H -2.952582 5.026183 -1.366101 0
M  V30 33 H -2.090173 2.792945 -1.479757 0
M  V30 34 H -2.006243 -0.037860 -3.692537 0
M  V30 35 H 0.536693 -3.719837 -1.582633 0
M  V30 36 H 1.989365 -2.177511 2.691972 0
M  V30 END ATOM
M  V30 BEGIN BOND
M  V30 1 3 1 2
M  V30 2 1 2 3
M  V30 3 2 3 4
M  V30 4 1 4 5
M  V30 5 2 5 6
M  V30 6 1 6 7
M  V30 7 1 7 8
M  V30 8 2 8 9
M  V30 9 1 9 10
M  V30 10 2 10 11
M  V30 11 1 11 12
M  V30 12 1 12 13
M  V30 13 2 13 14
M  V30 14 1 14 15
M  V30 15 2 15 16
M  V30 16 1 16 17
M  V30 17 2 17 18
M  V30 18 1 11 19
M  V30 19 2 19 20
M  V30 20 1 20 21
M  V30 21 2 21 22
M  V30 22 1 22 23
M  V30 23 2 7 24
M  V30 24 1 24 3
M  V30 25 1 23 8
M  V30 26 1 22 10
M  V30 27 1 18 13
M  V30 28 1 4 25
M  V30 29 1 5 26
M  V30 30 1 6 27
M  V30 31 1 12 28
M  V30 32 1 14 29
M  V30 33 1 15 30
M  V30 34 1 16 31
M  V30 35 1 17 32
M  V30 36 1 18 33
M  V30 37 1 20 34
M  V30 38 1 23 35
M  V30 39 1 24 36
M  V30 END BOND
M  V30 END CTAB
M  END
>  <Dataset>  (354) 
ChEMBL_Kinases

>  <Ligand_Instance>  (354) 
nan

>  <PDB_ID>  (354) 
nan

>  <Standardized_SMILES>  (354) 
N#Cc1cccc(-c2nc3c(Nc4ccccc4)ncnc3[nH]2)c1

>  <Name>  (354) 
nan

>  <Pocket>  (354) 
nan

>  <ATP_Site>  (354) 
nan

>  <Peripheral>  (354) 
nan

>  <Num_H_Atoms_ProtBoundConf>  (354) 
nan

>  <Num_Resolved_Atoms>  (354) 
nan

>  <Num_Not_Resolved_Atoms>  (354) 
nan

$$$$
CHEMBL1210310
     RDKit          3D

  0  0  0  0  0  0  0  0  0  0999 V3000
M  V30 BEGIN CTAB
M  V30 COUNTS 34 37 0 0 0
M  V30 BEGIN ATOM
M  V30 1 O -2.400794 -1.717120 1.809447 0
M  V30 2 C -2.775210 -1.847446 0.596298 0
M  V30 3 N -1.858123 -2.488274 -0.280929 0
M  V30 4 C -0.691232 -2.849359 0.424080 0
M  V30 5 N -0.626985 -4.058327 1.011994 0
M  V30 6 C 0.467415 -4.442486 1.694216 0
M  V30 7 N 1.522861 -3.598067 1.791134 0
M  V30 8 C 1.480750 -2.368386 1.203862 0
M  V30 9 N 2.364199 -1.357724 1.144665 0
M  V30 10 C 1.854526 -0.333656 0.436666 0
M  V30 11 C 2.529180 0.931781 0.163466 0
M  V30 12 C 3.799283 1.100036 0.671543 0
M  V30 13 C 4.486895 2.279264 0.444110 0
M  V30 14 C 3.911604 3.314804 -0.299422 0
M  V30 15 C 2.639529 3.060074 -0.768474 0
M  V30 16 Cl 1.880387 4.344160 -1.711570 0
M  V30 17 C 1.903223 1.908518 -0.576278 0
M  V30 18 N 0.610811 -0.709611 0.036584 0
M  V30 19 C 0.366678 -1.963934 0.503197 0
M  V30 20 C -4.122485 -1.314154 0.248854 0
M  V30 21 C -4.474524 -0.037474 0.986678 0
M  V30 22 C -5.199363 -1.338847 1.274593 0
M  V30 23 H -2.187603 -2.583906 -1.272070 0
M  V30 24 H 0.648334 -5.375905 2.208719 0
M  V30 25 H 3.296031 -1.380870 1.585180 0
M  V30 26 H 4.331835 0.364950 1.256615 0
M  V30 27 H 5.484771 2.428816 0.835273 0
M  V30 28 H 4.401617 4.256463 -0.508271 0
M  V30 29 H 0.912595 1.798581 -0.982391 0
M  V30 30 H -4.449310 -1.424152 -0.794988 0
M  V30 31 H -3.818816 0.347042 1.769225 0
M  V30 32 H -5.005642 0.719511 0.366805 0
M  V30 33 H -6.252913 -1.355831 0.946637 0
M  V30 34 H -5.031129 -1.851956 2.242794 0
M  V30 END ATOM
M  V30 BEGIN BOND
M  V30 1 2 1 2
M  V30 2 1 2 3
M  V30 3 1 3 4
M  V30 4 2 4 5
M  V30 5 1 5 6
M  V30 6 2 6 7
M  V30 7 1 7 8
M  V30 8 1 8 9
M  V30 9 1 9 10
M  V30 10 1 10 11
M  V30 11 2 11 12
M  V30 12 1 12 13
M  V30 13 2 13 14
M  V30 14 1 14 15
M  V30 15 1 15 16
M  V30 16 2 15 17
M  V30 17 2 10 18
M  V30 18 1 18 19
M  V30 19 1 2 20
M  V30 20 1 20 21
M  V30 21 1 21 22
M  V30 22 1 19 4
M  V30 23 1 22 20
M  V30 24 2 19 8
M  V30 25 1 17 11
M  V30 26 1 3 23
M  V30 27 1 6 24
M  V30 28 1 9 25
M  V30 29 1 12 26
M  V30 30 1 13 27
M  V30 31 1 14 28
M  V30 32 1 17 29
M  V30 33 1 20 30
M  V30 34 1 21 31
M  V30 35 1 21 32
M  V30 36 1 22 33
M  V30 37 1 22 34
M  V30 END BOND
M  V30 END CTAB
M  END
>  <Dataset>  (355) 
ChEMBL_Kinases

>  <Ligand_Instance>  (355) 
nan

>  <PDB_ID>  (355) 
nan

>  <Standardized_SMILES>  (355) 
O=C(Nc1ncnc2[nH]c(-c3cccc(Cl)c3)nc12)C1CC1

>  <Name>  (355) 
nan

>  <Pocket>  (355) 
nan

>  <ATP_Site>  (355) 
nan

>  <Peripheral>  (355) 
nan

>  <Num_H_Atoms_ProtBoundConf>  (355) 
nan

>  <Num_Resolved_Atoms>  (355) 
nan

>  <Num_Not_Resolved_Atoms>  (355) 
nan

$$$$
CHEMBL1210405
     RDKit          3D

  0  0  0  0  0  0  0  0  0  0999 V3000
M  V30 BEGIN CTAB
M  V30 COUNTS 35 38 0 0 0
M  V30 BEGIN ATOM
M  V30 1 N -2.053364 -3.857280 4.899991 0
M  V30 2 C -1.673387 -3.981803 3.806589 0
M  V30 3 C -1.224591 -4.134680 2.452020 0
M  V30 4 C -1.229809 -5.399505 1.854067 0
M  V30 5 C -0.795717 -5.531284 0.551765 0
M  V30 6 C -0.377752 -4.393076 -0.089185 0
M  V30 7 C -0.365111 -3.137866 0.482936 0
M  V30 8 C 0.101533 -1.995405 -0.294617 0
M  V30 9 N 0.170640 -0.719245 0.126633 0
M  V30 10 C 0.657562 0.042554 -0.893060 0
M  V30 11 C 0.918442 1.401434 -0.978655 0
M  V30 12 N 0.689036 2.295850 0.109075 0
M  V30 13 C -0.403705 3.067910 0.526706 0
M  V30 14 O -1.520376 3.119109 -0.053976 0
M  V30 15 C -0.165822 3.864290 1.752792 0
M  V30 16 C 1.187482 4.227070 2.196225 0
M  V30 17 C 0.524520 3.063604 2.865372 0
M  V30 18 N 1.412093 1.852363 -2.168122 0
M  V30 19 C 1.637318 1.029867 -3.209066 0
M  V30 20 N 1.381732 -0.303865 -3.126386 0
M  V30 21 C 0.886557 -0.818732 -1.963555 0
M  V30 22 N 0.535265 -2.066261 -1.566071 0
M  V30 23 C -0.795546 -2.985576 1.784739 0
M  V30 24 H -1.574840 -6.257479 2.422722 0
M  V30 25 H -0.800752 -6.503121 0.095266 0
M  V30 26 H -0.037720 -4.498055 -1.110146 0
M  V30 27 H 1.611128 2.263151 0.601662 0
M  V30 28 H -1.038434 4.471181 2.073152 0
M  V30 29 H 2.079765 4.049222 1.574360 0
M  V30 30 H 1.283704 5.110316 2.862230 0
M  V30 31 H 0.090819 3.168217 3.865235 0
M  V30 32 H 0.930245 2.072808 2.619598 0
M  V30 33 H 2.029857 1.506048 -4.097854 0
M  V30 34 H 0.628778 -2.869704 -2.222094 0
M  V30 35 H -0.805383 -2.023513 2.278945 0
M  V30 END ATOM
M  V30 BEGIN BOND
M  V30 1 3 1 2
M  V30 2 1 2 3
M  V30 3 2 3 4
M  V30 4 1 4 5
M  V30 5 2 5 6
M  V30 6 1 6 7
M  V30 7 1 7 8
M  V30 8 2 8 9
M  V30 9 1 9 10
M  V30 10 2 10 11
M  V30 11 1 11 12
M  V30 12 1 12 13
M  V30 13 2 13 14
M  V30 14 1 13 15
M  V30 15 1 15 16
M  V30 16 1 16 17
M  V30 17 1 11 18
M  V30 18 2 18 19
M  V30 19 1 19 20
M  V30 20 2 20 21
M  V30 21 1 21 22
M  V30 22 2 7 23
M  V30 23 1 23 3
M  V30 24 1 22 8
M  V30 25 1 21 10
M  V30 26 1 17 15
M  V30 27 1 4 24
M  V30 28 1 5 25
M  V30 29 1 6 26
M  V30 30 1 12 27
M  V30 31 1 15 28
M  V30 32 1 16 29
M  V30 33 1 16 30
M  V30 34 1 17 31
M  V30 35 1 17 32
M  V30 36 1 19 33
M  V30 37 1 22 34
M  V30 38 1 23 35
M  V30 END BOND
M  V30 END CTAB
M  END
>  <Dataset>  (356) 
ChEMBL_Kinases

>  <Ligand_Instance>  (356) 
nan

>  <PDB_ID>  (356) 
nan

>  <Standardized_SMILES>  (356) 
N#Cc1cccc(-c2nc3c(NC(=O)C4CC4)ncnc3[nH]2)c1

>  <Name>  (356) 
nan

>  <Pocket>  (356) 
nan

>  <ATP_Site>  (356) 
nan

>  <Peripheral>  (356) 
nan

>  <Num_H_Atoms_ProtBoundConf>  (356) 
nan

>  <Num_Resolved_Atoms>  (356) 
nan

>  <Num_Not_Resolved_Atoms>  (356) 
nan

$$$$
CHEMBL1210406
     RDKit          3D

  0  0  0  0  0  0  0  0  0  0999 V3000
M  V30 BEGIN CTAB
M  V30 COUNTS 40 44 0 0 0
M  V30 BEGIN ATOM
M  V30 1 O 2.529118 -3.733313 0.735345 0
M  V30 2 C 1.693851 -3.895835 1.669525 0
M  V30 3 N 1.673095 -2.981265 2.746820 0
M  V30 4 C 2.677555 -1.969827 2.559735 0
M  V30 5 N 3.943998 -2.064204 3.009035 0
M  V30 6 C 4.834161 -1.075017 2.796756 0
M  V30 7 N 4.518610 0.056191 2.130624 0
M  V30 8 C 3.262058 0.222723 1.648367 0
M  V30 9 N 2.630650 1.212964 0.952458 0
M  V30 10 C 1.360854 0.806381 0.752714 0
M  V30 11 C 0.345629 1.580304 0.043130 0
M  V30 12 C 0.713299 2.813582 -0.457188 0
M  V30 13 C -0.260596 3.528618 -1.124227 0
M  V30 14 C -1.554490 3.060458 -1.300871 0
M  V30 15 C -2.534699 3.772387 -1.968375 0
M  V30 16 C -3.814724 3.245897 -2.111438 0
M  V30 17 C -4.124107 1.988128 -1.580350 0
M  V30 18 C -3.160776 1.259553 -0.909880 0
M  V30 19 C -1.898457 1.811743 -0.785301 0
M  V30 20 C -0.932011 1.080344 -0.112437 0
M  V30 21 N 1.188659 -0.411759 1.307497 0
M  V30 22 C 2.350271 -0.814769 1.877947 0
M  V30 23 C 0.779838 -5.061214 1.558611 0
M  V30 24 C 0.313425 -5.787048 2.787936 0
M  V30 25 C -0.636167 -4.954487 1.980930 0
M  V30 26 H 0.971626 -3.142137 3.503400 0
M  V30 27 H 5.838158 -1.221027 3.188556 0
M  V30 28 H 3.113121 2.103275 0.660207 0
M  V30 29 H 1.687066 3.252555 -0.367589 0
M  V30 30 H -0.103407 4.512830 -1.566767 0
M  V30 31 H -2.278532 4.758484 -2.380421 0
M  V30 32 H -4.592095 3.802363 -2.636746 0
M  V30 33 H -5.134698 1.563324 -1.688729 0
M  V30 34 H -3.350270 0.283734 -0.481797 0
M  V30 35 H -1.170588 0.106057 0.299284 0
M  V30 36 H 0.943872 -5.667124 0.643368 0
M  V30 37 H 0.583756 -5.453074 3.800615 0
M  V30 38 H 0.239015 -6.896360 2.710098 0
M  V30 39 H -1.029427 -4.005646 2.386513 0
M  V30 40 H -1.413162 -5.536233 1.428471 0
M  V30 END ATOM
M  V30 BEGIN BOND
M  V30 1 2 1 2
M  V30 2 1 2 3
M  V30 3 1 3 4
M  V30 4 2 4 5
M  V30 5 1 5 6
M  V30 6 2 6 7
M  V30 7 1 7 8
M  V30 8 1 8 9
M  V30 9 1 9 10
M  V30 10 1 10 11
M  V30 11 2 11 12
M  V30 12 1 12 13
M  V30 13 2 13 14
M  V30 14 1 14 15
M  V30 15 2 15 16
M  V30 16 1 16 17
M  V30 17 2 17 18
M  V30 18 1 18 19
M  V30 19 2 19 20
M  V30 20 2 10 21
M  V30 21 1 21 22
M  V30 22 1 2 23
M  V30 23 1 23 24
M  V30 24 1 24 25
M  V30 25 1 22 4
M  V30 26 1 25 23
M  V30 27 2 22 8
M  V30 28 1 20 11
M  V30 29 1 19 14
M  V30 30 1 3 26
M  V30 31 1 6 27
M  V30 32 1 9 28
M  V30 33 1 12 29
M  V30 34 1 13 30
M  V30 35 1 15 31
M  V30 36 1 16 32
M  V30 37 1 17 33
M  V30 38 1 18 34
M  V30 39 1 20 35
M  V30 40 1 23 36
M  V30 41 1 24 37
M  V30 42 1 24 38
M  V30 43 1 25 39
M  V30 44 1 25 40
M  V30 END BOND
M  V30 END CTAB
M  END
>  <Dataset>  (357) 
ChEMBL_Kinases

>  <Ligand_Instance>  (357) 
nan

>  <PDB_ID>  (357) 
nan

>  <Standardized_SMILES>  (357) 
O=C(Nc1ncnc2[nH]c(-c3ccc4ccccc4c3)nc12)C1CC1

>  <Name>  (357) 
nan

>  <Pocket>  (357) 
nan

>  <ATP_Site>  (357) 
nan

>  <Peripheral>  (357) 
nan

>  <Num_H_Atoms_ProtBoundConf>  (357) 
nan

>  <Num_Resolved_Atoms>  (357) 
nan

>  <Num_Not_Resolved_Atoms>  (357) 
nan

$$$$
CHEMBL1210476
     RDKit          3D

  0  0  0  0  0  0  0  0  0  0999 V3000
M  V30 BEGIN CTAB
M  V30 COUNTS 40 42 0 0 0
M  V30 BEGIN ATOM
M  V30 1 C -0.084945 -6.941164 0.810992 0
M  V30 2 C 0.934098 -5.932590 1.269088 0
M  V30 3 C 0.795162 -4.704918 0.392005 0
M  V30 4 C 1.789995 -3.628440 0.784008 0
M  V30 5 C 1.658224 -2.423419 -0.072212 0
M  V30 6 O 0.885576 -2.163497 -1.030937 0
M  V30 7 N 2.541485 -1.347388 0.204244 0
M  V30 8 C 2.370109 -0.200371 -0.658561 0
M  V30 9 N 3.054356 -0.087422 -1.811825 0
M  V30 10 C 2.880141 1.000451 -2.612381 0
M  V30 11 N 2.025112 2.011108 -2.299924 0
M  V30 12 C 1.340053 1.881648 -1.129249 0
M  V30 13 N 0.438118 2.725322 -0.581701 0
M  V30 14 C 0.018604 2.190858 0.581231 0
M  V30 15 C -0.953926 2.747540 1.517555 0
M  V30 16 C -1.347293 2.153355 2.699185 0
M  V30 17 C -2.275450 2.741453 3.537084 0
M  V30 18 C -2.852501 3.967236 3.215116 0
M  V30 19 C -2.464353 4.565418 2.037524 0
M  V30 20 C -3.082664 5.839775 1.730805 0
M  V30 21 N -3.558907 6.856059 1.477251 0
M  V30 22 C -1.536588 3.968482 1.208887 0
M  V30 23 N 0.663100 1.001006 0.765158 0
M  V30 24 C 1.489921 0.799383 -0.297089 0
M  V30 25 H -0.897001 -7.009717 1.537308 0
M  V30 26 H -0.442972 -6.698005 -0.199559 0
M  V30 27 H 0.384440 -7.955223 0.776587 0
M  V30 28 H 1.937080 -6.351464 1.094428 0
M  V30 29 H 0.762564 -5.701789 2.321693 0
M  V30 30 H 0.815661 -4.935684 -0.671133 0
M  V30 31 H -0.212519 -4.282300 0.603352 0
M  V30 32 H 1.673571 -3.397695 1.854403 0
M  V30 33 H 2.798758 -4.042813 0.628064 0
M  V30 34 H 3.275113 -1.356323 0.972606 0
M  V30 35 H 3.480587 1.008006 -3.534683 0
M  V30 36 H 0.111245 3.650467 -0.990203 0
M  V30 37 H -0.873435 1.196942 2.914417 0
M  V30 38 H -2.481256 2.143573 4.436555 0
M  V30 39 H -3.566954 4.347222 3.931339 0
M  V30 40 H -1.288832 4.516473 0.294398 0
M  V30 END ATOM
M  V30 BEGIN BOND
M  V30 1 1 1 2
M  V30 2 1 2 3
M  V30 3 1 3 4
M  V30 4 1 4 5
M  V30 5 2 5 6
M  V30 6 1 5 7
M  V30 7 1 7 8
M  V30 8 2 8 9
M  V30 9 1 9 10
M  V30 10 2 10 11
M  V30 11 1 11 12
M  V30 12 1 12 13
M  V30 13 1 13 14
M  V30 14 1 14 15
M  V30 15 2 15 16
M  V30 16 1 16 17
M  V30 17 2 17 18
M  V30 18 1 18 19
M  V30 19 1 19 20
M  V30 20 3 20 21
M  V30 21 2 19 22
M  V30 22 2 14 23
M  V30 23 1 23 24
M  V30 24 1 24 8
M  V30 25 2 24 12
M  V30 26 1 22 15
M  V30 27 1 1 25
M  V30 28 1 1 26
M  V30 29 1 1 27
M  V30 30 1 2 28
M  V30 31 1 2 29
M  V30 32 1 3 30
M  V30 33 1 3 31
M  V30 34 1 4 32
M  V30 35 1 4 33
M  V30 36 1 7 34
M  V30 37 1 10 35
M  V30 38 1 13 36
M  V30 39 1 16 37
M  V30 40 1 17 38
M  V30 41 1 18 39
M  V30 42 1 22 40
M  V30 END BOND
M  V30 END CTAB
M  END
>  <Dataset>  (358) 
ChEMBL_Kinases

>  <Ligand_Instance>  (358) 
nan

>  <PDB_ID>  (358) 
nan

>  <Standardized_SMILES>  (358) 
CCCCC(=O)Nc1ncnc2[nH]c(-c3cccc(C#N)c3)nc12

>  <Name>  (358) 
nan

>  <Pocket>  (358) 
nan

>  <ATP_Site>  (358) 
nan

>  <Peripheral>  (358) 
nan

>  <Num_H_Atoms_ProtBoundConf>  (358) 
nan

>  <Num_Resolved_Atoms>  (358) 
nan

>  <Num_Not_Resolved_Atoms>  (358) 
nan

$$$$
CHEMBL1210769
     RDKit          3D

  0  0  0  0  0  0  0  0  0  0999 V3000
M  V30 BEGIN CTAB
M  V30 COUNTS 19 20 0 0 0
M  V30 BEGIN ATOM
M  V30 1 O -2.454144 -0.907630 2.162988 0
M  V30 2 C -1.390027 -0.702997 1.497727 0
M  V30 3 C -0.315839 -0.045379 2.283586 0
M  V30 4 C 0.853220 0.129018 1.389572 0
M  V30 5 C 1.911981 0.737029 2.034256 0
M  V30 6 C 3.104187 0.986335 1.353493 0
M  V30 7 C 3.235240 0.628039 0.032358 0
M  V30 8 C 2.172479 0.019625 -0.608616 0
M  V30 9 C 0.999263 -0.222869 0.070473 0
M  V30 10 C -0.157150 -0.859594 -0.545253 0
M  V30 11 O -0.062536 -1.197414 -1.754720 0
M  V30 12 N -1.375888 -1.118407 0.137830 0
M  V30 13 H -0.711208 0.973321 2.531360 0
M  V30 14 H -0.076760 -0.579108 3.222318 0
M  V30 15 H 1.945022 1.065317 3.053875 0
M  V30 16 H 3.995254 1.453788 1.752935 0
M  V30 17 H 4.132247 0.791923 -0.556478 0
M  V30 18 H 2.208990 -0.289008 -1.651332 0
M  V30 19 H -2.215834 -1.570362 -0.275442 0
M  V30 END ATOM
M  V30 BEGIN BOND
M  V30 1 2 1 2
M  V30 2 1 2 3
M  V30 3 1 3 4
M  V30 4 2 4 5
M  V30 5 1 5 6
M  V30 6 2 6 7
M  V30 7 1 7 8
M  V30 8 2 8 9
M  V30 9 1 9 10
M  V30 10 2 10 11
M  V30 11 1 10 12
M  V30 12 1 12 2
M  V30 13 1 9 4
M  V30 14 1 3 13
M  V30 15 1 3 14
M  V30 16 1 5 15
M  V30 17 1 6 16
M  V30 18 1 7 17
M  V30 19 1 8 18
M  V30 20 1 12 19
M  V30 END BOND
M  V30 END CTAB
M  END
>  <Dataset>  (359) 
ChEMBL_Kinases

>  <Ligand_Instance>  (359) 
nan

>  <PDB_ID>  (359) 
nan

>  <Standardized_SMILES>  (359) 
O=C1Cc2ccccc2C(=O)N1

>  <Name>  (359) 
nan

>  <Pocket>  (359) 
nan

>  <ATP_Site>  (359) 
nan

>  <Peripheral>  (359) 
nan

>  <Num_H_Atoms_ProtBoundConf>  (359) 
nan

>  <Num_Resolved_Atoms>  (359) 
nan

>  <Num_Not_Resolved_Atoms>  (359) 
nan

$$$$
CHEMBL1210770
     RDKit          3D

  0  0  0  0  0  0  0  0  0  0999 V3000
M  V30 BEGIN CTAB
M  V30 COUNTS 22 23 0 0 0
M  V30 BEGIN ATOM
M  V30 1 O -0.199586 0.485440 4.532411 0
M  V30 2 C 0.109116 0.631865 3.301000 0
M  V30 3 C 0.857089 -0.447742 2.638038 0
M  V30 4 C 0.523451 -0.444499 1.181882 0
M  V30 5 C 1.349239 -1.402670 0.360382 0
M  V30 6 C 0.598688 -1.593950 -0.916672 0
M  V30 7 O 0.651042 -2.684247 -1.537856 0
M  V30 8 N -0.184911 -0.523576 -1.432580 0
M  V30 9 C -0.175729 0.743067 -0.778855 0
M  V30 10 O -0.756441 1.788956 -1.164096 0
M  V30 11 C 0.594177 0.893541 0.507699 0
M  V30 12 C 0.083595 1.997451 1.319408 0
M  V30 13 O 0.019244 3.097566 0.711684 0
M  V30 14 N -0.305288 1.847009 2.670028 0
M  V30 15 H 1.939466 -0.454583 2.871712 0
M  V30 16 H 0.446190 -1.411071 3.055064 0
M  V30 17 H -0.535944 -0.821855 1.094835 0
M  V30 18 H 2.331257 -0.946702 0.097066 0
M  V30 19 H 1.531636 -2.364737 0.873784 0
M  V30 20 H -0.785784 -0.600476 -2.282731 0
M  V30 21 H 1.652813 1.115418 0.265369 0
M  V30 22 H -0.856794 2.588213 3.148686 0
M  V30 END ATOM
M  V30 BEGIN BOND
M  V30 1 2 1 2
M  V30 2 1 2 3
M  V30 3 1 3 4
M  V30 4 1 4 5
M  V30 5 1 5 6
M  V30 6 2 6 7
M  V30 7 1 6 8
M  V30 8 1 8 9
M  V30 9 2 9 10
M  V30 10 1 9 11
M  V30 11 1 11 12
M  V30 12 2 12 13
M  V30 13 1 12 14
M  V30 14 1 14 2
M  V30 15 1 11 4
M  V30 16 1 3 15
M  V30 17 1 3 16
M  V30 18 1 4 17
M  V30 19 1 5 18
M  V30 20 1 5 19
M  V30 21 1 8 20
M  V30 22 1 11 21
M  V30 23 1 14 22
M  V30 END BOND
M  V30 END CTAB
M  END
>  <Dataset>  (360) 
ChEMBL_Kinases

>  <Ligand_Instance>  (360) 
nan

>  <PDB_ID>  (360) 
nan

>  <Standardized_SMILES>  (360) 
O=C1CC2CC(=O)NC(=O)C2C(=O)N1

>  <Name>  (360) 
nan

>  <Pocket>  (360) 
nan

>  <ATP_Site>  (360) 
nan

>  <Peripheral>  (360) 
nan

>  <Num_H_Atoms_ProtBoundConf>  (360) 
nan

>  <Num_Resolved_Atoms>  (360) 
nan

>  <Num_Not_Resolved_Atoms>  (360) 
nan

$$$$
CHEMBL121294
     RDKit          3D

  0  0  0  0  0  0  0  0  0  0999 V3000
M  V30 BEGIN CTAB
M  V30 COUNTS 43 46 0 0 0
M  V30 BEGIN ATOM
M  V30 1 O 3.378037 -2.194973 2.084492 0
M  V30 2 C 2.716706 -3.061985 1.453434 0
M  V30 3 N 1.544777 -2.572961 0.834030 0
M  V30 4 C 0.873750 -1.328750 0.716873 0
M  V30 5 C -0.093394 -0.892688 1.611679 0
M  V30 6 C -0.713606 0.332706 1.444192 0
M  V30 7 C -0.344013 1.117354 0.356598 0
M  V30 8 C 0.604529 0.733280 -0.555171 0
M  V30 9 C 1.198593 -0.495981 -0.351219 0
M  V30 10 C 1.013446 1.544846 -1.714133 0
M  V30 11 N 0.309016 2.787280 -1.787528 0
M  V30 12 C -0.692590 3.260812 -0.878024 0
M  V30 13 O -1.240289 4.377109 -1.052801 0
M  V30 14 N -1.005813 2.376381 0.215823 0
M  V30 15 C -2.002104 2.866875 1.105220 0
M  V30 16 C -3.299317 2.515120 0.762803 0
M  V30 17 Cl -3.664835 1.537368 -0.664822 0
M  V30 18 C -4.388735 2.923364 1.541275 0
M  V30 19 C -4.185462 3.694442 2.679613 0
M  V30 20 C -2.885819 4.019969 2.981934 0
M  V30 21 C -1.797665 3.627473 2.227505 0
M  V30 22 Cl -0.148350 4.031183 2.596913 0
M  V30 23 C 3.019042 -4.481364 1.294702 0
M  V30 24 C 2.301315 -5.431954 0.607563 0
M  V30 25 C 2.774427 -6.727123 0.587215 0
M  V30 26 C 3.939092 -7.090991 1.232734 0
M  V30 27 C 4.695266 -6.153198 1.940990 0
M  V30 28 C 4.186475 -4.849441 1.940933 0
M  V30 29 H 0.856446 -3.115362 0.265878 0
M  V30 30 H -0.329360 -1.566805 2.441777 0
M  V30 31 H -1.465715 0.662634 2.147244 0
M  V30 32 H 1.953381 -0.828808 -1.055418 0
M  V30 33 H 2.110040 1.693996 -1.639472 0
M  V30 34 H 0.882449 0.910173 -2.637481 0
M  V30 35 H 0.601616 3.370155 -2.618706 0
M  V30 36 H -5.408945 2.633417 1.251826 0
M  V30 37 H -4.997816 4.030924 3.308672 0
M  V30 38 H -2.660818 4.628025 3.870102 0
M  V30 39 H 1.419550 -5.071869 0.139675 0
M  V30 40 H 2.198006 -7.462475 0.042281 0
M  V30 41 H 4.301706 -8.123919 1.207225 0
M  V30 42 H 5.592255 -6.439296 2.436709 0
M  V30 43 H 4.829692 -4.164323 2.515659 0
M  V30 END ATOM
M  V30 BEGIN BOND
M  V30 1 2 1 2
M  V30 2 1 2 3
M  V30 3 1 3 4
M  V30 4 2 4 5
M  V30 5 1 5 6
M  V30 6 2 6 7
M  V30 7 1 7 8
M  V30 8 2 8 9
M  V30 9 1 8 10
M  V30 10 1 10 11
M  V30 11 1 11 12
M  V30 12 2 12 13
M  V30 13 1 12 14
M  V30 14 1 14 15
M  V30 15 2 15 16
M  V30 16 1 16 17
M  V30 17 1 16 18
M  V30 18 2 18 19
M  V30 19 1 19 20
M  V30 20 2 20 21
M  V30 21 1 21 22
M  V30 22 1 2 23
M  V30 23 2 23 24
M  V30 24 1 24 25
M  V30 25 2 25 26
M  V30 26 1 26 27
M  V30 27 2 27 28
M  V30 28 1 9 4
M  V30 29 1 21 15
M  V30 30 1 28 23
M  V30 31 1 14 7
M  V30 32 1 3 29
M  V30 33 1 5 30
M  V30 34 1 6 31
M  V30 35 1 9 32
M  V30 36 1 10 33
M  V30 37 1 10 34
M  V30 38 1 11 35
M  V30 39 1 18 36
M  V30 40 1 19 37
M  V30 41 1 20 38
M  V30 42 1 24 39
M  V30 43 1 25 40
M  V30 44 1 26 41
M  V30 45 1 27 42
M  V30 46 1 28 43
M  V30 END BOND
M  V30 END CTAB
M  END
>  <Dataset>  (361) 
ChEMBL_Kinases

>  <Ligand_Instance>  (361) 
nan

>  <PDB_ID>  (361) 
nan

>  <Standardized_SMILES>  (361) 
O=C(Nc1ccc2c(c1)CNC(=O)N2c1c(Cl)cccc1Cl)c1ccccc1

>  <Name>  (361) 
nan

>  <Pocket>  (361) 
nan

>  <ATP_Site>  (361) 
nan

>  <Peripheral>  (361) 
nan

>  <Num_H_Atoms_ProtBoundConf>  (361) 
nan

>  <Num_Resolved_Atoms>  (361) 
nan

>  <Num_Not_Resolved_Atoms>  (361) 
nan

$$$$
CHEMBL1213976
     RDKit          3D

  0  0  0  0  0  0  0  0  0  0999 V3000
M  V30 BEGIN CTAB
M  V30 COUNTS 51 53 0 0 0
M  V30 BEGIN ATOM
M  V30 1 O -1.333250 -3.190658 -0.293475 0
M  V30 2 C -2.216638 -3.216978 0.629842 0
M  V30 3 N -2.315516 -2.129435 1.571236 0
M  V30 4 C -1.365532 -1.083189 1.359857 0
M  V30 5 C -0.177482 -1.249174 2.043124 0
M  V30 6 C 0.846693 -0.317159 1.938990 0
M  V30 7 C 0.676790 0.798434 1.137175 0
M  V30 8 O 1.638728 1.808303 0.952646 0
M  V30 9 C 2.880325 1.817173 1.552149 0
M  V30 10 C 3.646808 3.047932 1.123509 0
M  V30 11 N 2.938997 4.211142 1.505030 0
M  V30 12 C 2.817217 4.507416 2.881016 0
M  V30 13 C 2.411962 5.976153 2.991386 0
M  V30 14 O 1.261888 6.276973 2.303652 0
M  V30 15 C 0.820800 5.313469 1.431004 0
M  V30 16 C 1.975821 4.737286 0.614434 0
M  V30 17 C -0.528867 0.963762 0.445707 0
M  V30 18 C -1.539862 0.027701 0.558970 0
M  V30 19 N -3.025019 -4.383195 0.597153 0
M  V30 20 C -2.762544 -5.356983 -0.434475 0
M  V30 21 C -3.477786 -5.155510 -1.620763 0
M  V30 22 C -3.296129 -6.044839 -2.683393 0
M  V30 23 C -2.426324 -7.090545 -2.543927 0
M  V30 24 Cl -2.234021 -8.179533 -3.910709 0
M  V30 25 C -1.734092 -7.266748 -1.365079 0
M  V30 26 C -0.798214 -8.419102 -1.259944 0
M  V30 27 F -1.441926 -9.629466 -1.433898 0
M  V30 28 F 0.173999 -8.377850 -2.258316 0
M  V30 29 F -0.138100 -8.435062 -0.054713 0
M  V30 30 C -1.883130 -6.408348 -0.283778 0
M  V30 31 H -3.077278 -2.298864 2.256545 0
M  V30 32 H 0.050038 -2.092659 2.697591 0
M  V30 33 H 1.799036 -0.397542 2.452449 0
M  V30 34 H 3.446960 0.911833 1.196365 0
M  V30 35 H 2.866124 1.706395 2.654805 0
M  V30 36 H 3.675543 3.035741 -0.004156 0
M  V30 37 H 4.704167 3.024350 1.517334 0
M  V30 38 H 2.085093 3.835322 3.363048 0
M  V30 39 H 3.780221 4.425136 3.411779 0
M  V30 40 H 2.254219 6.239334 4.056326 0
M  V30 41 H 3.299515 6.527048 2.565355 0
M  V30 42 H 0.321237 4.457401 1.912950 0
M  V30 43 H 0.102866 5.715884 0.677486 0
M  V30 44 H 1.523726 3.926234 -0.006149 0
M  V30 45 H 2.369804 5.496930 -0.093964 0
M  V30 46 H -0.687456 1.831172 -0.190421 0
M  V30 47 H -2.490204 0.090809 0.056478 0
M  V30 48 H -3.769393 -4.436115 1.354310 0
M  V30 49 H -4.165617 -4.325504 -1.724559 0
M  V30 50 H -3.881602 -5.830821 -3.574990 0
M  V30 51 H -1.354891 -6.520762 0.651667 0
M  V30 END ATOM
M  V30 BEGIN BOND
M  V30 1 2 1 2
M  V30 2 1 2 3
M  V30 3 1 3 4
M  V30 4 2 4 5
M  V30 5 1 5 6
M  V30 6 2 6 7
M  V30 7 1 7 8
M  V30 8 1 8 9
M  V30 9 1 9 10
M  V30 10 1 10 11
M  V30 11 1 11 12
M  V30 12 1 12 13
M  V30 13 1 13 14
M  V30 14 1 14 15
M  V30 15 1 15 16
M  V30 16 1 7 17
M  V30 17 2 17 18
M  V30 18 1 2 19
M  V30 19 1 19 20
M  V30 20 2 20 21
M  V30 21 1 21 22
M  V30 22 2 22 23
M  V30 23 1 23 24
M  V30 24 1 23 25
M  V30 25 1 25 26
M  V30 26 1 26 27
M  V30 27 1 26 28
M  V30 28 1 26 29
M  V30 29 2 25 30
M  V30 30 1 18 4
M  V30 31 1 30 20
M  V30 32 1 16 11
M  V30 33 1 3 31
M  V30 34 1 5 32
M  V30 35 1 6 33
M  V30 36 1 9 34
M  V30 37 1 9 35
M  V30 38 1 10 36
M  V30 39 1 10 37
M  V30 40 1 12 38
M  V30 41 1 12 39
M  V30 42 1 13 40
M  V30 43 1 13 41
M  V30 44 1 15 42
M  V30 45 1 15 43
M  V30 46 1 16 44
M  V30 47 1 16 45
M  V30 48 1 17 46
M  V30 49 1 18 47
M  V30 50 1 19 48
M  V30 51 1 21 49
M  V30 52 1 22 50
M  V30 53 1 30 51
M  V30 END BOND
M  V30 END CTAB
M  END
>  <Dataset>  (362) 
ChEMBL_Kinases

>  <Ligand_Instance>  (362) 
nan

>  <PDB_ID>  (362) 
nan

>  <Standardized_SMILES>  (362) 
O=C(Nc1ccc(OCCN2CCOCC2)cc1)Nc1ccc(Cl)c(C(F)(F)F)c1

>  <Name>  (362) 
nan

>  <Pocket>  (362) 
nan

>  <ATP_Site>  (362) 
nan

>  <Peripheral>  (362) 
nan

>  <Num_H_Atoms_ProtBoundConf>  (362) 
nan

>  <Num_Resolved_Atoms>  (362) 
nan

>  <Num_Not_Resolved_Atoms>  (362) 
nan

$$$$
CHEMBL121317
     RDKit          3D

  0  0  0  0  0  0  0  0  0  0999 V3000
M  V30 BEGIN CTAB
M  V30 COUNTS 44 47 0 0 0
M  V30 BEGIN ATOM
M  V30 1 O -3.441446 -3.018686 2.098211 0
M  V30 2 C -2.789150 -2.089335 1.608466 0
M  V30 3 N -3.206919 -0.737435 1.748999 0
M  V30 4 C -2.591057 0.477817 1.256668 0
M  V30 5 C -1.360436 0.097177 0.522373 0
M  V30 6 C -0.689054 1.187379 0.006351 0
M  V30 7 C 0.483171 1.015621 -0.710055 0
M  V30 8 N 1.295142 2.016153 -1.305951 0
M  V30 9 S 1.684037 3.449916 -0.426013 0
M  V30 10 O 2.517323 4.364089 -1.273686 0
M  V30 11 O 0.397708 4.090423 -0.006235 0
M  V30 12 C 2.585456 2.938583 1.002618 0
M  V30 13 C 3.956139 2.869868 0.838655 0
M  V30 14 C 4.700627 2.476165 1.924390 0
M  V30 15 C 4.113851 2.158011 3.140326 0
M  V30 16 C 2.727830 2.230534 3.296104 0
M  V30 17 C 1.975443 2.627808 2.200850 0
M  V30 18 C 0.994455 -0.271119 -0.914752 0
M  V30 19 C 0.314118 -1.356563 -0.393570 0
M  V30 20 C -0.836039 -1.160804 0.306928 0
M  V30 21 N -1.582267 -2.234391 0.868121 0
M  V30 22 C -1.065939 -3.554602 0.663251 0
M  V30 23 C -0.200469 -4.278815 1.422426 0
M  V30 24 Cl 0.352993 -3.458022 2.858866 0
M  V30 25 C 0.155053 -5.532166 1.026319 0
M  V30 26 C -0.345694 -6.094613 -0.139860 0
M  V30 27 C -1.225598 -5.373054 -0.922609 0
M  V30 28 C -1.592695 -4.086206 -0.519018 0
M  V30 29 Cl -2.713640 -3.300113 -1.614796 0
M  V30 30 H -4.097472 -0.530109 2.286292 0
M  V30 31 H -3.275017 0.916406 0.481043 0
M  V30 32 H -2.412616 1.185185 2.093804 0
M  V30 33 H -0.997340 2.218931 0.106995 0
M  V30 34 H 1.666208 1.896863 -2.282127 0
M  V30 35 H 4.453328 3.104853 -0.077604 0
M  V30 36 H 5.779801 2.415698 1.816288 0
M  V30 37 H 4.726250 1.849774 3.981950 0
M  V30 38 H 2.247171 1.987088 4.235549 0
M  V30 39 H 0.889793 2.700931 2.269085 0
M  V30 40 H 1.904521 -0.494277 -1.462953 0
M  V30 41 H 0.691256 -2.358636 -0.539854 0
M  V30 42 H 0.850746 -6.070113 1.669313 0
M  V30 43 H -0.052843 -7.091920 -0.440136 0
M  V30 44 H -1.588846 -5.855114 -1.823432 0
M  V30 END ATOM
M  V30 BEGIN BOND
M  V30 1 2 1 2
M  V30 2 1 2 3
M  V30 3 1 3 4
M  V30 4 1 4 5
M  V30 5 2 5 6
M  V30 6 1 6 7
M  V30 7 1 7 8
M  V30 8 1 8 9
M  V30 9 2 9 10
M  V30 10 2 9 11
M  V30 11 1 9 12
M  V30 12 2 12 13
M  V30 13 1 13 14
M  V30 14 2 14 15
M  V30 15 1 15 16
M  V30 16 2 16 17
M  V30 17 2 7 18
M  V30 18 1 18 19
M  V30 19 2 19 20
M  V30 20 1 20 21
M  V30 21 1 21 22
M  V30 22 2 22 23
M  V30 23 1 23 24
M  V30 24 1 23 25
M  V30 25 2 25 26
M  V30 26 1 26 27
M  V30 27 2 27 28
M  V30 28 1 28 29
M  V30 29 1 21 2
M  V30 30 1 28 22
M  V30 31 1 20 5
M  V30 32 1 17 12
M  V30 33 1 3 30
M  V30 34 1 4 31
M  V30 35 1 4 32
M  V30 36 1 6 33
M  V30 37 1 8 34
M  V30 38 1 13 35
M  V30 39 1 14 36
M  V30 40 1 15 37
M  V30 41 1 16 38
M  V30 42 1 17 39
M  V30 43 1 18 40
M  V30 44 1 19 41
M  V30 45 1 25 42
M  V30 46 1 26 43
M  V30 47 1 27 44
M  V30 END BOND
M  V30 END CTAB
M  END
>  <Dataset>  (363) 
ChEMBL_Kinases

>  <Ligand_Instance>  (363) 
nan

>  <PDB_ID>  (363) 
nan

>  <Standardized_SMILES>  (363) 
O=C1NCc2cc(NS(=O)(=O)c3ccccc3)ccc2N1c1c(Cl)cccc1Cl

>  <Name>  (363) 
nan

>  <Pocket>  (363) 
nan

>  <ATP_Site>  (363) 
nan

>  <Peripheral>  (363) 
nan

>  <Num_H_Atoms_ProtBoundConf>  (363) 
nan

>  <Num_Resolved_Atoms>  (363) 
nan

>  <Num_Not_Resolved_Atoms>  (363) 
nan

$$$$
CHEMBL1213510
     RDKit          3D

  0  0  0  0  0  0  0  0  0  0999 V3000
M  V30 BEGIN CTAB
M  V30 COUNTS 72 77 0 0 0
M  V30 BEGIN ATOM
M  V30 1 N 0.815673 -0.899713 5.919836 0
M  V30 2 C 1.369268 -1.076002 4.563800 0 CFG=1
M  V30 3 C 2.606035 -1.878140 4.719175 0
M  V30 4 C 2.500878 -3.315415 4.324125 0
M  V30 5 C 1.703436 -3.545050 3.065975 0 CFG=2
M  V30 6 N 2.165692 -2.633427 2.032407 0
M  V30 7 C 1.772797 -2.642498 0.644107 0
M  V30 8 N 2.223637 -1.614619 -0.131653 0
M  V30 9 C 1.942599 -1.527656 -1.443103 0
M  V30 10 N 2.532804 -0.353407 -1.981661 0
M  V30 11 C 1.685659 0.773328 -1.691293 0
M  V30 12 C 2.306198 2.019682 -1.668919 0
M  V30 13 C 1.575854 3.160713 -1.392799 0
M  V30 14 C 0.247974 3.122119 -1.135692 0
M  V30 15 C -0.677995 4.172668 -0.819361 0
M  V30 16 O -0.183212 4.533275 0.299034 0
M  V30 17 N -1.815854 4.820805 -1.324475 0
M  V30 18 C -2.631677 4.694131 -2.526629 0
M  V30 19 C -4.068558 4.418422 -2.205131 0
M  V30 20 C -4.412904 4.375949 -0.769390 0
M  V30 21 C -3.613965 5.244719 0.142328 0
M  V30 22 C -2.409693 5.871575 -0.515900 0
M  V30 23 C -0.375722 1.881705 -1.158102 0
M  V30 24 C 0.320755 0.724174 -1.428789 0
M  V30 25 C 1.179121 -2.527192 -1.965423 0
M  V30 26 N 0.801856 -2.613158 -3.267792 0
M  V30 27 C 0.062291 -3.773178 -3.351094 0
M  V30 28 N 0.037002 -4.313312 -2.101679 0
M  V30 29 C -0.620070 -5.541528 -1.836312 0
M  V30 30 C 0.012532 -6.542023 -1.100070 0
M  V30 31 C -0.582508 -7.748243 -0.838101 0
M  V30 32 C -1.868409 -8.047459 -1.296157 0
M  V30 33 C -2.532977 -7.078041 -2.031897 0
M  V30 34 F -3.772909 -7.365529 -2.472280 0
M  V30 35 C -1.874018 -5.895498 -2.255318 0
M  V30 36 C 0.716304 -3.568494 -1.215916 0
M  V30 37 N 1.016319 -3.619283 0.092357 0
M  V30 38 C 0.282518 -3.084557 3.440309 0
M  V30 39 C 0.278610 -1.605878 3.721452 0
M  V30 40 H 0.658612 0.117762 6.147732 0
M  V30 41 H 1.424263 -1.350953 6.646542 0
M  V30 42 H 1.629366 -0.009176 4.270108 0
M  V30 43 H 3.003573 -1.856572 5.777682 0
M  V30 44 H 3.429884 -1.403637 4.121913 0
M  V30 45 H 1.934105 -3.863107 5.132383 0
M  V30 46 H 3.455727 -3.844532 4.205558 0
M  V30 47 H 1.673221 -4.584390 2.806952 0
M  V30 48 H 2.845597 -1.907238 2.302068 0
M  V30 49 H 3.405179 -0.224314 -2.501528 0
M  V30 50 H 3.382520 2.182469 -1.859807 0
M  V30 51 H 1.981121 4.184453 -1.354583 0
M  V30 52 H -2.502454 5.638169 -3.093177 0
M  V30 53 H -2.151576 3.904030 -3.139263 0
M  V30 54 H -4.692224 5.141987 -2.771121 0
M  V30 55 H -4.316851 3.424388 -2.653269 0
M  V30 56 H -5.487002 4.628447 -0.637808 0
M  V30 57 H -4.318110 3.321759 -0.400541 0
M  V30 58 H -3.239000 4.685470 1.019815 0
M  V30 59 H -4.216475 6.088231 0.542174 0
M  V30 60 H -2.709663 6.768152 -1.109376 0
M  V30 61 H -1.690336 6.143356 0.277287 0
M  V30 62 H -1.440935 1.668899 -0.968228 0
M  V30 63 H -0.118853 -0.273944 -1.454782 0
M  V30 64 H -0.366443 -4.089668 -4.286846 0
M  V30 65 H 1.030851 -6.409784 -0.691588 0
M  V30 66 H -0.045771 -8.498759 -0.259745 0
M  V30 67 H -2.269730 -9.017211 -1.052796 0
M  V30 68 H -2.438964 -5.162933 -2.845903 0
M  V30 69 H -0.351381 -3.333733 2.560669 0
M  V30 70 H -0.027882 -3.619792 4.341141 0
M  V30 71 H 0.406063 -1.124199 2.699034 0
M  V30 72 H -0.709505 -1.245722 4.059970 0
M  V30 END ATOM
M  V30 BEGIN BOND
M  V30 1 1 1 2
M  V30 2 1 2 3
M  V30 3 1 3 4
M  V30 4 1 4 5
M  V30 5 1 5 6
M  V30 6 1 6 7
M  V30 7 2 7 8
M  V30 8 1 8 9
M  V30 9 1 9 10
M  V30 10 1 10 11
M  V30 11 2 11 12
M  V30 12 1 12 13
M  V30 13 2 13 14
M  V30 14 1 14 15
M  V30 15 2 15 16
M  V30 16 1 15 17
M  V30 17 1 17 18
M  V30 18 1 18 19
M  V30 19 1 19 20
M  V30 20 1 20 21
M  V30 21 1 21 22
M  V30 22 1 14 23
M  V30 23 2 23 24
M  V30 24 2 9 25
M  V30 25 1 25 26
M  V30 26 2 26 27
M  V30 27 1 27 28
M  V30 28 1 28 29
M  V30 29 2 29 30
M  V30 30 1 30 31
M  V30 31 2 31 32
M  V30 32 1 32 33
M  V30 33 1 33 34
M  V30 34 2 33 35
M  V30 35 1 28 36
M  V30 36 2 36 37
M  V30 37 1 5 38
M  V30 38 1 38 39
M  V30 39 1 39 2
M  V30 40 1 37 7
M  V30 41 1 24 11
M  V30 42 1 36 25
M  V30 43 1 22 17
M  V30 44 1 35 29
M  V30 45 1 1 40
M  V30 46 1 1 41
M  V30 47 1 2 42 CFG=3
M  V30 48 1 3 43
M  V30 49 1 3 44
M  V30 50 1 4 45
M  V30 51 1 4 46
M  V30 52 1 5 47 CFG=3
M  V30 53 1 6 48
M  V30 54 1 10 49
M  V30 55 1 12 50
M  V30 56 1 13 51
M  V30 57 1 18 52
M  V30 58 1 18 53
M  V30 59 1 19 54
M  V30 60 1 19 55
M  V30 61 1 20 56
M  V30 62 1 20 57
M  V30 63 1 21 58
M  V30 64 1 21 59
M  V30 65 1 22 60
M  V30 66 1 22 61
M  V30 67 1 23 62
M  V30 68 1 24 63
M  V30 69 1 27 64
M  V30 70 1 30 65
M  V30 71 1 31 66
M  V30 72 1 32 67
M  V30 73 1 35 68
M  V30 74 1 38 69
M  V30 75 1 38 70
M  V30 76 1 39 71
M  V30 77 1 39 72
M  V30 END BOND
M  V30 END CTAB
M  END
>  <Dataset>  (364) 
ChEMBL_Kinases

>  <Ligand_Instance>  (364) 
nan

>  <PDB_ID>  (364) 
nan

>  <Standardized_SMILES>  (364) 
N[C@H]1CC[C@H](Nc2nc(Nc3ccc(C(=O)N4CCCCC4)cc3)c3ncn(-c4cccc(F)c4)c3n2)CC1

>  <Name>  (364) 
PURFALCAMINE

>  <Pocket>  (364) 
nan

>  <ATP_Site>  (364) 
nan

>  <Peripheral>  (364) 
nan

>  <Num_H_Atoms_ProtBoundConf>  (364) 
nan

>  <Num_Resolved_Atoms>  (364) 
nan

>  <Num_Not_Resolved_Atoms>  (364) 
nan

$$$$
CHEMBL1213804
     RDKit          3D

  0  0  0  0  0  0  0  0  0  0999 V3000
M  V30 BEGIN CTAB
M  V30 COUNTS 30 32 0 0 0
M  V30 BEGIN ATOM
M  V30 1 O 0.220597 -1.242271 2.862377 0
M  V30 2 C 1.201398 -1.152340 2.103995 0
M  V30 3 N 2.464887 -1.459496 2.672459 0
M  V30 4 C 3.432845 -1.294672 1.646079 0
M  V30 5 C 4.800915 -1.422753 1.514478 0
M  V30 6 C 5.469919 -1.182296 0.342796 0
M  V30 7 C 4.765128 -0.795203 -0.762567 0
M  V30 8 C 3.405156 -0.654334 -0.681228 0
M  V30 9 C 2.739672 -0.904387 0.523971 0
M  V30 10 C 1.281125 -0.778746 0.704145 0
M  V30 11 C 0.330459 -0.422817 -0.179669 0
M  V30 12 C -0.965000 -0.437881 0.442996 0
M  V30 13 O -1.008238 -0.104075 -0.757697 0
M  V30 14 C -2.379607 -0.266692 0.437310 0
M  V30 15 C -2.755927 -0.581028 1.750696 0
M  V30 16 C -4.096302 -0.529346 2.149141 0
M  V30 17 C -5.011546 -0.163828 1.214641 0
M  V30 18 Br -6.892655 -0.031824 1.556527 0
M  V30 19 C -4.757385 0.158182 -0.073262 0
M  V30 20 C -3.437349 0.089871 -0.402039 0
M  V30 21 H 2.757279 -1.755222 3.624742 0
M  V30 22 H 5.320050 -1.734372 2.425444 0
M  V30 23 H 6.529739 -1.322848 0.391839 0
M  V30 24 H 5.286808 -0.606666 -1.679998 0
M  V30 25 H 2.888065 -0.339870 -1.603504 0
M  V30 26 H 0.894275 -0.232441 -1.122219 0
M  V30 27 H -2.273135 -0.890926 2.671439 0
M  V30 28 H -4.576817 -0.731726 3.099134 0
M  V30 29 H -5.380560 0.457110 -0.892420 0
M  V30 30 H -3.050921 0.315755 -1.396699 0
M  V30 END ATOM
M  V30 BEGIN BOND
M  V30 1 2 1 2
M  V30 2 1 2 3
M  V30 3 1 3 4
M  V30 4 2 4 5
M  V30 5 1 5 6
M  V30 6 2 6 7
M  V30 7 1 7 8
M  V30 8 2 8 9
M  V30 9 1 9 10
M  V30 10 2 10 11
M  V30 11 1 11 12
M  V30 12 2 12 13
M  V30 13 1 12 14
M  V30 14 2 14 15
M  V30 15 1 15 16
M  V30 16 2 16 17
M  V30 17 1 17 18
M  V30 18 1 17 19
M  V30 19 2 19 20
M  V30 20 1 10 2
M  V30 21 1 20 14
M  V30 22 1 9 4
M  V30 23 1 3 21
M  V30 24 1 5 22
M  V30 25 1 6 23
M  V30 26 1 7 24
M  V30 27 1 8 25
M  V30 28 1 11 26
M  V30 29 1 15 27
M  V30 30 1 16 28
M  V30 31 1 19 29
M  V30 32 1 20 30
M  V30 END BOND
M  V30 END CTAB
M  END
>  <Dataset>  (365) 
ChEMBL_Kinases

>  <Ligand_Instance>  (365) 
nan

>  <PDB_ID>  (365) 
nan

>  <Standardized_SMILES>  (365) 
O=C1Nc2ccccc2/C1=C/C(=O)c1ccc(Br)cc1

>  <Name>  (365) 
nan

>  <Pocket>  (365) 
nan

>  <ATP_Site>  (365) 
nan

>  <Peripheral>  (365) 
nan

>  <Num_H_Atoms_ProtBoundConf>  (365) 
nan

>  <Num_Resolved_Atoms>  (365) 
nan

>  <Num_Not_Resolved_Atoms>  (365) 
nan

$$$$
CHEMBL1213862
     RDKit          3D

  0  0  0  0  0  0  0  0  0  0999 V3000
M  V30 BEGIN CTAB
M  V30 COUNTS 23 25 0 0 0
M  V30 BEGIN ATOM
M  V30 1 O -0.146627 -3.777471 3.952071 0
M  V30 2 C 0.651593 -3.229980 3.121217 0
M  V30 3 N 1.426566 -2.092098 3.570503 0
M  V30 4 C 1.702753 -1.136260 2.560364 0
M  V30 5 O 2.355369 -0.068091 2.654855 0
M  V30 6 C 1.153056 -1.472155 1.266898 0
M  V30 7 C 0.602898 -0.874152 0.250079 0
M  V30 8 C 0.104449 -1.384642 -1.014852 0
M  V30 9 O 0.224303 -2.605776 -1.261464 0
M  V30 10 N -0.436545 -0.281208 -1.708465 0
M  V30 11 C -0.261943 0.860944 -0.865753 0
M  V30 12 C -0.697300 2.121108 -1.218679 0
M  V30 13 C -0.507020 3.148732 -0.325127 0
M  V30 14 C 0.115424 2.883635 0.901278 0
M  V30 15 C 0.509148 1.598278 1.150459 0
M  V30 16 C 0.357877 0.538594 0.319102 0
M  V30 17 S 1.299872 -3.288138 1.404960 0
M  V30 18 H 1.795394 -1.908200 4.562592 0
M  V30 19 H -0.858662 -0.395927 -2.652689 0
M  V30 20 H -1.176683 2.370730 -2.141427 0
M  V30 21 H -0.837415 4.144551 -0.576154 0
M  V30 22 H 0.218695 3.753511 1.535115 0
M  V30 23 H 0.919441 1.570857 2.124229 0
M  V30 END ATOM
M  V30 BEGIN BOND
M  V30 1 2 1 2
M  V30 2 1 2 3
M  V30 3 1 3 4
M  V30 4 2 4 5
M  V30 5 1 4 6
M  V30 6 2 6 7
M  V30 7 1 7 8
M  V30 8 2 8 9
M  V30 9 1 8 10
M  V30 10 1 10 11
M  V30 11 2 11 12
M  V30 12 1 12 13
M  V30 13 2 13 14
M  V30 14 1 14 15
M  V30 15 2 15 16
M  V30 16 1 6 17
M  V30 17 1 17 2
M  V30 18 1 16 7
M  V30 19 1 16 11
M  V30 20 1 3 18
M  V30 21 1 10 19
M  V30 22 1 12 20
M  V30 23 1 13 21
M  V30 24 1 14 22
M  V30 25 1 15 23
M  V30 END BOND
M  V30 END CTAB
M  END
>  <Dataset>  (366) 
ChEMBL_Kinases

>  <Ligand_Instance>  (366) 
nan

>  <PDB_ID>  (366) 
nan

>  <Standardized_SMILES>  (366) 
O=C1NC(=O)/C(=C2/C(=O)Nc3ccccc32)S1

>  <Name>  (366) 
nan

>  <Pocket>  (366) 
nan

>  <ATP_Site>  (366) 
nan

>  <Peripheral>  (366) 
nan

>  <Num_H_Atoms_ProtBoundConf>  (366) 
nan

>  <Num_Resolved_Atoms>  (366) 
nan

>  <Num_Not_Resolved_Atoms>  (366) 
nan

$$$$
CHEMBL1213924
     RDKit          3D

  0  0  0  0  0  0  0  0  0  0999 V3000
M  V30 BEGIN CTAB
M  V30 COUNTS 53 56 0 0 0
M  V30 BEGIN ATOM
M  V30 1 C 0.658286 -2.967168 5.541343 0
M  V30 2 C 1.287981 -2.363704 4.353913 0
M  V30 3 C 2.227809 -1.385299 4.590563 0
M  V30 4 C 2.856418 -0.772772 3.525417 0
M  V30 5 C 2.494548 -1.190138 2.260562 0
M  V30 6 N 3.046433 -0.632260 1.039507 0
M  V30 7 C 2.205570 0.426893 0.693577 0
M  V30 8 O 1.261280 0.532009 1.545933 0
M  V30 9 N 2.201151 1.358281 -0.369669 0
M  V30 10 C 1.321944 2.420662 -0.685526 0
M  V30 11 C 1.590235 3.183170 -1.796900 0
M  V30 12 C 0.775613 4.230235 -2.163682 0
M  V30 13 C -0.330283 4.542403 -1.427981 0
M  V30 14 Cl -1.390647 5.881324 -1.878685 0
M  V30 15 C -0.642086 3.818282 -0.317943 0
M  V30 16 C -1.843610 4.127612 0.509651 0
M  V30 17 F -1.779363 5.430151 1.019248 0
M  V30 18 F -1.898771 3.265003 1.613898 0
M  V30 19 F -3.023246 4.007854 -0.163822 0
M  V30 20 C 0.196311 2.777825 0.019137 0
M  V30 21 C 1.551359 -2.171885 2.053472 0
M  V30 22 C 0.926455 -2.780751 3.092692 0
M  V30 23 N -0.055867 -3.768875 2.833163 0
M  V30 24 C -0.406436 -4.242076 1.550958 0
M  V30 25 N -0.076569 -5.455073 1.078921 0
M  V30 26 C -0.438596 -5.823524 -0.163666 0
M  V30 27 C -1.157151 -4.902943 -0.919952 0
M  V30 28 C -1.495828 -3.651116 -0.430928 0
M  V30 29 C -2.230753 -2.687500 -1.232881 0
M  V30 30 C -2.705916 -2.835692 -2.514321 0
M  V30 31 C -3.382742 -1.834035 -3.173024 0
M  V30 32 C -3.621917 -0.618363 -2.576494 0
M  V30 33 N -3.159587 -0.457927 -1.314058 0
M  V30 34 C -2.497698 -1.438608 -0.670818 0
M  V30 35 N -1.092520 -3.364694 0.826256 0
M  V30 36 H -0.217011 -3.585387 5.259605 0
M  V30 37 H 1.377676 -3.645303 6.030360 0
M  V30 38 H 0.253545 -2.190224 6.242027 0
M  V30 39 H 2.497841 -1.071112 5.589765 0
M  V30 40 H 3.599546 -0.002243 3.603791 0
M  V30 41 H 3.846192 -0.750396 0.340953 0
M  V30 42 H 3.022588 1.164663 -0.996112 0
M  V30 43 H 2.472503 2.956648 -2.408297 0
M  V30 44 H 1.045290 4.784976 -3.045832 0
M  V30 45 H -0.079234 2.226400 0.901968 0
M  V30 46 H 1.273692 -2.496839 1.039413 0
M  V30 47 H -0.686393 -4.328182 3.432867 0
M  V30 48 H -0.162684 -6.801314 -0.517236 0
M  V30 49 H -1.443365 -5.208484 -1.915575 0
M  V30 50 H -2.501172 -3.815913 -2.965335 0
M  V30 51 H -3.740156 -1.989685 -4.178943 0
M  V30 52 H -4.144406 0.208673 -3.035280 0
M  V30 53 H -2.200191 -1.127563 0.341603 0
M  V30 END ATOM
M  V30 BEGIN BOND
M  V30 1 1 1 2
M  V30 2 2 2 3
M  V30 3 1 3 4
M  V30 4 2 4 5
M  V30 5 1 5 6
M  V30 6 1 6 7
M  V30 7 2 7 8
M  V30 8 1 7 9
M  V30 9 1 9 10
M  V30 10 2 10 11
M  V30 11 1 11 12
M  V30 12 2 12 13
M  V30 13 1 13 14
M  V30 14 1 13 15
M  V30 15 1 15 16
M  V30 16 1 16 17
M  V30 17 1 16 18
M  V30 18 1 16 19
M  V30 19 2 15 20
M  V30 20 1 5 21
M  V30 21 2 21 22
M  V30 22 1 22 23
M  V30 23 1 23 24
M  V30 24 2 24 25
M  V30 25 1 25 26
M  V30 26 2 26 27
M  V30 27 1 27 28
M  V30 28 1 28 29
M  V30 29 2 29 30
M  V30 30 1 30 31
M  V30 31 2 31 32
M  V30 32 1 32 33
M  V30 33 2 33 34
M  V30 34 2 28 35
M  V30 35 1 22 2
M  V30 36 1 35 24
M  V30 37 1 20 10
M  V30 38 1 34 29
M  V30 39 1 1 36
M  V30 40 1 1 37
M  V30 41 1 1 38
M  V30 42 1 3 39
M  V30 43 1 4 40
M  V30 44 1 6 41
M  V30 45 1 9 42
M  V30 46 1 11 43
M  V30 47 1 12 44
M  V30 48 1 20 45
M  V30 49 1 21 46
M  V30 50 1 23 47
M  V30 51 1 26 48
M  V30 52 1 27 49
M  V30 53 1 30 50
M  V30 54 1 31 51
M  V30 55 1 32 52
M  V30 56 1 34 53
M  V30 END BOND
M  V30 END CTAB
M  END
>  <Dataset>  (367) 
ChEMBL_Kinases

>  <Ligand_Instance>  (367) 
nan

>  <PDB_ID>  (367) 
nan

>  <Standardized_SMILES>  (367) 
Cc1ccc(NC(=O)Nc2ccc(Cl)c(C(F)(F)F)c2)cc1Nc1nccc(-c2cccnc2)n1

>  <Name>  (367) 
nan

>  <Pocket>  (367) 
nan

>  <ATP_Site>  (367) 
nan

>  <Peripheral>  (367) 
nan

>  <Num_H_Atoms_ProtBoundConf>  (367) 
nan

>  <Num_Resolved_Atoms>  (367) 
nan

>  <Num_Not_Resolved_Atoms>  (367) 
nan

$$$$
CHEMBL1213925
     RDKit          3D

  0  0  0  0  0  0  0  0  0  0999 V3000
M  V30 BEGIN CTAB
M  V30 COUNTS 57 60 0 0 0
M  V30 BEGIN ATOM
M  V30 1 O 3.152536 0.494549 0.381352 0
M  V30 2 C 2.649007 1.070726 1.386435 0
M  V30 3 N 3.461090 1.748904 2.329302 0
M  V30 4 C 4.874581 1.753357 2.089015 0
M  V30 5 C 5.844139 0.857370 2.486913 0
M  V30 6 C 7.149524 1.103176 2.119025 0
M  V30 7 C 7.510817 2.209905 1.370893 0
M  V30 8 Cl 9.194992 2.444776 0.947984 0
M  V30 9 C 6.537151 3.103450 0.975207 0
M  V30 10 C 6.988195 4.276377 0.175663 0
M  V30 11 F 7.898859 5.013585 0.916213 0
M  V30 12 F 5.911273 5.103896 -0.145626 0
M  V30 13 F 7.541493 3.843405 -0.991996 0
M  V30 14 C 5.214345 2.879527 1.332193 0
M  V30 15 N 1.259831 1.088579 1.652444 0
M  V30 16 C 0.145280 0.534583 0.964807 0
M  V30 17 C -0.183703 -0.746443 1.377522 0
M  V30 18 C -1.231552 -1.405597 0.806466 0
M  V30 19 C -2.000589 -0.848500 -0.186086 0
M  V30 20 O -3.094560 -1.459614 -0.825413 0
M  V30 21 C -3.413642 -2.785336 -0.378478 0
M  V30 22 C -4.577822 -3.367277 -1.107174 0
M  V30 23 N -4.953621 -4.686992 -0.714524 0
M  V30 24 C -5.503597 -4.832480 0.590250 0
M  V30 25 C -5.989034 -6.286199 0.685075 0
M  V30 26 O -4.930820 -7.163535 0.546975 0
M  V30 27 C -3.759989 -6.585327 0.107222 0
M  V30 28 C -4.057516 -5.723516 -1.112944 0
M  V30 29 C -1.670829 0.440846 -0.602451 0
M  V30 30 C -2.388484 1.090504 -1.598819 0
M  V30 31 C -2.029426 2.372899 -1.984287 0
M  V30 32 C -0.959170 3.015766 -1.384760 0
M  V30 33 C -0.221072 2.399729 -0.388521 0
M  V30 34 C -0.605148 1.127594 -0.030931 0
M  V30 35 H 3.128657 2.252903 3.193974 0
M  V30 36 H 5.440817 0.046433 3.057508 0
M  V30 37 H 7.873384 0.351606 2.467715 0
M  V30 38 H 4.561438 3.648481 0.961171 0
M  V30 39 H 0.848902 1.579499 2.500394 0
M  V30 40 H 0.354695 -1.282662 2.153008 0
M  V30 41 H -1.506942 -2.402836 1.110283 0
M  V30 42 H -3.707185 -2.629598 0.701182 0
M  V30 43 H -2.518024 -3.397118 -0.372022 0
M  V30 44 H -4.268859 -3.438516 -2.185693 0
M  V30 45 H -5.459234 -2.724842 -1.097719 0
M  V30 46 H -4.813867 -4.699084 1.422121 0
M  V30 47 H -6.415264 -4.221887 0.643875 0
M  V30 48 H -6.795469 -6.438535 -0.070953 0
M  V30 49 H -6.463075 -6.381111 1.688904 0
M  V30 50 H -3.195422 -6.031549 0.884533 0
M  V30 51 H -3.098038 -7.419136 -0.252286 0
M  V30 52 H -4.575233 -6.397249 -1.826904 0
M  V30 53 H -3.137119 -5.354441 -1.598159 0
M  V30 54 H -3.233506 0.597050 -2.079953 0
M  V30 55 H -2.636781 2.816958 -2.768921 0
M  V30 56 H -0.697113 4.026046 -1.706931 0
M  V30 57 H 0.612710 2.903149 0.077017 0
M  V30 END ATOM
M  V30 BEGIN BOND
M  V30 1 2 1 2
M  V30 2 1 2 3
M  V30 3 1 3 4
M  V30 4 2 4 5
M  V30 5 1 5 6
M  V30 6 2 6 7
M  V30 7 1 7 8
M  V30 8 1 7 9
M  V30 9 1 9 10
M  V30 10 1 10 11
M  V30 11 1 10 12
M  V30 12 1 10 13
M  V30 13 2 9 14
M  V30 14 1 2 15
M  V30 15 1 15 16
M  V30 16 2 16 17
M  V30 17 1 17 18
M  V30 18 2 18 19
M  V30 19 1 19 20
M  V30 20 1 20 21
M  V30 21 1 21 22
M  V30 22 1 22 23
M  V30 23 1 23 24
M  V30 24 1 24 25
M  V30 25 1 25 26
M  V30 26 1 26 27
M  V30 27 1 27 28
M  V30 28 1 19 29
M  V30 29 2 29 30
M  V30 30 1 30 31
M  V30 31 2 31 32
M  V30 32 1 32 33
M  V30 33 2 33 34
M  V30 34 1 14 4
M  V30 35 1 34 16
M  V30 36 1 28 23
M  V30 37 1 34 29
M  V30 38 1 3 35
M  V30 39 1 5 36
M  V30 40 1 6 37
M  V30 41 1 14 38
M  V30 42 1 15 39
M  V30 43 1 17 40
M  V30 44 1 18 41
M  V30 45 1 21 42
M  V30 46 1 21 43
M  V30 47 1 22 44
M  V30 48 1 22 45
M  V30 49 1 24 46
M  V30 50 1 24 47
M  V30 51 1 25 48
M  V30 52 1 25 49
M  V30 53 1 27 50
M  V30 54 1 27 51
M  V30 55 1 28 52
M  V30 56 1 28 53
M  V30 57 1 30 54
M  V30 58 1 31 55
M  V30 59 1 32 56
M  V30 60 1 33 57
M  V30 END BOND
M  V30 END CTAB
M  END
>  <Dataset>  (368) 
ChEMBL_Kinases

>  <Ligand_Instance>  (368) 
nan

>  <PDB_ID>  (368) 
nan

>  <Standardized_SMILES>  (368) 
O=C(Nc1ccc(Cl)c(C(F)(F)F)c1)Nc1ccc(OCCN2CCOCC2)c2ccccc12

>  <Name>  (368) 
nan

>  <Pocket>  (368) 
nan

>  <ATP_Site>  (368) 
nan

>  <Peripheral>  (368) 
nan

>  <Num_H_Atoms_ProtBoundConf>  (368) 
nan

>  <Num_Resolved_Atoms>  (368) 
nan

>  <Num_Not_Resolved_Atoms>  (368) 
nan

$$$$
CHEMBL1213973
     RDKit          3D

  0  0  0  0  0  0  0  0  0  0999 V3000
M  V30 BEGIN CTAB
M  V30 COUNTS 72 76 0 0 0
M  V30 BEGIN ATOM
M  V30 1 C 4.640673 -4.031470 4.843673 0
M  V30 2 C 4.145669 -3.382428 3.600098 0
M  V30 3 C 3.022210 -3.855385 2.969174 0
M  V30 4 C 2.519711 -3.294417 1.819080 0
M  V30 5 C 3.157777 -2.214233 1.265693 0
M  V30 6 N 2.914719 -1.412261 0.110373 0
M  V30 7 N 3.360281 -1.938479 -1.031419 0
M  V30 8 C 3.091206 -1.100526 -2.051259 0
M  V30 9 C 3.330226 -1.124489 -3.516962 0
M  V30 10 C 2.125011 -1.779934 -4.200117 0
M  V30 11 C 4.505514 -2.055037 -3.766900 0
M  V30 12 C 3.593371 0.226359 -4.093391 0
M  V30 13 C 2.455066 -0.017518 -1.514041 0
M  V30 14 C 2.337994 -0.205501 -0.143913 0
M  V30 15 N 1.840643 0.441774 1.021502 0
M  V30 16 C 0.485502 0.284529 1.405635 0
M  V30 17 O -0.228877 -0.427728 0.660905 0
M  V30 18 N -0.109529 0.863890 2.548581 0
M  V30 19 C -1.434760 0.796461 3.022670 0
M  V30 20 C -1.718506 1.394795 4.220971 0
M  V30 21 C -2.984835 1.392443 4.757392 0
M  V30 22 C -4.041765 0.786261 4.115866 0
M  V30 23 C -5.431599 0.757533 4.660256 0
M  V30 24 C -3.774171 0.179488 2.908324 0
M  V30 25 N -4.826193 -0.454006 2.181456 0
M  V30 26 C -4.580829 -1.079889 0.926189 0
M  V30 27 N -4.344693 -2.375507 0.648984 0
M  V30 28 C -4.121585 -2.790244 -0.619856 0
M  V30 29 C -4.131266 -1.886111 -1.661746 0
M  V30 30 C -4.371472 -0.554228 -1.392632 0
M  V30 31 C -4.404170 0.526270 -2.399031 0
M  V30 32 C -4.643965 1.786380 -1.977015 0
M  V30 33 C -4.695974 2.863497 -2.843852 0
M  V30 34 C -4.483144 2.543714 -4.170075 0
M  V30 35 N -4.243857 1.300057 -4.607474 0
M  V30 36 C -4.203115 0.296545 -3.738675 0
M  V30 37 N -4.585921 -0.213564 -0.106354 0
M  V30 38 C -2.490683 0.207025 2.411363 0
M  V30 39 C 4.306495 -1.716465 1.894940 0
M  V30 40 C 4.797709 -2.304365 3.063582 0
M  V30 41 H 4.072957 -4.945017 5.044223 0
M  V30 42 H 4.540606 -3.289679 5.668889 0
M  V30 43 H 5.744335 -4.222609 4.704557 0
M  V30 44 H 2.450251 -4.709287 3.336359 0
M  V30 45 H 1.663570 -3.561536 1.230924 0
M  V30 46 H 1.739739 -2.568777 -3.507331 0
M  V30 47 H 2.375971 -2.200965 -5.188337 0
M  V30 48 H 1.367941 -0.982676 -4.394828 0
M  V30 49 H 4.408711 -2.879462 -3.003323 0
M  V30 50 H 4.359315 -2.496279 -4.781290 0
M  V30 51 H 5.483787 -1.558188 -3.708415 0
M  V30 52 H 2.722526 0.525899 -4.741806 0
M  V30 53 H 3.734866 1.036669 -3.361711 0
M  V30 54 H 4.451553 0.162595 -4.792484 0
M  V30 55 H 2.033655 0.915923 -1.866307 0
M  V30 56 H 2.464253 1.045606 1.638096 0
M  V30 57 H 0.613571 1.425014 3.085815 0
M  V30 58 H -0.929132 1.895055 4.785418 0
M  V30 59 H -3.144332 1.881979 5.706458 0
M  V30 60 H -5.745061 -0.296623 4.861537 0
M  V30 61 H -6.164971 1.239869 3.978477 0
M  V30 62 H -5.498096 1.290779 5.614253 0
M  V30 63 H -5.793029 -0.460992 2.572005 0
M  V30 64 H -3.937034 -3.839377 -0.796510 0
M  V30 65 H -3.959354 -2.163889 -2.691686 0
M  V30 66 H -4.808303 2.020287 -0.932813 0
M  V30 67 H -4.887678 3.854036 -2.483648 0
M  V30 68 H -4.514154 3.354703 -4.888929 0
M  V30 69 H -4.009719 -0.699489 -4.101284 0
M  V30 70 H -2.352124 -0.284749 1.464762 0
M  V30 71 H 4.942806 -0.869955 1.601420 0
M  V30 72 H 5.675972 -1.970232 3.596146 0
M  V30 END ATOM
M  V30 BEGIN BOND
M  V30 1 1 1 2
M  V30 2 2 2 3
M  V30 3 1 3 4
M  V30 4 2 4 5
M  V30 5 1 5 6
M  V30 6 1 6 7
M  V30 7 2 7 8
M  V30 8 1 8 9
M  V30 9 1 9 10
M  V30 10 1 9 11
M  V30 11 1 9 12
M  V30 12 1 8 13
M  V30 13 2 13 14
M  V30 14 1 14 15
M  V30 15 1 15 16
M  V30 16 2 16 17
M  V30 17 1 16 18
M  V30 18 1 18 19
M  V30 19 2 19 20
M  V30 20 1 20 21
M  V30 21 2 21 22
M  V30 22 1 22 23
M  V30 23 1 22 24
M  V30 24 1 24 25
M  V30 25 1 25 26
M  V30 26 2 26 27
M  V30 27 1 27 28
M  V30 28 2 28 29
M  V30 29 1 29 30
M  V30 30 1 30 31
M  V30 31 2 31 32
M  V30 32 1 32 33
M  V30 33 2 33 34
M  V30 34 1 34 35
M  V30 35 2 35 36
M  V30 36 2 30 37
M  V30 37 2 24 38
M  V30 38 1 5 39
M  V30 39 2 39 40
M  V30 40 1 40 2
M  V30 41 1 14 6
M  V30 42 1 38 19
M  V30 43 1 37 26
M  V30 44 1 36 31
M  V30 45 1 1 41
M  V30 46 1 1 42
M  V30 47 1 1 43
M  V30 48 1 3 44
M  V30 49 1 4 45
M  V30 50 1 10 46
M  V30 51 1 10 47
M  V30 52 1 10 48
M  V30 53 1 11 49
M  V30 54 1 11 50
M  V30 55 1 11 51
M  V30 56 1 12 52
M  V30 57 1 12 53
M  V30 58 1 12 54
M  V30 59 1 13 55
M  V30 60 1 15 56
M  V30 61 1 18 57
M  V30 62 1 20 58
M  V30 63 1 21 59
M  V30 64 1 23 60
M  V30 65 1 23 61
M  V30 66 1 23 62
M  V30 67 1 25 63
M  V30 68 1 28 64
M  V30 69 1 29 65
M  V30 70 1 32 66
M  V30 71 1 33 67
M  V30 72 1 34 68
M  V30 73 1 36 69
M  V30 74 1 38 70
M  V30 75 1 39 71
M  V30 76 1 40 72
M  V30 END BOND
M  V30 END CTAB
M  END
>  <Dataset>  (369) 
ChEMBL_Kinases

>  <Ligand_Instance>  (369) 
nan

>  <PDB_ID>  (369) 
nan

>  <Standardized_SMILES>  (369) 
Cc1ccc(-n2nc(C(C)(C)C)cc2NC(=O)Nc2ccc(C)c(Nc3nccc(-c4cccnc4)n3)c2)cc1

>  <Name>  (369) 
nan

>  <Pocket>  (369) 
nan

>  <ATP_Site>  (369) 
nan

>  <Peripheral>  (369) 
nan

>  <Num_H_Atoms_ProtBoundConf>  (369) 
nan

>  <Num_Resolved_Atoms>  (369) 
nan

>  <Num_Not_Resolved_Atoms>  (369) 
nan

$$$$
CHEMBL1213974
     RDKit          3D

  0  0  0  0  0  0  0  0  0  0999 V3000
M  V30 BEGIN CTAB
M  V30 COUNTS 67 70 0 0 0
M  V30 BEGIN ATOM
M  V30 1 C 5.517611 -3.385327 6.497780 0
M  V30 2 N 5.961567 -3.025143 5.143328 0
M  V30 3 C 5.498333 -1.788610 4.670235 0
M  V30 4 O 4.751972 -1.140149 5.480188 0
M  V30 5 C 5.827409 -1.247880 3.346016 0
M  V30 6 C 5.308497 -0.019324 2.999299 0
M  V30 7 C 5.562768 0.570392 1.774981 0
M  V30 8 O 4.970125 1.825451 1.552218 0
M  V30 9 C 3.707435 1.950587 0.982290 0
M  V30 10 C 3.613073 2.051755 -0.401216 0
M  V30 11 C 2.375119 2.177581 -1.005872 0
M  V30 12 C 1.241250 2.201029 -0.219037 0
M  V30 13 N -0.114773 2.322485 -0.642186 0
M  V30 14 C -0.765367 1.077963 -0.906308 0
M  V30 15 O -0.289300 -0.071316 -0.809647 0
M  V30 16 N -2.123664 1.033989 -1.337940 0
M  V30 17 C -2.891783 -0.090236 -1.633582 0
M  V30 18 C -2.923588 -0.608540 -2.917900 0
M  V30 19 C -3.754818 -1.706754 -2.918631 0
M  V30 20 C -4.077526 -2.559702 -4.069235 0
M  V30 21 C -3.058862 -3.703137 -4.142956 0
M  V30 22 C -5.414284 -3.233713 -3.768625 0
M  V30 23 C -4.079541 -1.859564 -5.392541 0
M  V30 24 N -4.203391 -1.832543 -1.660144 0
M  V30 25 N -3.695026 -0.877957 -0.896760 0
M  V30 26 C -3.848720 -0.567394 0.488081 0
M  V30 27 C -2.846567 -1.160063 1.265957 0
M  V30 28 C -2.808560 -0.984108 2.654230 0
M  V30 29 C -3.793780 -0.205830 3.229060 0
M  V30 30 C -3.733158 -0.033101 4.704488 0
M  V30 31 C -4.774908 0.373662 2.462424 0
M  V30 32 C -4.812331 0.202533 1.110001 0
M  V30 33 C 1.345485 2.100361 1.147332 0
M  V30 34 C 2.584421 1.972184 1.785337 0
M  V30 35 C 6.372844 -0.117457 0.877178 0
M  V30 36 C 6.879618 -1.344963 1.248178 0
M  V30 37 N 6.602346 -1.876468 2.452735 0
M  V30 38 H 6.076637 -2.819764 7.273123 0
M  V30 39 H 5.647940 -4.467094 6.658363 0
M  V30 40 H 4.429194 -3.152721 6.524731 0
M  V30 41 H 6.580743 -3.606256 4.521881 0
M  V30 42 H 4.670887 0.500605 3.731088 0
M  V30 43 H 4.475381 2.037652 -1.054104 0
M  V30 44 H 2.181341 2.263595 -2.069047 0
M  V30 45 H -0.718074 3.175840 -0.792960 0
M  V30 46 H -2.646782 1.945152 -1.460647 0
M  V30 47 H -2.408059 -0.264665 -3.826783 0
M  V30 48 H -2.037555 -3.234948 -4.195469 0
M  V30 49 H -3.058421 -4.296669 -3.195238 0
M  V30 50 H -3.179822 -4.322855 -5.031071 0
M  V30 51 H -5.204645 -3.862311 -2.854405 0
M  V30 52 H -5.724370 -3.918931 -4.558582 0
M  V30 53 H -6.186378 -2.508472 -3.434654 0
M  V30 54 H -4.671269 -2.482181 -6.109125 0
M  V30 55 H -4.403051 -0.821513 -5.319959 0
M  V30 56 H -3.022049 -1.845484 -5.764401 0
M  V30 57 H -2.039945 -1.785785 0.873904 0
M  V30 58 H -2.027506 -1.447292 3.251761 0
M  V30 59 H -2.706259 0.347237 4.948392 0
M  V30 60 H -3.777540 -1.037607 5.210084 0
M  V30 61 H -4.542044 0.562024 5.125106 0
M  V30 62 H -5.547145 0.983415 2.911062 0
M  V30 63 H -5.535076 0.610840 0.418065 0
M  V30 64 H 0.511482 2.108421 1.860245 0
M  V30 65 H 2.715610 1.890346 2.849836 0
M  V30 66 H 6.541546 0.388510 -0.069316 0
M  V30 67 H 7.506063 -1.859999 0.534137 0
M  V30 END ATOM
M  V30 BEGIN BOND
M  V30 1 1 1 2
M  V30 2 1 2 3
M  V30 3 2 3 4
M  V30 4 1 3 5
M  V30 5 2 5 6
M  V30 6 1 6 7
M  V30 7 1 7 8
M  V30 8 1 8 9
M  V30 9 2 9 10
M  V30 10 1 10 11
M  V30 11 2 11 12
M  V30 12 1 12 13
M  V30 13 1 13 14
M  V30 14 2 14 15
M  V30 15 1 14 16
M  V30 16 1 16 17
M  V30 17 2 17 18
M  V30 18 1 18 19
M  V30 19 1 19 20
M  V30 20 1 20 21
M  V30 21 1 20 22
M  V30 22 1 20 23
M  V30 23 2 19 24
M  V30 24 1 24 25
M  V30 25 1 25 26
M  V30 26 2 26 27
M  V30 27 1 27 28
M  V30 28 2 28 29
M  V30 29 1 29 30
M  V30 30 1 29 31
M  V30 31 2 31 32
M  V30 32 1 12 33
M  V30 33 2 33 34
M  V30 34 2 7 35
M  V30 35 1 35 36
M  V30 36 2 36 37
M  V30 37 1 37 5
M  V30 38 1 34 9
M  V30 39 1 25 17
M  V30 40 1 32 26
M  V30 41 1 1 38
M  V30 42 1 1 39
M  V30 43 1 1 40
M  V30 44 1 2 41
M  V30 45 1 6 42
M  V30 46 1 10 43
M  V30 47 1 11 44
M  V30 48 1 13 45
M  V30 49 1 16 46
M  V30 50 1 18 47
M  V30 51 1 21 48
M  V30 52 1 21 49
M  V30 53 1 21 50
M  V30 54 1 22 51
M  V30 55 1 22 52
M  V30 56 1 22 53
M  V30 57 1 23 54
M  V30 58 1 23 55
M  V30 59 1 23 56
M  V30 60 1 27 57
M  V30 61 1 28 58
M  V30 62 1 30 59
M  V30 63 1 30 60
M  V30 64 1 30 61
M  V30 65 1 31 62
M  V30 66 1 32 63
M  V30 67 1 33 64
M  V30 68 1 34 65
M  V30 69 1 35 66
M  V30 70 1 36 67
M  V30 END BOND
M  V30 END CTAB
M  END
>  <Dataset>  (370) 
ChEMBL_Kinases

>  <Ligand_Instance>  (370) 
nan

>  <PDB_ID>  (370) 
nan

>  <Standardized_SMILES>  (370) 
CNC(=O)c1cc(Oc2ccc(NC(=O)Nc3cc(C(C)(C)C)nn3-c3ccc(C)cc3)cc2)ccn1

>  <Name>  (370) 
nan

>  <Pocket>  (370) 
nan

>  <ATP_Site>  (370) 
nan

>  <Peripheral>  (370) 
nan

>  <Num_H_Atoms_ProtBoundConf>  (370) 
nan

>  <Num_Resolved_Atoms>  (370) 
nan

>  <Num_Not_Resolved_Atoms>  (370) 
nan

$$$$
CHEMBL1213041
     RDKit          3D

  0  0  0  0  0  0  0  0  0  0999 V3000
M  V30 BEGIN CTAB
M  V30 COUNTS 23 24 0 0 0
M  V30 BEGIN ATOM
M  V30 1 C -1.358322 -4.631763 1.998053 0
M  V30 2 C -1.154632 -3.233071 1.498345 0
M  V30 3 O -2.161990 -2.514026 1.269386 0
M  V30 4 N 0.202206 -2.816316 1.316898 0
M  V30 5 C 0.451256 -1.448653 0.827050 0
M  V30 6 N 0.592127 -0.495470 1.425104 0
M  V30 7 C 0.816059 0.749512 1.058483 0
M  V30 8 C 0.985143 1.903942 1.826637 0
M  V30 9 C 1.207528 3.086833 1.201842 0
M  V30 10 C 1.290627 3.297569 -0.158957 0
M  V30 11 N 1.523376 4.536506 -0.807447 0 CHG=1 VAL=4
M  V30 12 O 1.674537 5.567713 -0.126109 0
M  V30 13 O 1.566683 4.509796 -2.180427 0 CHG=-1 VAL=1
M  V30 14 C 1.124204 2.159641 -0.923194 0
M  V30 15 C 0.894273 0.929109 -0.313758 0
M  V30 16 S 0.638181 -0.708919 -0.938811 0
M  V30 17 H -2.428452 -4.877973 2.071703 0
M  V30 18 H -0.866272 -5.372982 1.304980 0
M  V30 19 H -0.907223 -4.726153 2.994832 0
M  V30 20 H 0.981390 -3.467544 1.527571 0
M  V30 21 H 0.948843 1.914427 2.921268 0
M  V30 22 H 1.341181 3.998778 1.806403 0
M  V30 23 H 1.153926 2.115885 -1.990738 0
M  V30 END ATOM
M  V30 BEGIN BOND
M  V30 1 1 1 2
M  V30 2 2 2 3
M  V30 3 1 2 4
M  V30 4 1 4 5
M  V30 5 2 5 6
M  V30 6 1 6 7
M  V30 7 2 7 8
M  V30 8 1 8 9
M  V30 9 2 9 10
M  V30 10 1 10 11
M  V30 11 2 11 12
M  V30 12 1 11 13
M  V30 13 1 10 14
M  V30 14 2 14 15
M  V30 15 1 15 16
M  V30 16 1 16 5
M  V30 17 1 15 7
M  V30 18 1 1 17
M  V30 19 1 1 18
M  V30 20 1 1 19
M  V30 21 1 4 20
M  V30 22 1 8 21
M  V30 23 1 9 22
M  V30 24 1 14 23
M  V30 END BOND
M  V30 END CTAB
M  END
>  <Dataset>  (371) 
ChEMBL_Kinases

>  <Ligand_Instance>  (371) 
nan

>  <PDB_ID>  (371) 
nan

>  <Standardized_SMILES>  (371) 
CC(=O)Nc1nc2ccc([N+](=O)[O-])cc2s1

>  <Name>  (371) 
nan

>  <Pocket>  (371) 
nan

>  <ATP_Site>  (371) 
nan

>  <Peripheral>  (371) 
nan

>  <Num_H_Atoms_ProtBoundConf>  (371) 
nan

>  <Num_Resolved_Atoms>  (371) 
nan

>  <Num_Not_Resolved_Atoms>  (371) 
nan

$$$$
CHEMBL117109
     RDKit          3D

  0  0  0  0  0  0  0  0  0  0999 V3000
M  V30 BEGIN CTAB
M  V30 COUNTS 44 48 0 0 0
M  V30 BEGIN ATOM
M  V30 1 O -0.206346 -4.524300 0.676887 0
M  V30 2 C -0.239074 -3.291372 0.967135 0
M  V30 3 C -0.402341 -2.943807 2.293612 0
M  V30 4 C -0.459188 -1.651682 2.780106 0
M  V30 5 C -0.331294 -0.703575 1.765773 0
M  V30 6 C -0.368838 0.714952 2.115968 0
M  V30 7 C 0.740903 1.520483 1.831139 0
M  V30 8 C 2.014111 1.124524 1.189879 0
M  V30 9 C 2.308309 1.784890 0.014587 0
M  V30 10 C 3.462630 1.510132 -0.685234 0
M  V30 11 C 4.332140 0.567077 -0.207702 0
M  V30 12 F 5.497428 0.223978 -0.824885 0
M  V30 13 C 4.046357 -0.107403 0.978962 0
M  V30 14 C 2.884912 0.166171 1.687068 0
M  V30 15 N 0.408812 2.757974 2.266177 0
M  V30 16 C -0.838775 2.736134 2.795399 0
M  V30 17 C -1.621347 3.732232 3.366245 0
M  V30 18 C -2.876421 3.380442 3.820652 0
M  V30 19 C -3.354069 2.087397 3.719414 0
M  V30 20 C -2.532252 1.116313 3.137660 0
M  V30 21 N -1.310350 1.479950 2.700232 0
M  V30 22 N -0.171212 -1.020750 0.465133 0
M  V30 23 N -0.123842 -2.280296 0.056710 0
M  V30 24 C 0.042176 -2.709908 -1.285472 0
M  V30 25 C 1.277288 -3.320369 -1.516353 0
M  V30 26 Cl 2.495060 -3.531190 -0.269378 0
M  V30 27 C 1.639106 -3.808836 -2.752386 0
M  V30 28 C 0.757632 -3.699725 -3.819991 0
M  V30 29 C -0.446285 -3.099034 -3.573643 0
M  V30 30 C -0.824556 -2.609700 -2.361834 0
M  V30 31 Cl -2.342526 -1.831341 -1.973490 0
M  V30 32 H -0.495573 -3.755407 3.031017 0
M  V30 33 H -0.586194 -1.412749 3.811758 0
M  V30 34 H 1.650072 2.542829 -0.406858 0
M  V30 35 H 3.706615 2.016976 -1.603958 0
M  V30 36 H 4.695428 -0.861795 1.404027 0
M  V30 37 H 2.599597 -0.309017 2.600971 0
M  V30 38 H -1.275200 4.765582 3.462359 0
M  V30 39 H -3.560386 4.080752 4.279407 0
M  V30 40 H -4.314731 1.744875 4.050029 0
M  V30 41 H -2.889954 0.093171 3.048932 0
M  V30 42 H 2.588992 -4.285832 -2.957920 0
M  V30 43 H 0.984528 -4.067361 -4.826940 0
M  V30 44 H -1.163458 -2.992202 -4.373609 0
M  V30 END ATOM
M  V30 BEGIN BOND
M  V30 1 2 1 2
M  V30 2 1 2 3
M  V30 3 2 3 4
M  V30 4 1 4 5
M  V30 5 1 5 6
M  V30 6 2 6 7
M  V30 7 1 7 8
M  V30 8 2 8 9
M  V30 9 1 9 10
M  V30 10 2 10 11
M  V30 11 1 11 12
M  V30 12 1 11 13
M  V30 13 2 13 14
M  V30 14 1 7 15
M  V30 15 2 15 16
M  V30 16 1 16 17
M  V30 17 2 17 18
M  V30 18 1 18 19
M  V30 19 2 19 20
M  V30 20 1 20 21
M  V30 21 2 5 22
M  V30 22 1 22 23
M  V30 23 1 23 24
M  V30 24 2 24 25
M  V30 25 1 25 26
M  V30 26 1 25 27
M  V30 27 2 27 28
M  V30 28 1 28 29
M  V30 29 2 29 30
M  V30 30 1 30 31
M  V30 31 1 23 2
M  V30 32 1 30 24
M  V30 33 1 21 6
M  V30 34 1 14 8
M  V30 35 1 21 16
M  V30 36 1 3 32
M  V30 37 1 4 33
M  V30 38 1 9 34
M  V30 39 1 10 35
M  V30 40 1 13 36
M  V30 41 1 14 37
M  V30 42 1 17 38
M  V30 43 1 18 39
M  V30 44 1 19 40
M  V30 45 1 20 41
M  V30 46 1 27 42
M  V30 47 1 28 43
M  V30 48 1 29 44
M  V30 END BOND
M  V30 END CTAB
M  END
>  <Dataset>  (372) 
ChEMBL_Kinases

>  <Ligand_Instance>  (372) 
nan

>  <PDB_ID>  (372) 
nan

>  <Standardized_SMILES>  (372) 
O=c1ccc(-c2c(-c3ccc(F)cc3)nc3ccccn23)nn1-c1c(Cl)cccc1Cl

>  <Name>  (372) 
nan

>  <Pocket>  (372) 
nan

>  <ATP_Site>  (372) 
nan

>  <Peripheral>  (372) 
nan

>  <Num_H_Atoms_ProtBoundConf>  (372) 
nan

>  <Num_Resolved_Atoms>  (372) 
nan

>  <Num_Not_Resolved_Atoms>  (372) 
nan

$$$$
CHEMBL1170930
     RDKit          3D

  0  0  0  0  0  0  0  0  0  0999 V3000
M  V30 BEGIN CTAB
M  V30 COUNTS 29 30 0 0 0
M  V30 BEGIN ATOM
M  V30 1 O 0.130914 -0.556812 4.165617 0
M  V30 2 S 0.016102 -1.684625 3.178649 0
M  V30 3 O 0.222630 -3.004430 3.906103 0
M  V30 4 N 1.233557 -1.597791 1.971924 0
M  V30 5 C 1.539662 -0.661351 0.952794 0
M  V30 6 C 2.840624 -0.179586 0.774572 0
M  V30 7 C 3.212749 0.739101 -0.180401 0
M  V30 8 C 2.252788 1.216589 -1.013362 0
M  V30 9 C 2.638974 2.206260 -2.046167 0
M  V30 10 F 1.761886 2.105918 -3.128944 0
M  V30 11 F 3.950655 2.014176 -2.473967 0
M  V30 12 F 2.477407 3.483285 -1.518146 0
M  V30 13 C 0.960384 0.795372 -0.903088 0
M  V30 14 C 0.647557 -0.114836 0.059299 0
M  V30 15 C -1.582928 -1.753963 2.461831 0
M  V30 16 C -2.232416 -0.601144 2.273648 0
M  V30 17 Cl -1.600035 0.966173 2.692063 0
M  V30 18 S -3.804676 -1.118867 1.521994 0
M  V30 19 C -3.129936 -2.706738 0.870115 0
M  V30 20 Cl -4.400811 -3.879009 0.621113 0
M  V30 21 C -2.257894 -3.021001 2.066905 0
M  V30 22 H 1.966135 -2.368503 1.883226 0
M  V30 23 H 3.622898 -0.561119 1.444459 0
M  V30 24 H 4.258118 1.043114 -0.227282 0
M  V30 25 H 0.241786 1.205805 -1.588050 0
M  V30 26 H -0.372209 -0.420770 0.108190 0
M  V30 27 H -2.478561 -2.509897 0.001393 0
M  V30 28 H -1.495222 -3.783416 1.841245 0
M  V30 29 H -2.897242 -3.304333 2.932962 0
M  V30 END ATOM
M  V30 BEGIN BOND
M  V30 1 2 1 2
M  V30 2 2 2 3
M  V30 3 1 2 4
M  V30 4 1 4 5
M  V30 5 2 5 6
M  V30 6 1 6 7
M  V30 7 2 7 8
M  V30 8 1 8 9
M  V30 9 1 9 10
M  V30 10 1 9 11
M  V30 11 1 9 12
M  V30 12 1 8 13
M  V30 13 2 13 14
M  V30 14 1 2 15
M  V30 15 2 15 16
M  V30 16 1 16 17
M  V30 17 1 16 18
M  V30 18 1 18 19
M  V30 19 1 19 20
M  V30 20 1 19 21
M  V30 21 1 14 5
M  V30 22 1 21 15
M  V30 23 1 4 22
M  V30 24 1 6 23
M  V30 25 1 7 24
M  V30 26 1 13 25
M  V30 27 1 14 26
M  V30 28 1 19 27
M  V30 29 1 21 28
M  V30 30 1 21 29
M  V30 END BOND
M  V30 END CTAB
M  END
>  <Dataset>  (373) 
ChEMBL_Kinases

>  <Ligand_Instance>  (373) 
nan

>  <PDB_ID>  (373) 
nan

>  <Standardized_SMILES>  (373) 
O=S(=O)(Nc1ccc(C(F)(F)F)cc1)C1=C(Cl)SC(Cl)C1

>  <Name>  (373) 
nan

>  <Pocket>  (373) 
nan

>  <ATP_Site>  (373) 
nan

>  <Peripheral>  (373) 
nan

>  <Num_H_Atoms_ProtBoundConf>  (373) 
nan

>  <Num_Resolved_Atoms>  (373) 
nan

>  <Num_Not_Resolved_Atoms>  (373) 
nan

$$$$
CHEMBL1170927
     RDKit          3D

  0  0  0  0  0  0  0  0  0  0999 V3000
M  V30 BEGIN CTAB
M  V30 COUNTS 16 16 0 0 0
M  V30 BEGIN ATOM
M  V30 1 N 0.858786 -0.009274 4.148620 0
M  V30 2 S 2.029698 -0.592443 3.003191 0
M  V30 3 O 1.859665 -2.094802 2.989725 0
M  V30 4 O 3.412645 -0.252549 3.428484 0
M  V30 5 C 1.683889 0.040575 1.429996 0
M  V30 6 C 1.390882 -0.486336 0.231438 0
M  V30 7 C 1.162340 0.310280 -0.856656 0
M  V30 8 N 0.851641 -0.212092 -2.139964 0 CHG=1 VAL=4
M  V30 9 O 1.255150 -1.343428 -2.472897 0
M  V30 10 O 0.104270 0.536145 -3.015730 0 CHG=-1 VAL=1
M  V30 11 C 1.256650 1.706799 -0.626802 0
M  V30 12 Cl 0.997718 2.949095 -1.905397 0
M  V30 13 S 1.686225 1.819022 1.214541 0
M  V30 14 H 0.888369 1.030022 4.185791 0
M  V30 15 H -0.088789 -0.299645 3.828465 0
M  V30 16 H 1.358771 -1.565588 0.228744 0
M  V30 END ATOM
M  V30 BEGIN BOND
M  V30 1 1 1 2
M  V30 2 2 2 3
M  V30 3 2 2 4
M  V30 4 1 2 5
M  V30 5 2 5 6
M  V30 6 1 6 7
M  V30 7 1 7 8
M  V30 8 2 8 9
M  V30 9 1 8 10
M  V30 10 2 7 11
M  V30 11 1 11 12
M  V30 12 1 11 13
M  V30 13 1 13 5
M  V30 14 1 1 14
M  V30 15 1 1 15
M  V30 16 1 6 16
M  V30 END BOND
M  V30 END CTAB
M  END
>  <Dataset>  (374) 
ChEMBL_Kinases

>  <Ligand_Instance>  (374) 
nan

>  <PDB_ID>  (374) 
nan

>  <Standardized_SMILES>  (374) 
NS(=O)(=O)c1cc([N+](=O)[O-])c(Cl)s1

>  <Name>  (374) 
nan

>  <Pocket>  (374) 
nan

>  <ATP_Site>  (374) 
nan

>  <Peripheral>  (374) 
nan

>  <Num_H_Atoms_ProtBoundConf>  (374) 
nan

>  <Num_Resolved_Atoms>  (374) 
nan

>  <Num_Not_Resolved_Atoms>  (374) 
nan

$$$$
CHEMBL1170798
     RDKit          3D

  0  0  0  0  0  0  0  0  0  0999 V3000
M  V30 BEGIN CTAB
M  V30 COUNTS 40 42 0 0 0
M  V30 BEGIN ATOM
M  V30 1 O 3.580156 0.076238 2.743665 0
M  V30 2 C 2.468552 0.072747 2.131658 0
M  V30 3 N 2.180946 -0.681372 0.953082 0
M  V30 4 C 3.299427 -1.499936 0.472539 0
M  V30 5 C 2.816590 -2.173882 -0.765055 0
M  V30 6 C 2.408717 -3.494829 -0.869259 0
M  V30 7 C 1.973769 -3.993460 -2.101286 0
M  V30 8 C 1.957735 -3.160830 -3.200276 0
M  V30 9 C 2.355605 -1.843554 -3.138138 0
M  V30 10 C 2.785898 -1.364193 -1.898504 0
M  V30 11 O 3.168629 -0.009720 -1.947255 0
M  V30 12 C 1.413971 0.915478 2.698582 0
M  V30 13 C 0.115005 0.991841 2.240823 0
M  V30 14 C -0.651485 1.875678 2.971076 0
M  V30 15 C -2.078370 2.161842 2.736441 0
M  V30 16 O -2.459100 3.282345 3.216270 0
M  V30 17 C -2.847017 1.144928 2.002240 0
M  V30 18 C -3.719707 1.422703 0.956173 0
M  V30 19 C -4.363959 0.349271 0.370094 0
M  V30 20 C -4.180276 -0.972393 0.774348 0
M  V30 21 F -4.858945 -1.985325 0.137525 0
M  V30 22 C -3.310826 -1.228707 1.813591 0
M  V30 23 C -2.663400 -0.158285 2.404000 0
M  V30 24 F -1.826379 -0.472847 3.424047 0
M  V30 25 C 0.241897 2.360335 3.927080 0
M  V30 26 N 1.451978 1.770911 3.735130 0
M  V30 27 H 1.244555 -0.638794 0.487206 0
M  V30 28 H 4.183443 -0.904422 0.217075 0
M  V30 29 H 3.496189 -2.319911 1.200206 0
M  V30 30 H 2.451083 -4.076355 0.030512 0
M  V30 31 H 1.658039 -5.026778 -2.163440 0
M  V30 32 H 1.621512 -3.538925 -4.167557 0
M  V30 33 H 2.322772 -1.232430 -4.035242 0
M  V30 34 H 4.053251 0.211099 -2.409785 0
M  V30 35 H -0.277759 0.430008 1.403033 0
M  V30 36 H -3.842443 2.449205 0.663785 0
M  V30 37 H -5.033761 0.602245 -0.438895 0
M  V30 38 H -3.143473 -2.241141 2.150762 0
M  V30 39 H -0.073504 3.088070 4.660411 0
M  V30 40 H 2.284165 1.964699 4.319166 0
M  V30 END ATOM
M  V30 BEGIN BOND
M  V30 1 2 1 2
M  V30 2 1 2 3
M  V30 3 1 3 4
M  V30 4 1 4 5
M  V30 5 2 5 6
M  V30 6 1 6 7
M  V30 7 2 7 8
M  V30 8 1 8 9
M  V30 9 2 9 10
M  V30 10 1 10 11
M  V30 11 1 2 12
M  V30 12 2 12 13
M  V30 13 1 13 14
M  V30 14 1 14 15
M  V30 15 2 15 16
M  V30 16 1 15 17
M  V30 17 2 17 18
M  V30 18 1 18 19
M  V30 19 2 19 20
M  V30 20 1 20 21
M  V30 21 1 20 22
M  V30 22 2 22 23
M  V30 23 1 23 24
M  V30 24 2 14 25
M  V30 25 1 25 26
M  V30 26 1 10 5
M  V30 27 1 26 12
M  V30 28 1 23 17
M  V30 29 1 3 27
M  V30 30 1 4 28
M  V30 31 1 4 29
M  V30 32 1 6 30
M  V30 33 1 7 31
M  V30 34 1 8 32
M  V30 35 1 9 33
M  V30 36 1 11 34
M  V30 37 1 13 35
M  V30 38 1 18 36
M  V30 39 1 19 37
M  V30 40 1 22 38
M  V30 41 1 25 39
M  V30 42 1 26 40
M  V30 END BOND
M  V30 END CTAB
M  END
>  <Dataset>  (375) 
ChEMBL_Kinases

>  <Ligand_Instance>  (375) 
nan

>  <PDB_ID>  (375) 
nan

>  <Standardized_SMILES>  (375) 
O=C(NCc1ccccc1O)c1cc(C(=O)c2ccc(F)cc2F)c[nH]1

>  <Name>  (375) 
nan

>  <Pocket>  (375) 
nan

>  <ATP_Site>  (375) 
nan

>  <Peripheral>  (375) 
nan

>  <Num_H_Atoms_ProtBoundConf>  (375) 
nan

>  <Num_Resolved_Atoms>  (375) 
nan

>  <Num_Not_Resolved_Atoms>  (375) 
nan

$$$$
CHEMBL1170724
     RDKit          3D

  0  0  0  0  0  0  0  0  0  0999 V3000
M  V30 BEGIN CTAB
M  V30 COUNTS 30 31 0 0 0
M  V30 BEGIN ATOM
M  V30 1 C -3.569847 -3.027802 2.584162 0
M  V30 2 C -2.168227 -2.705993 2.179955 0
M  V30 3 C -1.189884 -3.662937 2.328208 0
M  V30 4 C 0.070151 -3.280016 1.930638 0
M  V30 5 C 0.407162 -2.026360 1.404856 0
M  V30 6 N 1.759170 -1.820136 1.044549 0
M  V30 7 S 2.498658 -1.148931 -0.362927 0
M  V30 8 O 3.966114 -1.349669 -0.373782 0
M  V30 9 O 1.938948 -1.963479 -1.527890 0
M  V30 10 C 2.023946 0.499986 -0.566956 0
M  V30 11 C 0.991889 1.072704 -1.279145 0
M  V30 12 C 0.804663 2.422978 -1.297209 0
M  V30 13 C 1.613808 3.282882 -0.622135 0
M  V30 14 Br 1.209722 5.130238 -0.756247 0
M  V30 15 C 2.667499 2.755651 0.110105 0
M  V30 16 C 2.864855 1.371203 0.132615 0
M  V30 17 C -0.649551 -1.149042 1.301813 0
M  V30 18 C -1.938312 -1.454637 1.677051 0
M  V30 19 Cl -3.151038 -0.214283 1.473594 0
M  V30 20 H -4.154811 -2.114012 2.810542 0
M  V30 21 H -4.060343 -3.562469 1.742600 0
M  V30 22 H -3.587450 -3.635807 3.502855 0
M  V30 23 H -1.390963 -4.630074 2.721729 0
M  V30 24 H 0.858566 -4.029963 2.042419 0
M  V30 25 H 2.434005 -2.145400 1.798800 0
M  V30 26 H 0.400827 0.293226 -1.785765 0
M  V30 27 H -0.056560 2.696061 -1.909774 0
M  V30 28 H 3.287378 3.456378 0.631010 0
M  V30 29 H 3.727808 1.100078 0.746626 0
M  V30 30 H -0.405309 -0.177514 0.900608 0
M  V30 END ATOM
M  V30 BEGIN BOND
M  V30 1 1 1 2
M  V30 2 2 2 3
M  V30 3 1 3 4
M  V30 4 2 4 5
M  V30 5 1 5 6
M  V30 6 1 6 7
M  V30 7 2 7 8
M  V30 8 2 7 9
M  V30 9 1 7 10
M  V30 10 2 10 11
M  V30 11 1 11 12
M  V30 12 2 12 13
M  V30 13 1 13 14
M  V30 14 1 13 15
M  V30 15 2 15 16
M  V30 16 1 5 17
M  V30 17 2 17 18
M  V30 18 1 18 19
M  V30 19 1 18 2
M  V30 20 1 16 10
M  V30 21 1 1 20
M  V30 22 1 1 21
M  V30 23 1 1 22
M  V30 24 1 3 23
M  V30 25 1 4 24
M  V30 26 1 6 25
M  V30 27 1 11 26
M  V30 28 1 12 27
M  V30 29 1 15 28
M  V30 30 1 16 29
M  V30 31 1 17 30
M  V30 END BOND
M  V30 END CTAB
M  END
>  <Dataset>  (376) 
ChEMBL_Kinases

>  <Ligand_Instance>  (376) 
nan

>  <PDB_ID>  (376) 
nan

>  <Standardized_SMILES>  (376) 
Cc1ccc(NS(=O)(=O)c2ccc(Br)cc2)cc1Cl

>  <Name>  (376) 
nan

>  <Pocket>  (376) 
nan

>  <ATP_Site>  (376) 
nan

>  <Peripheral>  (376) 
nan

>  <Num_H_Atoms_ProtBoundConf>  (376) 
nan

>  <Num_Resolved_Atoms>  (376) 
nan

>  <Num_Not_Resolved_Atoms>  (376) 
nan

$$$$
CHEMBL1170617
     RDKit          3D

  0  0  0  0  0  0  0  0  0  0999 V3000
M  V30 BEGIN CTAB
M  V30 COUNTS 36 38 0 0 0
M  V30 BEGIN ATOM
M  V30 1 O 3.252746 -1.244173 1.436958 0
M  V30 2 C 2.013798 -1.163516 1.163645 0
M  V30 3 N 1.454598 -2.096820 0.260412 0
M  V30 4 C 2.407678 -3.052074 -0.253618 0
M  V30 5 C 2.802114 -4.259391 0.247419 0
M  V30 6 F 2.189611 -4.576159 1.416710 0
M  V30 7 C 3.730802 -5.008273 -0.429105 0
M  V30 8 C 4.245110 -4.515582 -1.609642 0
M  V30 9 C 3.889947 -3.310148 -2.166390 0
M  V30 10 C 2.940091 -2.568358 -1.451785 0
M  V30 11 F 2.625960 -1.375760 -2.060014 0
M  V30 12 C 1.221534 -0.113189 1.793418 0
M  V30 13 C -0.103922 0.176692 1.564561 0
M  V30 14 C -0.477721 1.228185 2.369602 0
M  V30 15 C -1.739149 1.980004 2.561073 0
M  V30 16 O -2.004003 2.645075 3.594443 0
M  V30 17 C -2.669267 1.878061 1.414014 0
M  V30 18 C -2.094905 2.082340 0.153739 0
M  V30 19 C -2.795231 2.044954 -1.022371 0
M  V30 20 C -4.143455 1.788595 -0.923328 0
M  V30 21 C -4.716372 1.587935 0.294867 0
M  V30 22 C -4.028895 1.620532 1.497710 0
M  V30 23 F -4.533419 1.431039 2.728295 0
M  V30 24 C 0.645558 1.585198 3.102842 0
M  V30 25 N 1.640727 0.756845 2.726894 0
M  V30 26 H 0.416611 -2.017552 0.046078 0
M  V30 27 H 3.992575 -5.946005 0.023267 0
M  V30 28 H 4.968843 -5.155636 -2.087641 0
M  V30 29 H 4.346927 -3.016230 -3.091458 0
M  V30 30 H -0.808330 -0.286796 0.891260 0
M  V30 31 H -1.017729 2.287344 0.082840 0
M  V30 32 H -2.284451 2.211743 -1.947982 0
M  V30 33 H -4.729706 1.752451 -1.830421 0
M  V30 34 H -5.781510 1.386209 0.363888 0
M  V30 35 H 0.756944 2.366967 3.844851 0
M  V30 36 H 2.599559 0.768624 3.089953 0
M  V30 END ATOM
M  V30 BEGIN BOND
M  V30 1 2 1 2
M  V30 2 1 2 3
M  V30 3 1 3 4
M  V30 4 2 4 5
M  V30 5 1 5 6
M  V30 6 1 5 7
M  V30 7 2 7 8
M  V30 8 1 8 9
M  V30 9 2 9 10
M  V30 10 1 10 11
M  V30 11 1 2 12
M  V30 12 2 12 13
M  V30 13 1 13 14
M  V30 14 1 14 15
M  V30 15 2 15 16
M  V30 16 1 15 17
M  V30 17 2 17 18
M  V30 18 1 18 19
M  V30 19 2 19 20
M  V30 20 1 20 21
M  V30 21 2 21 22
M  V30 22 1 22 23
M  V30 23 2 14 24
M  V30 24 1 24 25
M  V30 25 1 10 4
M  V30 26 1 25 12
M  V30 27 1 22 17
M  V30 28 1 3 26
M  V30 29 1 7 27
M  V30 30 1 8 28
M  V30 31 1 9 29
M  V30 32 1 13 30
M  V30 33 1 18 31
M  V30 34 1 19 32
M  V30 35 1 20 33
M  V30 36 1 21 34
M  V30 37 1 24 35
M  V30 38 1 25 36
M  V30 END BOND
M  V30 END CTAB
M  END
>  <Dataset>  (377) 
ChEMBL_Kinases

>  <Ligand_Instance>  (377) 
nan

>  <PDB_ID>  (377) 
nan

>  <Standardized_SMILES>  (377) 
O=C(Nc1c(F)cccc1F)c1cc(C(=O)c2ccccc2F)c[nH]1

>  <Name>  (377) 
nan

>  <Pocket>  (377) 
nan

>  <ATP_Site>  (377) 
nan

>  <Peripheral>  (377) 
nan

>  <Num_H_Atoms_ProtBoundConf>  (377) 
nan

>  <Num_Resolved_Atoms>  (377) 
nan

>  <Num_Not_Resolved_Atoms>  (377) 
nan

$$$$
CHEMBL1170586
     RDKit          3D

  0  0  0  0  0  0  0  0  0  0999 V3000
M  V30 BEGIN CTAB
M  V30 COUNTS 39 41 0 0 0
M  V30 BEGIN ATOM
M  V30 1 O -2.657463 -1.854659 3.353413 0
M  V30 2 C -1.712690 -1.460210 2.645870 0
M  V30 3 N -1.008683 -2.430826 1.887200 0
M  V30 4 C -1.094070 -3.843103 1.699903 0
M  V30 5 C 0.230276 -4.549606 1.906621 0
M  V30 6 C 0.902280 -4.561702 0.553943 0
M  V30 7 C -0.114645 -4.147698 -0.470734 0
M  V30 8 C -1.448781 -4.089902 0.242712 0
M  V30 9 C -1.268480 -0.078310 2.532095 0
M  V30 10 C -0.239502 0.494364 1.799441 0
M  V30 11 C -0.191832 1.856777 1.998872 0
M  V30 12 C 0.703173 2.821043 1.393278 0
M  V30 13 O 0.912241 3.824148 2.165452 0
M  V30 14 C 1.414595 2.927879 0.138902 0
M  V30 15 C 2.521396 3.748064 0.108816 0
M  V30 16 Cl 3.118037 4.630664 1.503224 0
M  V30 17 C 3.230442 3.909566 -1.074605 0
M  V30 18 C 2.856167 3.266913 -2.234491 0
M  V30 19 C 1.753097 2.440674 -2.237338 0
M  V30 20 C 1.062792 2.301087 -1.031242 0
M  V30 21 Cl -0.342842 1.295602 -1.131726 0
M  V30 22 C -1.219976 2.111359 2.877336 0
M  V30 23 N -1.829407 0.963192 3.169574 0
M  V30 24 H -0.205362 -2.136787 1.276317 0
M  V30 25 H -1.906517 -4.244190 2.323882 0
M  V30 26 H 0.825812 -4.069698 2.686720 0
M  V30 27 H 0.012046 -5.589502 2.240099 0
M  V30 28 H 1.255116 -5.582548 0.311558 0
M  V30 29 H 1.801134 -3.884372 0.540697 0
M  V30 30 H -0.153534 -4.891708 -1.314851 0
M  V30 31 H 0.147549 -3.145371 -0.911667 0
M  V30 32 H -1.922660 -5.093073 0.110736 0
M  V30 33 H -2.072338 -3.307224 -0.192188 0
M  V30 34 H 0.368608 -0.177414 1.214537 0
M  V30 35 H 4.093989 4.543163 -1.115607 0
M  V30 36 H 3.426505 3.406984 -3.153407 0
M  V30 37 H 1.463919 1.939189 -3.148915 0
M  V30 38 H -1.473568 3.111449 3.258179 0
M  V30 39 H -2.649860 0.904979 3.823506 0
M  V30 END ATOM
M  V30 BEGIN BOND
M  V30 1 2 1 2
M  V30 2 1 2 3
M  V30 3 1 3 4
M  V30 4 1 4 5
M  V30 5 1 5 6
M  V30 6 1 6 7
M  V30 7 1 7 8
M  V30 8 1 2 9
M  V30 9 2 9 10
M  V30 10 1 10 11
M  V30 11 1 11 12
M  V30 12 2 12 13
M  V30 13 1 12 14
M  V30 14 2 14 15
M  V30 15 1 15 16
M  V30 16 1 15 17
M  V30 17 2 17 18
M  V30 18 1 18 19
M  V30 19 2 19 20
M  V30 20 1 20 21
M  V30 21 2 11 22
M  V30 22 1 22 23
M  V30 23 1 8 4
M  V30 24 1 23 9
M  V30 25 1 20 14
M  V30 26 1 3 24
M  V30 27 1 4 25
M  V30 28 1 5 26
M  V30 29 1 5 27
M  V30 30 1 6 28
M  V30 31 1 6 29
M  V30 32 1 7 30
M  V30 33 1 7 31
M  V30 34 1 8 32
M  V30 35 1 8 33
M  V30 36 1 10 34
M  V30 37 1 17 35
M  V30 38 1 18 36
M  V30 39 1 19 37
M  V30 40 1 22 38
M  V30 41 1 23 39
M  V30 END BOND
M  V30 END CTAB
M  END
>  <Dataset>  (378) 
ChEMBL_Kinases

>  <Ligand_Instance>  (378) 
nan

>  <PDB_ID>  (378) 
nan

>  <Standardized_SMILES>  (378) 
O=C(NC1CCCC1)c1cc(C(=O)c2c(Cl)cccc2Cl)c[nH]1

>  <Name>  (378) 
nan

>  <Pocket>  (378) 
nan

>  <ATP_Site>  (378) 
nan

>  <Peripheral>  (378) 
nan

>  <Num_H_Atoms_ProtBoundConf>  (378) 
nan

>  <Num_Resolved_Atoms>  (378) 
nan

>  <Num_Not_Resolved_Atoms>  (378) 
nan

$$$$
CHEMBL1170448
     RDKit          3D

  0  0  0  0  0  0  0  0  0  0999 V3000
M  V30 BEGIN CTAB
M  V30 COUNTS 48 51 0 0 0
M  V30 BEGIN ATOM
M  V30 1 C 2.312071 -0.934892 4.597972 0
M  V30 2 C 3.088271 -1.940008 3.839489 0
M  V30 3 C 3.890511 -2.970741 4.344741 0
M  V30 4 N 4.424414 -3.666423 3.324683 0
M  V30 5 C 3.999418 -3.126756 2.166228 0
M  V30 6 N 4.220654 -3.421804 0.872363 0
M  V30 7 C 3.636659 -2.676184 -0.086250 0
M  V30 8 N 2.826271 -1.629150 0.205546 0
M  V30 9 C 2.597204 -1.323915 1.505746 0
M  V30 10 N 1.732315 -0.204913 1.677752 0
M  V30 11 C 1.670315 1.132443 2.243918 0
M  V30 12 C 1.331849 2.051101 1.083522 0
M  V30 13 C 0.362557 1.133376 0.306908 0 CFG=2
M  V30 14 N 0.955730 0.825584 -0.973093 0
M  V30 15 C -0.888809 1.907115 0.109712 0
M  V30 16 N -1.953629 1.279832 -0.608323 0
M  V30 17 C -2.794465 0.155704 -0.476943 0
M  V30 18 O -2.522471 -0.471945 0.599947 0
M  V30 19 C -3.833734 -0.330422 -1.334585 0
M  V30 20 C -4.493850 -1.488835 -0.912578 0
M  V30 21 C -5.509762 -2.075553 -1.623622 0
M  V30 22 C -5.912058 -1.510814 -2.811847 0
M  V30 23 F -6.906418 -2.083099 -3.510058 0
M  V30 24 C -5.311694 -0.373585 -3.290838 0
M  V30 25 C -4.308198 0.152533 -2.527725 0
M  V30 26 F -3.723262 1.265193 -3.000210 0
M  V30 27 C 0.328151 -0.018648 1.238813 0
M  V30 28 C 3.180504 -2.068598 2.481594 0
M  V30 29 H 2.807649 0.053927 4.679421 0
M  V30 30 H 2.283140 -1.305437 5.665973 0
M  V30 31 H 1.255914 -0.850520 4.313228 0
M  V30 32 H 4.015495 -3.124126 5.423704 0
M  V30 33 H 5.063665 -4.489670 3.457615 0
M  V30 34 H 3.911213 -3.037758 -1.082139 0
M  V30 35 H 0.953262 1.231780 3.065133 0
M  V30 36 H 2.653286 1.480076 2.610039 0
M  V30 37 H 0.826267 2.959749 1.395930 0
M  V30 38 H 2.191160 2.287221 0.457669 0
M  V30 39 H 0.706869 -0.117164 -1.326454 0
M  V30 40 H 1.974166 1.039113 -1.017900 0
M  V30 41 H -1.330468 2.258519 1.083800 0
M  V30 42 H -0.653675 2.884241 -0.408648 0
M  V30 43 H -2.213929 1.781934 -1.515754 0
M  V30 44 H -4.244757 -2.004869 0.012387 0
M  V30 45 H -6.010759 -2.965280 -1.291313 0
M  V30 46 H -5.616548 0.068374 -4.207194 0
M  V30 47 H 0.113813 -0.949705 0.649115 0
M  V30 48 H -0.340280 0.045786 2.087255 0
M  V30 END ATOM
M  V30 BEGIN BOND
M  V30 1 1 1 2
M  V30 2 2 2 3
M  V30 3 1 3 4
M  V30 4 1 4 5
M  V30 5 2 5 6
M  V30 6 1 6 7
M  V30 7 2 7 8
M  V30 8 1 8 9
M  V30 9 1 9 10
M  V30 10 1 10 11
M  V30 11 1 11 12
M  V30 12 1 12 13
M  V30 13 1 13 14 CFG=3
M  V30 14 1 13 15
M  V30 15 1 15 16
M  V30 16 1 16 17
M  V30 17 2 17 18
M  V30 18 1 17 19
M  V30 19 2 19 20
M  V30 20 1 20 21
M  V30 21 2 21 22
M  V30 22 1 22 23
M  V30 23 1 22 24
M  V30 24 2 24 25
M  V30 25 1 25 26
M  V30 26 1 13 27
M  V30 27 2 9 28
M  V30 28 1 28 2
M  V30 29 1 28 5
M  V30 30 1 27 10
M  V30 31 1 25 19
M  V30 32 1 1 29
M  V30 33 1 1 30
M  V30 34 1 1 31
M  V30 35 1 3 32
M  V30 36 1 4 33
M  V30 37 1 7 34
M  V30 38 1 11 35
M  V30 39 1 11 36
M  V30 40 1 12 37
M  V30 41 1 12 38
M  V30 42 1 14 39
M  V30 43 1 14 40
M  V30 44 1 15 41
M  V30 45 1 15 42
M  V30 46 1 16 43
M  V30 47 1 20 44
M  V30 48 1 21 45
M  V30 49 1 24 46
M  V30 50 1 27 47
M  V30 51 1 27 48
M  V30 END BOND
M  V30 END CTAB
M  END
>  <Dataset>  (379) 
ChEMBL_Kinases

>  <Ligand_Instance>  (379) 
nan

>  <PDB_ID>  (379) 
nan

>  <Standardized_SMILES>  (379) 
Cc1c[nH]c2ncnc(N3CC[C@](N)(CNC(=O)c4ccc(F)cc4F)C3)c12

>  <Name>  (379) 
nan

>  <Pocket>  (379) 
nan

>  <ATP_Site>  (379) 
nan

>  <Peripheral>  (379) 
nan

>  <Num_H_Atoms_ProtBoundConf>  (379) 
nan

>  <Num_Resolved_Atoms>  (379) 
nan

>  <Num_Not_Resolved_Atoms>  (379) 
nan

$$$$
CHEMBL1170447
     RDKit          3D

  0  0  0  0  0  0  0  0  0  0999 V3000
M  V30 BEGIN CTAB
M  V30 COUNTS 46 49 0 0 0
M  V30 BEGIN ATOM
M  V30 1 N 3.564686 -1.675656 3.368497 0
M  V30 2 C 3.669576 -1.446620 2.240465 0
M  V30 3 C 3.820488 -1.176772 0.849147 0
M  V30 4 C 4.586988 -1.998794 0.024734 0
M  V30 5 N 4.560905 -1.497061 -1.220769 0
M  V30 6 C 3.818208 -0.393323 -1.248174 0
M  V30 7 N 3.483689 0.467153 -2.195055 0
M  V30 8 C 2.705738 1.518619 -1.903368 0
M  V30 9 N 2.257848 1.709908 -0.650590 0
M  V30 10 C 2.560667 0.862468 0.384024 0
M  V30 11 N 1.979409 1.219127 1.631141 0
M  V30 12 C 2.307465 1.444271 3.024745 0
M  V30 13 C 1.197920 0.755632 3.743340 0
M  V30 14 C 0.040767 0.604826 2.712541 0 CFG=2
M  V30 15 N -1.215550 1.029079 3.276562 0
M  V30 16 C 0.014160 -0.792313 2.191678 0
M  V30 17 N -1.012261 -1.113090 1.285405 0
M  V30 18 C -1.764310 -1.059832 0.103947 0
M  V30 19 O -1.174183 -0.197422 -0.631877 0
M  V30 20 C -2.940092 -1.740216 -0.338024 0
M  V30 21 C -3.373909 -1.386616 -1.587868 0
M  V30 22 C -4.491863 -1.946059 -2.163066 0
M  V30 23 C -5.210433 -2.885686 -1.489328 0
M  V30 24 F -6.314375 -3.446116 -2.042916 0
M  V30 25 C -4.830746 -3.285400 -0.233143 0
M  V30 26 C -3.716012 -2.694599 0.281084 0
M  V30 27 F -3.328668 -3.076743 1.515507 0
M  V30 28 C 0.536102 1.562186 1.673341 0
M  V30 29 C 3.360638 -0.196829 0.031437 0
M  V30 30 H 5.122822 -2.889735 0.298527 0
M  V30 31 H 5.045131 -1.895996 -2.064956 0
M  V30 32 H 2.421972 2.230302 -2.656704 0
M  V30 33 H 2.138657 2.547598 3.174956 0
M  V30 34 H 3.326817 1.164086 3.316159 0
M  V30 35 H 1.426503 -0.191014 4.226673 0
M  V30 36 H 0.768243 1.431501 4.530848 0
M  V30 37 H -1.776301 0.186765 3.543575 0
M  V30 38 H -1.740333 1.675255 2.634708 0
M  V30 39 H 0.117498 -1.545377 3.020140 0
M  V30 40 H 0.980953 -0.910290 1.548677 0
M  V30 41 H -1.568210 -1.842625 1.831029 0
M  V30 42 H -2.877648 -0.651202 -2.208716 0
M  V30 43 H -4.819574 -1.659942 -3.141316 0
M  V30 44 H -5.372563 -4.021983 0.325383 0
M  V30 45 H 0.059325 1.575833 0.715597 0
M  V30 46 H 0.542152 2.586236 2.159904 0
M  V30 END ATOM
M  V30 BEGIN BOND
M  V30 1 3 1 2
M  V30 2 1 2 3
M  V30 3 2 3 4
M  V30 4 1 4 5
M  V30 5 1 5 6
M  V30 6 2 6 7
M  V30 7 1 7 8
M  V30 8 2 8 9
M  V30 9 1 9 10
M  V30 10 1 10 11
M  V30 11 1 11 12
M  V30 12 1 12 13
M  V30 13 1 13 14
M  V30 14 1 14 15 CFG=1
M  V30 15 1 14 16
M  V30 16 1 16 17
M  V30 17 1 17 18
M  V30 18 2 18 19
M  V30 19 1 18 20
M  V30 20 2 20 21
M  V30 21 1 21 22
M  V30 22 2 22 23
M  V30 23 1 23 24
M  V30 24 1 23 25
M  V30 25 2 25 26
M  V30 26 1 26 27
M  V30 27 1 14 28
M  V30 28 2 10 29
M  V30 29 1 29 3
M  V30 30 1 29 6
M  V30 31 1 28 11
M  V30 32 1 26 20
M  V30 33 1 4 30
M  V30 34 1 5 31
M  V30 35 1 8 32
M  V30 36 1 12 33
M  V30 37 1 12 34
M  V30 38 1 13 35
M  V30 39 1 13 36
M  V30 40 1 15 37
M  V30 41 1 15 38
M  V30 42 1 16 39
M  V30 43 1 16 40
M  V30 44 1 17 41
M  V30 45 1 21 42
M  V30 46 1 22 43
M  V30 47 1 25 44
M  V30 48 1 28 45
M  V30 49 1 28 46
M  V30 END BOND
M  V30 END CTAB
M  END
>  <Dataset>  (380) 
ChEMBL_Kinases

>  <Ligand_Instance>  (380) 
nan

>  <PDB_ID>  (380) 
nan

>  <Standardized_SMILES>  (380) 
N#Cc1c[nH]c2ncnc(N3CC[C@](N)(CNC(=O)c4ccc(F)cc4F)C3)c12

>  <Name>  (380) 
nan

>  <Pocket>  (380) 
nan

>  <ATP_Site>  (380) 
nan

>  <Peripheral>  (380) 
nan

>  <Num_H_Atoms_ProtBoundConf>  (380) 
nan

>  <Num_Resolved_Atoms>  (380) 
nan

>  <Num_Not_Resolved_Atoms>  (380) 
nan

$$$$
CHEMBL1170446
     RDKit          3D

  0  0  0  0  0  0  0  0  0  0999 V3000
M  V30 BEGIN CTAB
M  V30 COUNTS 51 54 0 0 0
M  V30 BEGIN ATOM
M  V30 1 C -2.475725 1.278362 -3.919068 0
M  V30 2 C -2.724580 0.676722 -2.526181 0
M  V30 3 C -3.501330 -0.571008 -2.621507 0
M  V30 4 C -4.312734 -0.948206 -3.659880 0
M  V30 5 N -4.867464 -2.176819 -3.431647 0
M  V30 6 C -4.398881 -2.599155 -2.216742 0
M  V30 7 N -4.585236 -3.719890 -1.468270 0
M  V30 8 C -3.940590 -3.820291 -0.269368 0
M  V30 9 N -3.115737 -2.836517 0.207667 0
M  V30 10 C -2.930123 -1.710799 -0.544106 0
M  V30 11 N -2.074659 -0.825797 0.156590 0
M  V30 12 C -2.251368 0.462383 0.848760 0
M  V30 13 C -0.832092 0.914728 1.107611 0
M  V30 14 C -0.227040 -0.448591 1.530514 0 CFG=2
M  V30 15 N -1.016495 -0.891306 2.663945 0
M  V30 16 C 1.189354 -0.339364 1.870092 0
M  V30 17 N 2.134350 0.065269 0.886014 0
M  V30 18 C 2.632318 -0.533319 -0.284825 0
M  V30 19 O 2.233712 -1.678306 -0.598335 0
M  V30 20 C 3.601957 0.057764 -1.202597 0
M  V30 21 C 4.293013 1.188702 -0.848504 0
M  V30 22 C 5.168024 1.740801 -1.742755 0
M  V30 23 C 5.419868 1.248113 -2.995757 0
M  V30 24 Cl 6.545190 1.976815 -4.123627 0
M  V30 25 C 4.700792 0.097850 -3.323994 0
M  V30 26 C 3.788090 -0.531219 -2.470620 0
M  V30 27 C -0.623967 -1.211115 0.285337 0
M  V30 28 C -3.580462 -1.623434 -1.742825 0
M  V30 29 H -3.424517 1.324709 -4.486293 0
M  V30 30 H -2.162700 2.335967 -3.765879 0
M  V30 31 H -1.668018 0.729022 -4.415902 0
M  V30 32 H -1.749085 0.574987 -2.037303 0
M  V30 33 H -3.397011 1.421475 -2.036704 0
M  V30 34 H -4.523699 -0.384256 -4.566548 0
M  V30 35 H -5.518116 -2.781001 -3.976702 0
M  V30 36 H -4.104385 -4.733358 0.327482 0
M  V30 37 H -2.833971 1.138051 0.245085 0
M  V30 38 H -2.775709 0.238943 1.810626 0
M  V30 39 H -0.752728 1.650638 1.922299 0
M  V30 40 H -0.360521 1.185292 0.165778 0
M  V30 41 H -1.835414 -1.457149 2.422490 0
M  V30 42 H -1.211251 -0.065111 3.262012 0
M  V30 43 H 1.257887 0.338847 2.778567 0
M  V30 44 H 1.513289 -1.338927 2.344842 0
M  V30 45 H 2.574981 1.009102 1.023774 0
M  V30 46 H 4.214661 1.700623 0.094879 0
M  V30 47 H 5.738962 2.650905 -1.484847 0
M  V30 48 H 4.883969 -0.306568 -4.315261 0
M  V30 49 H 3.245458 -1.414295 -2.762583 0
M  V30 50 H -0.609430 -2.265142 0.486311 0
M  V30 51 H -0.203427 -0.822724 -0.636285 0
M  V30 END ATOM
M  V30 BEGIN BOND
M  V30 1 1 1 2
M  V30 2 1 2 3
M  V30 3 2 3 4
M  V30 4 1 4 5
M  V30 5 1 5 6
M  V30 6 2 6 7
M  V30 7 1 7 8
M  V30 8 2 8 9
M  V30 9 1 9 10
M  V30 10 1 10 11
M  V30 11 1 11 12
M  V30 12 1 12 13
M  V30 13 1 13 14
M  V30 14 1 14 15 CFG=1
M  V30 15 1 14 16
M  V30 16 1 16 17
M  V30 17 1 17 18
M  V30 18 2 18 19
M  V30 19 1 18 20
M  V30 20 2 20 21
M  V30 21 1 21 22
M  V30 22 2 22 23
M  V30 23 1 23 24
M  V30 24 1 23 25
M  V30 25 2 25 26
M  V30 26 1 14 27
M  V30 27 2 10 28
M  V30 28 1 28 3
M  V30 29 1 28 6
M  V30 30 1 27 11
M  V30 31 1 26 20
M  V30 32 1 1 29
M  V30 33 1 1 30
M  V30 34 1 1 31
M  V30 35 1 2 32
M  V30 36 1 2 33
M  V30 37 1 4 34
M  V30 38 1 5 35
M  V30 39 1 8 36
M  V30 40 1 12 37
M  V30 41 1 12 38
M  V30 42 1 13 39
M  V30 43 1 13 40
M  V30 44 1 15 41
M  V30 45 1 15 42
M  V30 46 1 16 43
M  V30 47 1 16 44
M  V30 48 1 17 45
M  V30 49 1 21 46
M  V30 50 1 22 47
M  V30 51 1 25 48
M  V30 52 1 26 49
M  V30 53 1 27 50
M  V30 54 1 27 51
M  V30 END BOND
M  V30 END CTAB
M  END
>  <Dataset>  (381) 
ChEMBL_Kinases

>  <Ligand_Instance>  (381) 
nan

>  <PDB_ID>  (381) 
nan

>  <Standardized_SMILES>  (381) 
CCc1c[nH]c2ncnc(N3CC[C@](N)(CNC(=O)c4ccc(Cl)cc4)C3)c12

>  <Name>  (381) 
nan

>  <Pocket>  (381) 
nan

>  <ATP_Site>  (381) 
nan

>  <Peripheral>  (381) 
nan

>  <Num_H_Atoms_ProtBoundConf>  (381) 
nan

>  <Num_Resolved_Atoms>  (381) 
nan

>  <Num_Not_Resolved_Atoms>  (381) 
nan

$$$$
CHEMBL1170445
     RDKit          3D

  0  0  0  0  0  0  0  0  0  0999 V3000
M  V30 BEGIN CTAB
M  V30 COUNTS 45 48 0 0 0
M  V30 BEGIN ATOM
M  V30 1 N 1.081020 -2.749824 3.389478 0
M  V30 2 C 1.131613 -1.719416 2.347667 0 CFG=2
M  V30 3 C 2.411153 -1.950283 1.601379 0
M  V30 4 N 2.692812 -1.090763 0.497864 0
M  V30 5 C 2.949005 0.200362 0.027356 0
M  V30 6 O 2.953591 1.035188 0.949885 0
M  V30 7 C 3.190087 0.604063 -1.346019 0
M  V30 8 C 3.211994 -0.214842 -2.450030 0
M  V30 9 C 3.442590 0.206759 -3.723204 0
M  V30 10 C 3.671952 1.557376 -3.923769 0
M  V30 11 Cl 3.970226 2.116957 -5.554275 0
M  V30 12 C 3.654614 2.400196 -2.827211 0
M  V30 13 C 3.417607 1.924883 -1.566681 0
M  V30 14 C 1.033728 -0.414773 3.076050 0
M  V30 15 C -0.071085 0.362405 2.420139 0
M  V30 16 N -0.895739 -0.619592 1.734142 0
M  V30 17 C -2.264706 -0.652157 1.351101 0
M  V30 18 N -2.380322 -0.524627 -0.004037 0
M  V30 19 C -3.594827 -0.500535 -0.595389 0
M  V30 20 N -4.747707 -0.601667 0.127426 0
M  V30 21 C -4.660234 -0.728345 1.458312 0
M  V30 22 N -5.530743 -0.859554 2.491018 0
M  V30 23 C -4.869257 -0.962165 3.679455 0
M  V30 24 C -3.494136 -0.896081 3.426542 0
M  V30 25 Cl -2.232535 -0.996770 4.617315 0
M  V30 26 C -3.429096 -0.754481 2.073605 0
M  V30 27 C -0.057621 -1.774408 1.416973 0
M  V30 28 H 1.613725 -3.596089 3.134313 0
M  V30 29 H 0.107986 -2.910027 3.722927 0
M  V30 30 H 3.227081 -1.808939 2.380610 0
M  V30 31 H 2.465444 -3.022321 1.322478 0
M  V30 32 H 2.720089 -1.712593 -0.384374 0
M  V30 33 H 3.036688 -1.264161 -2.316384 0
M  V30 34 H 3.452465 -0.465659 -4.567869 0
M  V30 35 H 3.831035 3.450530 -2.968314 0
M  V30 36 H 3.418232 2.639042 -0.754152 0
M  V30 37 H 1.972861 0.112536 3.194074 0
M  V30 38 H 0.687837 -0.584765 4.155820 0
M  V30 39 H 0.361122 1.095114 1.685235 0
M  V30 40 H -0.646675 0.978733 3.131841 0
M  V30 41 H -3.752658 -0.401790 -1.662370 0
M  V30 42 H -6.573375 -0.877796 2.373137 0
M  V30 43 H -5.320235 -1.075642 4.657333 0
M  V30 44 H -0.640885 -2.690799 1.553374 0
M  V30 45 H 0.284116 -1.636281 0.367375 0
M  V30 END ATOM
M  V30 BEGIN BOND
M  V30 1 1 2 1 CFG=1
M  V30 2 1 2 3
M  V30 3 1 3 4
M  V30 4 1 4 5
M  V30 5 2 5 6
M  V30 6 1 5 7
M  V30 7 2 7 8
M  V30 8 1 8 9
M  V30 9 2 9 10
M  V30 10 1 10 11
M  V30 11 1 10 12
M  V30 12 2 12 13
M  V30 13 1 2 14
M  V30 14 1 14 15
M  V30 15 1 15 16
M  V30 16 1 16 17
M  V30 17 2 17 18
M  V30 18 1 18 19
M  V30 19 2 19 20
M  V30 20 1 20 21
M  V30 21 1 21 22
M  V30 22 1 22 23
M  V30 23 2 23 24
M  V30 24 1 24 25
M  V30 25 1 24 26
M  V30 26 1 16 27
M  V30 27 1 27 2
M  V30 28 1 13 7
M  V30 29 1 26 17
M  V30 30 2 26 21
M  V30 31 1 1 28
M  V30 32 1 1 29
M  V30 33 1 3 30
M  V30 34 1 3 31
M  V30 35 1 4 32
M  V30 36 1 8 33
M  V30 37 1 9 34
M  V30 38 1 12 35
M  V30 39 1 13 36
M  V30 40 1 14 37
M  V30 41 1 14 38
M  V30 42 1 15 39
M  V30 43 1 15 40
M  V30 44 1 19 41
M  V30 45 1 22 42
M  V30 46 1 23 43
M  V30 47 1 27 44
M  V30 48 1 27 45
M  V30 END BOND
M  V30 END CTAB
M  END
>  <Dataset>  (382) 
ChEMBL_Kinases

>  <Ligand_Instance>  (382) 
nan

>  <PDB_ID>  (382) 
nan

>  <Standardized_SMILES>  (382) 
N[C@]1(CNC(=O)c2ccc(Cl)cc2)CCN(c2ncnc3[nH]cc(Cl)c23)C1

>  <Name>  (382) 
nan

>  <Pocket>  (382) 
nan

>  <ATP_Site>  (382) 
nan

>  <Peripheral>  (382) 
nan

>  <Num_H_Atoms_ProtBoundConf>  (382) 
nan

>  <Num_Resolved_Atoms>  (382) 
nan

>  <Num_Not_Resolved_Atoms>  (382) 
nan

$$$$
CHEMBL1170377
     RDKit          3D

  0  0  0  0  0  0  0  0  0  0999 V3000
M  V30 BEGIN CTAB
M  V30 COUNTS 50 54 0 0 0
M  V30 BEGIN ATOM
M  V30 1 C -3.012244 -2.914290 3.858623 0
M  V30 2 C -1.664166 -2.993466 3.239830 0
M  V30 3 C -0.785746 -3.998986 3.583869 0
M  V30 4 C 0.482915 -4.069258 2.998029 0
M  V30 5 C 0.863289 -3.125788 2.066646 0
M  V30 6 C -0.030135 -2.127722 1.735997 0
M  V30 7 C 0.165376 -1.027302 0.774272 0
M  V30 8 N 1.085092 -0.064605 0.821613 0
M  V30 9 N 0.990445 0.774767 -0.196102 0
M  V30 10 C 1.829759 1.922172 -0.443604 0
M  V30 11 S 2.403515 2.325531 -1.916401 0
M  V30 12 N 2.178989 2.751900 0.658226 0
M  V30 13 C 2.900724 3.913195 1.042912 0
M  V30 14 C 2.331981 5.189624 1.062184 0
M  V30 15 C 3.057872 6.297548 1.439621 0
M  V30 16 C 4.366481 6.037407 1.788556 0
M  V30 17 C 5.022141 4.834393 1.805781 0
M  V30 18 C 4.239882 3.752460 1.415441 0
M  V30 19 C -0.029593 0.388268 -0.984114 0
M  V30 20 C -0.560633 -0.744673 -0.388830 0
M  V30 21 C -1.675919 -1.507148 -0.890880 0
M  V30 22 C -2.952162 -0.963890 -0.944457 0
M  V30 23 C -4.054982 -1.650724 -1.417876 0
M  V30 24 N -3.923239 -2.922453 -1.861384 0
M  V30 25 C -2.687204 -3.478694 -1.820758 0
M  V30 26 C -2.486181 -4.784953 -2.264831 0
M  V30 27 C -1.283035 -5.448809 -2.272216 0
M  V30 28 C -0.206521 -4.729079 -1.792127 0
M  V30 29 C -0.349538 -3.434368 -1.340782 0
M  V30 30 C -1.555451 -2.804369 -1.346261 0
M  V30 31 N -1.232625 -2.123563 2.340246 0
M  V30 32 H -3.682529 -3.525088 3.188226 0
M  V30 33 H -3.354592 -1.859152 3.731402 0
M  V30 34 H -3.041885 -3.277295 4.894398 0
M  V30 35 H -1.077027 -4.738247 4.310034 0
M  V30 36 H 1.195394 -4.833733 3.237068 0
M  V30 37 H 1.806063 -3.067816 1.544948 0
M  V30 38 H 1.829158 2.529724 1.637172 0
M  V30 39 H 1.288683 5.299686 0.769793 0
M  V30 40 H 2.656404 7.292744 1.467123 0
M  V30 41 H 4.963019 6.909409 2.093244 0
M  V30 42 H 6.050636 4.766300 2.099924 0
M  V30 43 H 4.703895 2.764856 1.407746 0
M  V30 44 H -0.402584 0.830082 -1.901638 0
M  V30 45 H -3.151735 0.046944 -0.610897 0
M  V30 46 H -5.039739 -1.182517 -1.441260 0
M  V30 47 H -3.373470 -5.301685 -2.632308 0
M  V30 48 H -1.195302 -6.456460 -2.628218 0
M  V30 49 H 0.781858 -5.185766 -1.765241 0
M  V30 50 H 0.516185 -2.926547 -0.983476 0
M  V30 END ATOM
M  V30 BEGIN BOND
M  V30 1 1 1 2
M  V30 2 2 2 3
M  V30 3 1 3 4
M  V30 4 2 4 5
M  V30 5 1 5 6
M  V30 6 1 6 7
M  V30 7 2 7 8
M  V30 8 1 8 9
M  V30 9 1 9 10
M  V30 10 2 10 11
M  V30 11 1 10 12
M  V30 12 1 12 13
M  V30 13 2 13 14
M  V30 14 1 14 15
M  V30 15 2 15 16
M  V30 16 1 16 17
M  V30 17 2 17 18
M  V30 18 1 9 19
M  V30 19 2 19 20
M  V30 20 1 20 21
M  V30 21 2 21 22
M  V30 22 1 22 23
M  V30 23 2 23 24
M  V30 24 1 24 25
M  V30 25 2 25 26
M  V30 26 1 26 27
M  V30 27 2 27 28
M  V30 28 1 28 29
M  V30 29 2 29 30
M  V30 30 2 6 31
M  V30 31 1 31 2
M  V30 32 1 20 7
M  V30 33 1 30 21
M  V30 34 1 18 13
M  V30 35 1 30 25
M  V30 36 1 1 32
M  V30 37 1 1 33
M  V30 38 1 1 34
M  V30 39 1 3 35
M  V30 40 1 4 36
M  V30 41 1 5 37
M  V30 42 1 12 38
M  V30 43 1 14 39
M  V30 44 1 15 40
M  V30 45 1 16 41
M  V30 46 1 17 42
M  V30 47 1 18 43
M  V30 48 1 19 44
M  V30 49 1 22 45
M  V30 50 1 23 46
M  V30 51 1 26 47
M  V30 52 1 27 48
M  V30 53 1 28 49
M  V30 54 1 29 50
M  V30 END BOND
M  V30 END CTAB
M  END
>  <Dataset>  (383) 
ChEMBL_Kinases

>  <Ligand_Instance>  (383) 
nan

>  <PDB_ID>  (383) 
nan

>  <Standardized_SMILES>  (383) 
Cc1cccc(-c2nn(C(=S)Nc3ccccc3)cc2-c2ccnc3ccccc23)n1

>  <Name>  (383) 
nan

>  <Pocket>  (383) 
nan

>  <ATP_Site>  (383) 
nan

>  <Peripheral>  (383) 
nan

>  <Num_H_Atoms_ProtBoundConf>  (383) 
nan

>  <Num_Resolved_Atoms>  (383) 
nan

>  <Num_Not_Resolved_Atoms>  (383) 
nan

$$$$
CHEMBL1170375
     RDKit          3D

  0  0  0  0  0  0  0  0  0  0999 V3000
M  V30 BEGIN CTAB
M  V30 COUNTS 46 48 0 0 0
M  V30 BEGIN ATOM
M  V30 1 C 3.146762 -4.220594 0.156298 0
M  V30 2 O 2.917441 -3.058589 -0.578870 0
M  V30 3 C 2.904481 -2.941456 -1.940927 0
M  V30 4 C 3.158275 -4.159605 -2.598157 0
M  V30 5 C 3.182037 -4.220094 -3.990331 0
M  V30 6 C 2.954769 -3.076081 -4.735610 0
M  V30 7 C 2.700016 -1.853104 -4.114984 0
M  V30 8 C 2.684483 -1.831161 -2.739329 0
M  V30 9 C 2.444890 -0.667173 -1.806433 0
M  V30 10 N 1.098923 -0.879934 -1.287760 0
M  V30 11 C 0.605654 0.036401 -0.345475 0
M  V30 12 O 1.373137 1.001686 -0.005884 0
M  V30 13 C -0.706005 -0.000823 0.295873 0
M  V30 14 C -1.102172 0.909911 1.252828 0
M  V30 15 C -2.391440 0.588027 1.652604 0
M  V30 16 C -3.271717 1.225935 2.658226 0
M  V30 17 O -4.521167 1.071399 2.612049 0
M  V30 18 C -2.758797 2.059983 3.747549 0
M  V30 19 C -3.258736 3.286878 4.093577 0
M  V30 20 C -2.763217 4.069748 5.113923 0
M  V30 21 C -1.683575 3.507977 5.791109 0
M  V30 22 C -1.182520 2.289187 5.451829 0
M  V30 23 C -1.673236 1.485134 4.421970 0
M  V30 24 C -1.008211 0.205461 4.216820 0
M  V30 25 C -2.788315 -0.540381 0.924234 0
M  V30 26 N -1.741986 -0.841265 0.135577 0
M  V30 27 H 3.983170 -4.822680 -0.226434 0
M  V30 28 H 3.396528 -3.934160 1.205398 0
M  V30 29 H 2.255824 -4.881290 0.257650 0
M  V30 30 H 3.356191 -5.144799 -2.145816 0
M  V30 31 H 3.372625 -5.129827 -4.543940 0
M  V30 32 H 2.948954 -2.998286 -5.814886 0
M  V30 33 H 2.505767 -0.883751 -4.549395 0
M  V30 34 H 3.209340 -0.574519 -1.037078 0
M  V30 35 H 2.434947 0.269777 -2.403030 0
M  V30 36 H 0.437166 -1.671586 -1.551701 0
M  V30 37 H -0.585672 1.751800 1.681002 0
M  V30 38 H -4.108990 3.663944 3.516591 0
M  V30 39 H -3.215402 5.007207 5.309358 0
M  V30 40 H -1.264176 4.102636 6.608054 0
M  V30 41 H -0.336353 1.955186 6.055519 0
M  V30 42 H -0.863104 -0.244107 5.246473 0
M  V30 43 H -1.587162 -0.564410 3.677434 0
M  V30 44 H 0.020123 0.365250 3.855781 0
M  V30 45 H -3.715297 -1.117615 0.925828 0
M  V30 46 H -1.675958 -1.642704 -0.559611 0
M  V30 END ATOM
M  V30 BEGIN BOND
M  V30 1 1 1 2
M  V30 2 1 2 3
M  V30 3 2 3 4
M  V30 4 1 4 5
M  V30 5 2 5 6
M  V30 6 1 6 7
M  V30 7 2 7 8
M  V30 8 1 8 9
M  V30 9 1 9 10
M  V30 10 1 10 11
M  V30 11 2 11 12
M  V30 12 1 11 13
M  V30 13 2 13 14
M  V30 14 1 14 15
M  V30 15 1 15 16
M  V30 16 2 16 17
M  V30 17 1 16 18
M  V30 18 2 18 19
M  V30 19 1 19 20
M  V30 20 2 20 21
M  V30 21 1 21 22
M  V30 22 2 22 23
M  V30 23 1 23 24
M  V30 24 2 15 25
M  V30 25 1 25 26
M  V30 26 1 8 3
M  V30 27 1 26 13
M  V30 28 1 23 18
M  V30 29 1 1 27
M  V30 30 1 1 28
M  V30 31 1 1 29
M  V30 32 1 4 30
M  V30 33 1 5 31
M  V30 34 1 6 32
M  V30 35 1 7 33
M  V30 36 1 9 34
M  V30 37 1 9 35
M  V30 38 1 10 36
M  V30 39 1 14 37
M  V30 40 1 19 38
M  V30 41 1 20 39
M  V30 42 1 21 40
M  V30 43 1 22 41
M  V30 44 1 24 42
M  V30 45 1 24 43
M  V30 46 1 24 44
M  V30 47 1 25 45
M  V30 48 1 26 46
M  V30 END BOND
M  V30 END CTAB
M  END
>  <Dataset>  (384) 
ChEMBL_Kinases

>  <Ligand_Instance>  (384) 
nan

>  <PDB_ID>  (384) 
nan

>  <Standardized_SMILES>  (384) 
COc1ccccc1CNC(=O)c1cc(C(=O)c2ccccc2C)c[nH]1

>  <Name>  (384) 
nan

>  <Pocket>  (384) 
nan

>  <ATP_Site>  (384) 
nan

>  <Peripheral>  (384) 
nan

>  <Num_H_Atoms_ProtBoundConf>  (384) 
nan

>  <Num_Resolved_Atoms>  (384) 
nan

>  <Num_Not_Resolved_Atoms>  (384) 
nan

$$$$
CHEMBL1170263
     RDKit          3D

  0  0  0  0  0  0  0  0  0  0999 V3000
M  V30 BEGIN CTAB
M  V30 COUNTS 48 51 0 0 0
M  V30 BEGIN ATOM
M  V30 1 C 2.300763 -2.267343 2.232543 0
M  V30 2 C 2.803121 -2.910018 1.019288 0
M  V30 3 C 3.208871 -4.229906 0.911873 0
M  V30 4 N 3.597381 -4.458998 -0.354865 0
M  V30 5 C 3.464766 -3.341438 -1.091418 0
M  V30 6 N 3.692847 -3.015765 -2.374246 0
M  V30 7 C 3.424517 -1.744758 -2.770537 0
M  V30 8 N 2.945523 -0.813971 -1.935101 0
M  V30 9 C 2.699697 -1.102890 -0.621836 0
M  V30 10 N 2.222147 0.023748 0.108990 0
M  V30 11 C 2.697067 0.917412 1.146992 0
M  V30 12 C 1.865575 2.177327 0.982040 0
M  V30 13 C 0.512795 1.536518 0.647207 0 CFG=2
M  V30 14 N -0.332195 2.508392 -0.033490 0
M  V30 15 C -0.082316 1.132354 1.960599 0
M  V30 16 N -1.368036 0.494407 1.887220 0
M  V30 17 C -2.627656 0.920836 1.407821 0
M  V30 18 O -2.719781 2.073247 0.942686 0
M  V30 19 C -3.836429 0.114318 1.414096 0
M  V30 20 C -4.985665 0.683834 0.907652 0
M  V30 21 C -6.200297 -0.011579 0.869845 0
M  V30 22 C -6.295298 -1.299276 1.339792 0
M  V30 23 Cl -7.759471 -2.252069 1.338122 0
M  V30 24 C -5.154958 -1.875429 1.846552 0
M  V30 25 C -3.967696 -1.176311 1.876077 0
M  V30 26 C 0.887686 0.431587 -0.263166 0
M  V30 27 C 2.973000 -2.382317 -0.238837 0
M  V30 28 H 3.101633 -1.716692 2.797633 0
M  V30 29 H 1.961686 -3.050895 2.940132 0
M  V30 30 H 1.412697 -1.628064 2.063397 0
M  V30 31 H 3.198513 -4.934514 1.745092 0
M  V30 32 H 3.949140 -5.383005 -0.695866 0
M  V30 33 H 3.621175 -1.523738 -3.809010 0
M  V30 34 H 2.585270 0.537018 2.155571 0
M  V30 35 H 3.747075 1.237172 0.973233 0
M  V30 36 H 2.231405 2.824626 0.153124 0
M  V30 37 H 1.749178 2.717590 1.921824 0
M  V30 38 H -0.681892 2.047626 -0.902218 0
M  V30 39 H 0.213647 3.349057 -0.304123 0
M  V30 40 H -0.260144 2.096322 2.521666 0
M  V30 41 H 0.609409 0.564500 2.575362 0
M  V30 42 H -1.419240 -0.502921 2.260239 0
M  V30 43 H -5.037561 1.699422 0.505225 0
M  V30 44 H -7.092853 0.449305 0.469398 0
M  V30 45 H -5.146649 -2.889351 2.237415 0
M  V30 46 H -3.083381 -1.647463 2.278389 0
M  V30 47 H 0.170684 -0.420309 -0.248830 0
M  V30 48 H 0.948275 0.875192 -1.298824 0
M  V30 END ATOM
M  V30 BEGIN BOND
M  V30 1 1 1 2
M  V30 2 2 2 3
M  V30 3 1 3 4
M  V30 4 1 4 5
M  V30 5 2 5 6
M  V30 6 1 6 7
M  V30 7 2 7 8
M  V30 8 1 8 9
M  V30 9 1 9 10
M  V30 10 1 10 11
M  V30 11 1 11 12
M  V30 12 1 12 13
M  V30 13 1 13 14 CFG=3
M  V30 14 1 13 15
M  V30 15 1 15 16
M  V30 16 1 16 17
M  V30 17 2 17 18
M  V30 18 1 17 19
M  V30 19 2 19 20
M  V30 20 1 20 21
M  V30 21 2 21 22
M  V30 22 1 22 23
M  V30 23 1 22 24
M  V30 24 2 24 25
M  V30 25 1 13 26
M  V30 26 2 9 27
M  V30 27 1 27 2
M  V30 28 1 27 5
M  V30 29 1 26 10
M  V30 30 1 25 19
M  V30 31 1 1 28
M  V30 32 1 1 29
M  V30 33 1 1 30
M  V30 34 1 3 31
M  V30 35 1 4 32
M  V30 36 1 7 33
M  V30 37 1 11 34
M  V30 38 1 11 35
M  V30 39 1 12 36
M  V30 40 1 12 37
M  V30 41 1 14 38
M  V30 42 1 14 39
M  V30 43 1 15 40
M  V30 44 1 15 41
M  V30 45 1 16 42
M  V30 46 1 20 43
M  V30 47 1 21 44
M  V30 48 1 24 45
M  V30 49 1 25 46
M  V30 50 1 26 47
M  V30 51 1 26 48
M  V30 END BOND
M  V30 END CTAB
M  END
>  <Dataset>  (385) 
ChEMBL_Kinases

>  <Ligand_Instance>  (385) 
nan

>  <PDB_ID>  (385) 
nan

>  <Standardized_SMILES>  (385) 
Cc1c[nH]c2ncnc(N3CC[C@](N)(CNC(=O)c4ccc(Cl)cc4)C3)c12

>  <Name>  (385) 
nan

>  <Pocket>  (385) 
nan

>  <ATP_Site>  (385) 
nan

>  <Peripheral>  (385) 
nan

>  <Num_H_Atoms_ProtBoundConf>  (385) 
nan

>  <Num_Resolved_Atoms>  (385) 
nan

>  <Num_Not_Resolved_Atoms>  (385) 
nan

$$$$
CHEMBL1170262
     RDKit          3D

  0  0  0  0  0  0  0  0  0  0999 V3000
M  V30 BEGIN CTAB
M  V30 COUNTS 46 49 0 0 0
M  V30 BEGIN ATOM
M  V30 1 N -0.371588 -2.958280 4.287346 0
M  V30 2 C 0.718732 -2.595228 4.393109 0
M  V30 3 C 2.075628 -2.165107 4.538541 0
M  V30 4 C 2.974988 -2.796973 5.391970 0
M  V30 5 N 4.153135 -2.144627 5.283326 0
M  V30 6 C 4.094863 -1.121520 4.414081 0
M  V30 7 N 4.883504 -0.178738 3.919870 0
M  V30 8 C 4.467982 0.725803 3.016031 0
M  V30 9 N 3.199950 0.676460 2.592391 0
M  V30 10 C 2.321121 -0.246256 3.037059 0
M  V30 11 N 1.024341 -0.122954 2.468541 0
M  V30 12 C -0.395750 0.125969 2.785239 0
M  V30 13 C -0.876649 1.122303 1.713103 0
M  V30 14 C 0.326846 1.148238 0.759158 0 CFG=2
M  V30 15 N 1.297045 2.096338 1.303701 0
M  V30 16 C 0.009656 1.547644 -0.615799 0
M  V30 17 N -0.893569 0.793044 -1.395484 0
M  V30 18 C -0.910811 -0.520038 -1.923954 0
M  V30 19 O 0.088470 -1.247462 -1.697115 0
M  V30 20 C -1.970207 -1.129896 -2.710899 0
M  V30 21 C -1.797108 -2.427936 -3.135735 0
M  V30 22 C -2.778890 -3.068828 -3.894972 0
M  V30 23 C -3.956127 -2.446106 -4.254512 0
M  V30 24 Cl -5.197969 -3.216328 -5.198851 0
M  V30 25 C -4.134127 -1.146425 -3.831547 0
M  V30 26 C -3.153770 -0.531113 -3.083173 0
M  V30 27 C 0.824080 -0.258046 0.992482 0
M  V30 28 C 2.794223 -1.147710 3.959088 0
M  V30 29 H 2.786250 -3.646076 6.026465 0
M  V30 30 H 5.033184 -2.389725 5.809119 0
M  V30 31 H 5.176559 1.482136 2.647234 0
M  V30 32 H -0.524618 0.628611 3.758655 0
M  V30 33 H -0.995652 -0.813024 2.700986 0
M  V30 34 H -1.788119 0.745600 1.215136 0
M  V30 35 H -0.987494 2.139738 2.107199 0
M  V30 36 H 0.925558 2.663982 2.080397 0
M  V30 37 H 1.796180 2.624644 0.563191 0
M  V30 38 H 0.979135 1.610630 -1.218688 0
M  V30 39 H -0.337286 2.610941 -0.603946 0
M  V30 40 H -1.806589 1.265133 -1.693395 0
M  V30 41 H -0.926887 -3.025291 -2.924218 0
M  V30 42 H -2.645575 -4.085179 -4.228758 0
M  V30 43 H -5.032569 -0.596209 -4.076259 0
M  V30 44 H -3.326286 0.483334 -2.770290 0
M  V30 45 H 1.747779 -0.515665 0.484470 0
M  V30 46 H -0.003271 -0.996277 0.897609 0
M  V30 END ATOM
M  V30 BEGIN BOND
M  V30 1 3 1 2
M  V30 2 1 2 3
M  V30 3 2 3 4
M  V30 4 1 4 5
M  V30 5 1 5 6
M  V30 6 2 6 7
M  V30 7 1 7 8
M  V30 8 2 8 9
M  V30 9 1 9 10
M  V30 10 1 10 11
M  V30 11 1 11 12
M  V30 12 1 12 13
M  V30 13 1 13 14
M  V30 14 1 14 15 CFG=1
M  V30 15 1 14 16
M  V30 16 1 16 17
M  V30 17 1 17 18
M  V30 18 2 18 19
M  V30 19 1 18 20
M  V30 20 2 20 21
M  V30 21 1 21 22
M  V30 22 2 22 23
M  V30 23 1 23 24
M  V30 24 1 23 25
M  V30 25 2 25 26
M  V30 26 1 14 27
M  V30 27 2 10 28
M  V30 28 1 28 3
M  V30 29 1 28 6
M  V30 30 1 27 11
M  V30 31 1 26 20
M  V30 32 1 4 29
M  V30 33 1 5 30
M  V30 34 1 8 31
M  V30 35 1 12 32
M  V30 36 1 12 33
M  V30 37 1 13 34
M  V30 38 1 13 35
M  V30 39 1 15 36
M  V30 40 1 15 37
M  V30 41 1 16 38
M  V30 42 1 16 39
M  V30 43 1 17 40
M  V30 44 1 21 41
M  V30 45 1 22 42
M  V30 46 1 25 43
M  V30 47 1 26 44
M  V30 48 1 27 45
M  V30 49 1 27 46
M  V30 END BOND
M  V30 END CTAB
M  END
>  <Dataset>  (386) 
ChEMBL_Kinases

>  <Ligand_Instance>  (386) 
nan

>  <PDB_ID>  (386) 
nan

>  <Standardized_SMILES>  (386) 
N#Cc1c[nH]c2ncnc(N3CC[C@](N)(CNC(=O)c4ccc(Cl)cc4)C3)c12

>  <Name>  (386) 
nan

>  <Pocket>  (386) 
nan

>  <ATP_Site>  (386) 
nan

>  <Peripheral>  (386) 
nan

>  <Num_H_Atoms_ProtBoundConf>  (386) 
nan

>  <Num_Resolved_Atoms>  (386) 
nan

>  <Num_Not_Resolved_Atoms>  (386) 
nan

$$$$
CHEMBL1190913
     RDKit          3D

  0  0  0  0  0  0  0  0  0  0999 V3000
M  V30 BEGIN CTAB
M  V30 COUNTS 37 40 0 0 0
M  V30 BEGIN ATOM
M  V30 1 C 1.037774 -5.373422 3.171201 0
M  V30 2 C 0.764054 -4.778961 4.393485 0
M  V30 3 N 0.482903 -3.465987 4.462027 0
M  V30 4 C 0.481359 -2.770982 3.300102 0
M  V30 5 C 0.749846 -3.336373 2.071262 0
M  V30 6 C 0.721659 -2.494641 0.878083 0
M  V30 7 N 0.437952 -1.182899 0.969618 0
M  V30 8 C 0.394158 -0.356504 -0.070700 0
M  V30 9 N 0.087045 1.022578 0.097651 0
M  V30 10 C -0.179698 1.515779 1.434414 0
M  V30 11 C -0.482564 2.917637 1.531051 0
M  V30 12 C -1.801113 3.463767 1.444104 0
M  V30 13 C -2.007110 4.782471 1.551483 0
M  V30 14 C -0.885803 5.672607 1.758008 0
M  V30 15 S 0.557694 4.402156 1.787059 0
M  V30 16 C 0.665237 -0.940614 -1.289228 0
M  V30 17 C 0.646032 -0.173596 -2.429324 0
M  V30 18 C 0.910024 -0.708624 -3.673167 0
M  V30 19 C 1.206926 -2.039205 -3.840196 0
M  V30 20 C 1.229541 -2.826950 -2.692827 0
M  V30 21 C 0.963198 -2.274451 -1.459387 0
M  V30 22 N 0.981240 -3.027424 -0.333644 0
M  V30 23 C 1.041346 -4.676922 1.965126 0
M  V30 24 H 1.259150 -6.429014 3.154006 0
M  V30 25 H 0.787667 -5.420091 5.284822 0
M  V30 26 H 0.247776 -1.707852 3.403840 0
M  V30 27 H 0.024619 1.747456 -0.619324 0
M  V30 28 H 0.619922 1.186605 2.167893 0
M  V30 29 H -1.078700 0.946891 1.798814 0
M  V30 30 H -2.761996 3.004702 1.296703 0
M  V30 31 H -2.726445 5.565191 1.552372 0
M  V30 32 H -0.238952 6.593513 1.917074 0
M  V30 33 H 0.423072 0.877426 -2.391470 0
M  V30 34 H 0.902767 -0.132962 -4.587047 0
M  V30 35 H 1.421611 -2.511292 -4.789228 0
M  V30 36 H 1.462789 -3.881843 -2.807841 0
M  V30 37 H 1.252671 -5.144595 1.036154 0
M  V30 END ATOM
M  V30 BEGIN BOND
M  V30 1 2 1 2
M  V30 2 1 2 3
M  V30 3 2 3 4
M  V30 4 1 4 5
M  V30 5 1 5 6
M  V30 6 2 6 7
M  V30 7 1 7 8
M  V30 8 1 8 9
M  V30 9 1 9 10
M  V30 10 1 10 11
M  V30 11 2 11 12
M  V30 12 1 12 13
M  V30 13 2 13 14
M  V30 14 1 14 15
M  V30 15 2 8 16
M  V30 16 1 16 17
M  V30 17 2 17 18
M  V30 18 1 18 19
M  V30 19 2 19 20
M  V30 20 1 20 21
M  V30 21 2 21 22
M  V30 22 2 5 23
M  V30 23 1 23 1
M  V30 24 1 22 6
M  V30 25 1 15 11
M  V30 26 1 21 16
M  V30 27 1 1 24
M  V30 28 1 2 25
M  V30 29 1 4 26
M  V30 30 1 9 27
M  V30 31 1 10 28
M  V30 32 1 10 29
M  V30 33 1 12 30
M  V30 34 1 13 31
M  V30 35 1 14 32
M  V30 36 1 17 33
M  V30 37 1 18 34
M  V30 38 1 19 35
M  V30 39 1 20 36
M  V30 40 1 23 37
M  V30 END BOND
M  V30 END CTAB
M  END
>  <Dataset>  (387) 
ChEMBL_Kinases

>  <Ligand_Instance>  (387) 
nan

>  <PDB_ID>  (387) 
nan

>  <Standardized_SMILES>  (387) 
c1cncc(-c2nc(NCc3cccs3)c3ccccc3n2)c1

>  <Name>  (387) 
nan

>  <Pocket>  (387) 
nan

>  <ATP_Site>  (387) 
nan

>  <Peripheral>  (387) 
nan

>  <Num_H_Atoms_ProtBoundConf>  (387) 
nan

>  <Num_Resolved_Atoms>  (387) 
nan

>  <Num_Not_Resolved_Atoms>  (387) 
nan

$$$$
CHEMBL1164843
     RDKit          3D

  0  0  0  0  0  0  0  0  0  0999 V3000
M  V30 BEGIN CTAB
M  V30 COUNTS 52 56 0 0 0
M  V30 BEGIN ATOM
M  V30 1 C -1.632563 -2.706008 4.939986 0
M  V30 2 C -0.264656 -2.427099 4.384916 0
M  V30 3 C 0.827283 -2.922671 5.059698 0
M  V30 4 C 2.120592 -2.705276 4.606867 0
M  V30 5 C 2.236417 -1.961914 3.439491 0
M  V30 6 C 1.131308 -1.474050 2.777859 0
M  V30 7 C 1.329796 -0.712300 1.574243 0
M  V30 8 N 1.967688 0.443515 1.323447 0
M  V30 9 N 1.870258 0.742379 0.030419 0
M  V30 10 C 2.412701 1.904748 -0.685435 0
M  V30 11 C 1.410402 3.000383 -0.671310 0
M  V30 12 C 1.418695 3.916142 0.358874 0
M  V30 13 C 0.478394 4.916424 0.341851 0
M  V30 14 C -0.470651 5.052983 -0.647957 0
M  V30 15 C -0.495557 4.140875 -1.694076 0
M  V30 16 C -1.436410 4.138920 -2.828301 0
M  V30 17 N -2.375346 5.202105 -2.774156 0
M  V30 18 O -1.467916 3.327738 -3.769441 0
M  V30 19 C 0.469057 3.129918 -1.659671 0
M  V30 20 C 1.155650 -0.231953 -0.586151 0
M  V30 21 C 0.795993 -1.178364 0.380615 0
M  V30 22 C 0.013912 -2.362838 0.037141 0
M  V30 23 C -1.241611 -2.113835 -0.479708 0
M  V30 24 C -2.089002 -3.165923 -0.848149 0
M  V30 25 C -1.587500 -4.453068 -0.660761 0
M  V30 26 N -2.356203 -5.525404 -0.996886 0
M  V30 27 C -1.891002 -6.784910 -0.824147 0
M  V30 28 C -0.643113 -7.080926 -0.311225 0
M  V30 29 C 0.123627 -5.984966 0.024463 0
M  V30 30 C -0.330300 -4.692121 -0.143068 0
M  V30 31 N 0.457795 -3.644039 0.200703 0
M  V30 32 N -0.107920 -1.707531 3.250962 0
M  V30 33 H -1.647102 -3.743656 5.353852 0
M  V30 34 H -1.873434 -2.033060 5.772896 0
M  V30 35 H -2.319294 -2.680372 4.093089 0
M  V30 36 H 0.697909 -3.503129 5.974732 0
M  V30 37 H 2.997353 -3.085740 5.121505 0
M  V30 38 H 3.265929 -1.796153 3.090376 0
M  V30 39 H 3.338620 2.200137 -0.191446 0
M  V30 40 H 2.569442 1.634130 -1.749848 0
M  V30 41 H 2.126892 3.883428 1.174544 0
M  V30 42 H 0.453350 5.652689 1.131898 0
M  V30 43 H -1.227822 5.816895 -0.707895 0
M  V30 44 H -2.865868 5.887997 -3.373238 0
M  V30 45 H -2.904028 5.644472 -1.992002 0
M  V30 46 H 0.475158 2.402392 -2.462945 0
M  V30 47 H 0.919599 -0.247743 -1.646837 0
M  V30 48 H -1.625179 -1.115583 -0.622781 0
M  V30 49 H -3.078568 -3.073438 -1.257162 0
M  V30 50 H -2.568930 -7.573813 -1.118053 0
M  V30 51 H -0.327478 -8.098890 -0.196630 0
M  V30 52 H 1.127975 -6.148038 0.438541 0
M  V30 END ATOM
M  V30 BEGIN BOND
M  V30 1 1 1 2
M  V30 2 2 2 3
M  V30 3 1 3 4
M  V30 4 2 4 5
M  V30 5 1 5 6
M  V30 6 1 6 7
M  V30 7 2 7 8
M  V30 8 1 8 9
M  V30 9 1 9 10
M  V30 10 1 10 11
M  V30 11 2 11 12
M  V30 12 1 12 13
M  V30 13 2 13 14
M  V30 14 1 14 15
M  V30 15 1 15 16
M  V30 16 1 16 17
M  V30 17 2 16 18
M  V30 18 2 15 19
M  V30 19 1 9 20
M  V30 20 2 20 21
M  V30 21 1 21 22
M  V30 22 2 22 23
M  V30 23 1 23 24
M  V30 24 2 24 25
M  V30 25 1 25 26
M  V30 26 2 26 27
M  V30 27 1 27 28
M  V30 28 2 28 29
M  V30 29 1 29 30
M  V30 30 2 30 31
M  V30 31 2 6 32
M  V30 32 1 32 2
M  V30 33 1 21 7
M  V30 34 1 31 22
M  V30 35 1 19 11
M  V30 36 1 30 25
M  V30 37 1 1 33
M  V30 38 1 1 34
M  V30 39 1 1 35
M  V30 40 1 3 36
M  V30 41 1 4 37
M  V30 42 1 5 38
M  V30 43 1 10 39
M  V30 44 1 10 40
M  V30 45 1 12 41
M  V30 46 1 13 42
M  V30 47 1 14 43
M  V30 48 1 17 44
M  V30 49 1 17 45
M  V30 50 1 19 46
M  V30 51 1 20 47
M  V30 52 1 23 48
M  V30 53 1 24 49
M  V30 54 1 27 50
M  V30 55 1 28 51
M  V30 56 1 29 52
M  V30 END BOND
M  V30 END CTAB
M  END
>  <Dataset>  (388) 
ChEMBL_Kinases

>  <Ligand_Instance>  (388) 
nan

>  <PDB_ID>  (388) 
nan

>  <Standardized_SMILES>  (388) 
Cc1cccc(-c2nn(Cc3cccc(C(N)=O)c3)cc2-c2ccc3ncccc3n2)n1

>  <Name>  (388) 
nan

>  <Pocket>  (388) 
nan

>  <ATP_Site>  (388) 
nan

>  <Peripheral>  (388) 
nan

>  <Num_H_Atoms_ProtBoundConf>  (388) 
nan

>  <Num_Resolved_Atoms>  (388) 
nan

>  <Num_Not_Resolved_Atoms>  (388) 
nan

$$$$
CHEMBL1164957
     RDKit          3D

  0  0  0  0  0  0  0  0  0  0999 V3000
M  V30 BEGIN CTAB
M  V30 COUNTS 53 57 0 0 0
M  V30 BEGIN ATOM
M  V30 1 C 3.946321 -4.519182 2.274283 0
M  V30 2 C 3.039337 -3.396749 2.705774 0
M  V30 3 C 2.550266 -3.323911 3.992505 0
M  V30 4 C 1.719277 -2.303615 4.403323 0
M  V30 5 C 1.363980 -1.321754 3.498964 0
M  V30 6 C 1.862505 -1.406947 2.209067 0
M  V30 7 C 1.528943 -0.405005 1.200114 0
M  V30 8 N 1.699443 0.919511 1.049457 0
M  V30 9 C 1.166861 1.311561 -0.122898 0
M  V30 10 C 1.169752 2.712759 -0.623277 0
M  V30 11 C -0.052906 3.425048 -0.182319 0
M  V30 12 C -0.126258 4.121429 1.006264 0
M  V30 13 C -1.349749 4.723916 1.250332 0
M  V30 14 C -2.421632 4.654850 0.403160 0
M  V30 15 C -2.317035 3.951411 -0.777016 0
M  V30 16 C -3.427978 3.847026 -1.715088 0
M  V30 17 N -4.674759 4.473502 -1.441507 0
M  V30 18 O -3.499983 3.258105 -2.814029 0
M  V30 19 C -1.118517 3.333570 -1.065126 0
M  V30 20 N 0.648755 0.218873 -0.728542 0
M  V30 21 C 0.855091 -0.868601 0.064875 0
M  V30 22 C 0.357594 -2.152334 -0.430538 0
M  V30 23 C 0.773833 -2.763956 -1.597247 0
M  V30 24 C 0.225779 -3.979308 -1.956309 0
M  V30 25 C -0.736185 -4.588265 -1.156774 0
M  V30 26 N -1.257543 -5.783519 -1.534815 0
M  V30 27 C -2.180189 -6.340434 -0.742482 0
M  V30 28 C -2.619139 -5.751359 0.435225 0
M  V30 29 C -2.094283 -4.532760 0.830224 0
M  V30 30 C -1.130228 -3.952147 0.001344 0
M  V30 31 C -0.598743 -2.723237 0.396726 0
M  V30 32 N 2.676199 -2.424892 1.843748 0
M  V30 33 H 4.634549 -4.200920 1.466137 0
M  V30 34 H 3.320627 -5.334994 1.806221 0
M  V30 35 H 4.447234 -4.970690 3.136818 0
M  V30 36 H 2.828957 -4.097753 4.710713 0
M  V30 37 H 1.317227 -2.216747 5.408243 0
M  V30 38 H 0.711177 -0.508778 3.798043 0
M  V30 39 H 2.183099 1.440700 1.795781 0
M  V30 40 H 2.074179 3.226056 -0.201172 0
M  V30 41 H 1.279166 2.671380 -1.719269 0
M  V30 42 H 0.728114 4.167163 1.665246 0
M  V30 43 H -1.476205 5.286870 2.165723 0
M  V30 44 H -3.369747 5.152402 0.649395 0
M  V30 45 H -5.363245 4.792859 -0.729546 0
M  V30 46 H -5.363408 4.793895 -0.750024 0
M  V30 47 H -1.062776 2.786447 -1.999878 0
M  V30 48 H 1.521623 -2.227504 -2.159320 0
M  V30 49 H 0.587087 -4.409043 -2.874094 0
M  V30 50 H -2.682066 -7.290068 -0.918102 0
M  V30 51 H -3.357832 -6.168361 1.097163 0
M  V30 52 H -2.400904 -4.036755 1.732471 0
M  V30 53 H -0.949598 -2.283728 1.309637 0
M  V30 END ATOM
M  V30 BEGIN BOND
M  V30 1 1 1 2
M  V30 2 2 2 3
M  V30 3 1 3 4
M  V30 4 2 4 5
M  V30 5 1 5 6
M  V30 6 1 6 7
M  V30 7 1 7 8
M  V30 8 1 8 9
M  V30 9 1 9 10
M  V30 10 1 10 11
M  V30 11 2 11 12
M  V30 12 1 12 13
M  V30 13 2 13 14
M  V30 14 1 14 15
M  V30 15 1 15 16
M  V30 16 1 16 17
M  V30 17 2 16 18
M  V30 18 2 15 19
M  V30 19 2 9 20
M  V30 20 1 20 21
M  V30 21 1 21 22
M  V30 22 2 22 23
M  V30 23 1 23 24
M  V30 24 2 24 25
M  V30 25 1 25 26
M  V30 26 2 26 27
M  V30 27 1 27 28
M  V30 28 2 28 29
M  V30 29 1 29 30
M  V30 30 2 30 31
M  V30 31 2 6 32
M  V30 32 1 32 2
M  V30 33 2 21 7
M  V30 34 1 31 22
M  V30 35 1 19 11
M  V30 36 1 30 25
M  V30 37 1 1 33
M  V30 38 1 1 34
M  V30 39 1 1 35
M  V30 40 1 3 36
M  V30 41 1 4 37
M  V30 42 1 5 38
M  V30 43 1 8 39
M  V30 44 1 10 40
M  V30 45 1 10 41
M  V30 46 1 12 42
M  V30 47 1 13 43
M  V30 48 1 14 44
M  V30 49 1 17 45
M  V30 50 1 17 46
M  V30 51 1 19 47
M  V30 52 1 23 48
M  V30 53 1 24 49
M  V30 54 1 27 50
M  V30 55 1 28 51
M  V30 56 1 29 52
M  V30 57 1 31 53
M  V30 END BOND
M  V30 END CTAB
M  END
>  <Dataset>  (389) 
ChEMBL_Kinases

>  <Ligand_Instance>  (389) 
nan

>  <PDB_ID>  (389) 
nan

>  <Standardized_SMILES>  (389) 
Cc1cccc(-c2[nH]c(Cc3cccc(C(N)=O)c3)nc2-c2ccc3ncccc3c2)n1

>  <Name>  (389) 
nan

>  <Pocket>  (389) 
nan

>  <ATP_Site>  (389) 
nan

>  <Peripheral>  (389) 
nan

>  <Num_H_Atoms_ProtBoundConf>  (389) 
nan

>  <Num_Resolved_Atoms>  (389) 
nan

>  <Num_Not_Resolved_Atoms>  (389) 
nan

$$$$
CHEMBL1164971
     RDKit          3D

  0  0  0  0  0  0  0  0  0  0999 V3000
M  V30 BEGIN CTAB
M  V30 COUNTS 50 54 0 0 0
M  V30 BEGIN ATOM
M  V30 1 C 0.995913 -2.174613 4.679715 0
M  V30 2 C 1.720078 -2.246551 3.369320 0
M  V30 3 C 2.817472 -3.072939 3.216060 0
M  V30 4 C 3.475118 -3.132226 2.010161 0
M  V30 5 C 3.067319 -2.382771 0.936671 0
M  V30 6 C 1.963041 -1.556627 1.104496 0
M  V30 7 C 1.308499 -0.652181 0.142582 0
M  V30 8 C 1.993102 0.413889 -0.436949 0
M  V30 9 N 1.067892 0.977348 -1.234300 0
M  V30 10 C 1.227701 2.152476 -2.099804 0
M  V30 11 C 0.871341 3.363460 -1.309358 0
M  V30 12 C 1.795707 4.072022 -0.569799 0
M  V30 13 C 1.504960 5.197720 0.174892 0
M  V30 14 C 0.185216 5.612311 0.152451 0
M  V30 15 C -0.783478 4.929870 -0.579148 0
M  V30 16 C -2.160937 5.402387 -0.574253 0
M  V30 17 N -3.266126 5.773776 -0.552833 0
M  V30 18 C -0.455362 3.804621 -1.314335 0
M  V30 19 N -0.107020 0.338812 -1.178899 0
M  V30 20 C 0.007347 -0.703206 -0.313548 0
M  V30 21 C -1.014829 -1.689823 0.074889 0
M  V30 22 C -2.145620 -1.207055 0.696389 0
M  V30 23 C -3.107287 -2.133857 1.061838 0
M  V30 24 C -2.871887 -3.466868 0.782135 0
M  V30 25 N -3.825384 -4.370500 1.146163 0
M  V30 26 C -3.656993 -5.678973 0.902710 0
M  V30 27 C -2.517241 -6.144783 0.279010 0
M  V30 28 C -1.507342 -5.261142 -0.115572 0
M  V30 29 C -1.725050 -3.910683 0.157484 0
M  V30 30 C -0.734882 -3.009659 -0.225210 0
M  V30 31 N 1.327461 -1.508204 2.292618 0
M  V30 32 H 1.690741 -2.183483 5.539626 0
M  V30 33 H 0.375692 -1.249930 4.663538 0
M  V30 34 H 0.316557 -3.065425 4.674804 0
M  V30 35 H 3.177690 -3.686290 4.040467 0
M  V30 36 H 4.334290 -3.750105 1.815667 0
M  V30 37 H 3.463747 -2.312282 -0.062964 0
M  V30 38 H 3.012598 0.749048 -0.312413 0
M  V30 39 H 2.312225 2.213126 -2.374313 0
M  V30 40 H 0.568289 2.113372 -2.966212 0
M  V30 41 H 2.825877 3.714208 -0.576814 0
M  V30 42 H 2.261679 5.724034 0.741127 0
M  V30 43 H -0.063367 6.509520 0.741850 0
M  V30 44 H -1.204276 3.270640 -1.884565 0
M  V30 45 H -2.282552 -0.158847 0.892540 0
M  V30 46 H -3.993794 -1.778595 1.546413 0
M  V30 47 H -4.454172 -6.340689 1.218582 0
M  V30 48 H -2.439055 -7.208438 0.109969 0
M  V30 49 H -0.613420 -5.623426 -0.603948 0
M  V30 50 H 0.164042 -3.313902 -0.709664 0
M  V30 END ATOM
M  V30 BEGIN BOND
M  V30 1 1 1 2
M  V30 2 2 2 3
M  V30 3 1 3 4
M  V30 4 2 4 5
M  V30 5 1 5 6
M  V30 6 1 6 7
M  V30 7 2 7 8
M  V30 8 1 8 9
M  V30 9 1 9 10
M  V30 10 1 10 11
M  V30 11 2 11 12
M  V30 12 1 12 13
M  V30 13 2 13 14
M  V30 14 1 14 15
M  V30 15 1 15 16
M  V30 16 3 16 17
M  V30 17 2 15 18
M  V30 18 1 9 19
M  V30 19 2 19 20
M  V30 20 1 20 21
M  V30 21 2 21 22
M  V30 22 1 22 23
M  V30 23 2 23 24
M  V30 24 1 24 25
M  V30 25 2 25 26
M  V30 26 1 26 27
M  V30 27 2 27 28
M  V30 28 1 28 29
M  V30 29 2 29 30
M  V30 30 2 6 31
M  V30 31 1 31 2
M  V30 32 1 20 7
M  V30 33 1 30 21
M  V30 34 1 18 11
M  V30 35 1 29 24
M  V30 36 1 1 32
M  V30 37 1 1 33
M  V30 38 1 1 34
M  V30 39 1 3 35
M  V30 40 1 4 36
M  V30 41 1 5 37
M  V30 42 1 8 38
M  V30 43 1 10 39
M  V30 44 1 10 40
M  V30 45 1 12 41
M  V30 46 1 13 42
M  V30 47 1 14 43
M  V30 48 1 18 44
M  V30 49 1 22 45
M  V30 50 1 23 46
M  V30 51 1 26 47
M  V30 52 1 27 48
M  V30 53 1 28 49
M  V30 54 1 30 50
M  V30 END BOND
M  V30 END CTAB
M  END
>  <Dataset>  (390) 
ChEMBL_Kinases

>  <Ligand_Instance>  (390) 
nan

>  <PDB_ID>  (390) 
nan

>  <Standardized_SMILES>  (390) 
Cc1cccc(-c2cn(Cc3cccc(C#N)c3)nc2-c2ccc3ncccc3c2)n1

>  <Name>  (390) 
nan

>  <Pocket>  (390) 
nan

>  <ATP_Site>  (390) 
nan

>  <Peripheral>  (390) 
nan

>  <Num_H_Atoms_ProtBoundConf>  (390) 
nan

>  <Num_Resolved_Atoms>  (390) 
nan

>  <Num_Not_Resolved_Atoms>  (390) 
nan

$$$$
CHEMBL1165041
     RDKit          3D

  0  0  0  0  0  0  0  0  0  0999 V3000
M  V30 BEGIN CTAB
M  V30 COUNTS 52 56 0 0 0
M  V30 BEGIN ATOM
M  V30 1 C 3.422732 -4.527899 2.835454 0
M  V30 2 C 2.748523 -3.234124 3.188147 0
M  V30 3 C 2.502518 -2.927624 4.524803 0
M  V30 4 C 1.876519 -1.729937 4.866785 0
M  V30 5 C 1.493914 -0.832484 3.864313 0
M  V30 6 C 1.756702 -1.175817 2.553115 0
M  V30 7 C 1.422924 -0.358233 1.390807 0
M  V30 8 N 1.794038 0.882671 1.029511 0
M  V30 9 C 1.215349 1.202149 -0.139156 0
M  V30 10 C 1.305393 2.445834 -0.945453 0
M  V30 11 C 0.221586 3.391524 -0.575720 0
M  V30 12 C 0.316103 4.364860 0.390255 0
M  V30 13 C -0.801678 5.168975 0.609993 0
M  V30 14 C -1.955147 4.982308 -0.124255 0
M  V30 15 C -2.062138 4.002815 -1.102030 0
M  V30 16 C -3.318353 3.874884 -1.830178 0
M  V30 17 N -3.322664 2.832874 -2.794085 0
M  V30 18 O -4.253619 4.664975 -1.554854 0
M  V30 19 C -0.941866 3.223159 -1.297525 0
M  V30 20 N 0.470384 0.125151 -0.500215 0
M  V30 21 C 0.576697 -0.853026 0.420949 0
M  V30 22 C -0.153303 -2.096434 0.213486 0
M  V30 23 C -1.539066 -1.916162 0.163241 0
M  V30 24 C -2.392926 -2.982925 -0.027339 0
M  V30 25 C -1.833658 -4.236777 -0.167164 0
M  V30 26 N -2.590508 -5.353028 -0.359371 0
M  V30 27 C -1.997154 -6.553242 -0.490111 0
M  V30 28 C -0.635975 -6.766797 -0.445663 0
M  V30 29 C 0.176338 -5.647902 -0.250129 0
M  V30 30 C -0.458182 -4.411289 -0.116662 0
M  V30 31 N 0.362489 -3.347846 0.071665 0
M  V30 32 N 2.363488 -2.343264 2.269692 0
M  V30 33 H 4.046651 -4.422890 1.904817 0
M  V30 34 H 2.662053 -5.310370 2.565206 0
M  V30 35 H 3.971409 -4.906174 3.701684 0
M  V30 36 H 2.794917 -3.618768 5.328226 0
M  V30 37 H 1.662055 -1.444830 5.901931 0
M  V30 38 H 1.004761 0.116647 4.035471 0
M  V30 39 H 2.425018 1.478905 1.578192 0
M  V30 40 H 2.299542 2.896769 -0.694104 0
M  V30 41 H 1.254385 2.151132 -2.011755 0
M  V30 42 H 1.244801 4.455942 0.925441 0
M  V30 43 H -0.735883 5.945280 1.375824 0
M  V30 44 H -2.803400 5.623203 0.071665 0
M  V30 45 H -3.935229 2.579502 -3.624393 0
M  V30 46 H -4.085914 2.897797 -3.477884 0
M  V30 47 H -1.060631 2.468441 -2.068481 0
M  V30 48 H -2.024689 -0.935742 0.269786 0
M  V30 49 H -3.467306 -2.853578 -0.067540 0
M  V30 50 H -2.686854 -7.386669 -0.640280 0
M  V30 51 H -0.217903 -7.757108 -0.557245 0
M  V30 52 H 1.247095 -5.741401 -0.205181 0
M  V30 END ATOM
M  V30 BEGIN BOND
M  V30 1 1 1 2
M  V30 2 2 2 3
M  V30 3 1 3 4
M  V30 4 2 4 5
M  V30 5 1 5 6
M  V30 6 1 6 7
M  V30 7 1 7 8
M  V30 8 1 8 9
M  V30 9 1 9 10
M  V30 10 1 10 11
M  V30 11 2 11 12
M  V30 12 1 12 13
M  V30 13 2 13 14
M  V30 14 1 14 15
M  V30 15 1 15 16
M  V30 16 1 16 17
M  V30 17 2 16 18
M  V30 18 2 15 19
M  V30 19 2 9 20
M  V30 20 1 20 21
M  V30 21 1 21 22
M  V30 22 2 22 23
M  V30 23 1 23 24
M  V30 24 2 24 25
M  V30 25 1 25 26
M  V30 26 2 26 27
M  V30 27 1 27 28
M  V30 28 2 28 29
M  V30 29 1 29 30
M  V30 30 2 30 31
M  V30 31 2 6 32
M  V30 32 1 32 2
M  V30 33 2 21 7
M  V30 34 1 31 22
M  V30 35 1 19 11
M  V30 36 1 30 25
M  V30 37 1 1 33
M  V30 38 1 1 34
M  V30 39 1 1 35
M  V30 40 1 3 36
M  V30 41 1 4 37
M  V30 42 1 5 38
M  V30 43 1 8 39
M  V30 44 1 10 40
M  V30 45 1 10 41
M  V30 46 1 12 42
M  V30 47 1 13 43
M  V30 48 1 14 44
M  V30 49 1 17 45
M  V30 50 1 17 46
M  V30 51 1 19 47
M  V30 52 1 23 48
M  V30 53 1 24 49
M  V30 54 1 27 50
M  V30 55 1 28 51
M  V30 56 1 29 52
M  V30 END BOND
M  V30 END CTAB
M  END
>  <Dataset>  (391) 
ChEMBL_Kinases

>  <Ligand_Instance>  (391) 
nan

>  <PDB_ID>  (391) 
nan

>  <Standardized_SMILES>  (391) 
Cc1cccc(-c2[nH]c(Cc3cccc(C(N)=O)c3)nc2-c2ccc3ncccc3n2)n1

>  <Name>  (391) 
nan

>  <Pocket>  (391) 
nan

>  <ATP_Site>  (391) 
nan

>  <Peripheral>  (391) 
nan

>  <Num_H_Atoms_ProtBoundConf>  (391) 
nan

>  <Num_Resolved_Atoms>  (391) 
nan

>  <Num_Not_Resolved_Atoms>  (391) 
nan

$$$$
CHEMBL1165063
     RDKit          3D

  0  0  0  0  0  0  0  0  0  0999 V3000
M  V30 BEGIN CTAB
M  V30 COUNTS 53 57 0 0 0
M  V30 BEGIN ATOM
M  V30 1 C 5.936007 -1.321690 2.102599 0
M  V30 2 C 4.471824 -1.368680 2.331555 0
M  V30 3 C 3.899121 -1.979484 3.429396 0
M  V30 4 C 2.509541 -1.990932 3.591075 0
M  V30 5 C 1.810325 -1.354192 2.579453 0
M  V30 6 C 2.366126 -0.737213 1.472974 0
M  V30 7 C 1.464738 -0.115945 0.510341 0
M  V30 8 C 1.290558 1.202317 0.073608 0
M  V30 9 N 0.300984 1.192212 -0.837404 0
M  V30 10 C -0.182523 2.381192 -1.532327 0
M  V30 11 C -1.294156 2.982345 -0.718109 0
M  V30 12 C -0.844184 3.912898 0.205543 0
M  V30 13 C -1.773259 4.539902 1.020076 0
M  V30 14 C -3.135661 4.238900 0.910874 0
M  V30 15 C -3.476411 3.299593 -0.039243 0
M  V30 16 C -4.905184 3.018076 -0.116939 0
M  V30 17 N -5.583098 2.113105 -0.979939 0
M  V30 18 O -5.733205 3.592671 0.628174 0
M  V30 19 C -2.616322 2.638844 -0.878933 0
M  V30 20 N -0.141141 -0.050873 -0.985243 0
M  V30 21 C 0.537234 -0.902951 -0.180867 0
M  V30 22 C 0.275477 -2.356074 -0.118001 0
M  V30 23 C 1.271086 -3.238751 -0.488417 0
M  V30 24 C 1.184460 -4.614447 -0.485727 0
M  V30 25 C -0.048633 -5.120431 -0.059518 0
M  V30 26 N -0.270046 -6.440547 -0.008211 0
M  V30 27 C -1.435812 -6.992826 0.392992 0
M  V30 28 C -2.499775 -6.177970 0.786218 0
M  V30 29 C -2.281884 -4.797959 0.737403 0
M  V30 30 C -1.077182 -4.279117 0.321720 0
M  V30 31 C -0.921870 -2.905569 0.294707 0
M  V30 32 N 3.729501 -0.760977 1.373671 0
M  V30 33 H 6.257742 -1.972272 1.267277 0
M  V30 34 H 6.510043 -1.643307 2.999111 0
M  V30 35 H 6.297519 -0.272337 1.917340 0
M  V30 36 H 4.524992 -2.451768 4.169036 0
M  V30 37 H 2.017253 -2.450575 4.423269 0
M  V30 38 H 0.715538 -1.357546 2.696893 0
M  V30 39 H 1.895324 1.994184 0.465819 0
M  V30 40 H 0.613076 3.104557 -1.729363 0
M  V30 41 H -0.653162 2.018954 -2.478171 0
M  V30 42 H 0.182467 4.192461 0.344125 0
M  V30 43 H -1.458266 5.270710 1.751650 0
M  V30 44 H -3.829031 4.734556 1.548210 0
M  V30 45 H -5.849241 1.144585 -0.647849 0
M  V30 46 H -5.874895 2.292934 -1.974903 0
M  V30 47 H -2.893317 1.918905 -1.604846 0
M  V30 48 H 2.226168 -2.824288 -0.818015 0
M  V30 49 H 1.985278 -5.254659 -0.782224 0
M  V30 50 H -1.616050 -8.063550 0.434560 0
M  V30 51 H -3.459711 -6.601724 1.117400 0
M  V30 52 H -3.116046 -4.169609 1.045326 0
M  V30 53 H -1.716251 -2.229620 0.589457 0
M  V30 END ATOM
M  V30 BEGIN BOND
M  V30 1 1 1 2
M  V30 2 2 2 3
M  V30 3 1 3 4
M  V30 4 2 4 5
M  V30 5 1 5 6
M  V30 6 1 6 7
M  V30 7 2 7 8
M  V30 8 1 8 9
M  V30 9 1 9 10
M  V30 10 1 10 11
M  V30 11 2 11 12
M  V30 12 1 12 13
M  V30 13 2 13 14
M  V30 14 1 14 15
M  V30 15 1 15 16
M  V30 16 1 16 17
M  V30 17 2 16 18
M  V30 18 2 15 19
M  V30 19 1 9 20
M  V30 20 2 20 21
M  V30 21 1 21 22
M  V30 22 2 22 23
M  V30 23 1 23 24
M  V30 24 2 24 25
M  V30 25 1 25 26
M  V30 26 2 26 27
M  V30 27 1 27 28
M  V30 28 2 28 29
M  V30 29 1 29 30
M  V30 30 2 30 31
M  V30 31 2 6 32
M  V30 32 1 32 2
M  V30 33 1 21 7
M  V30 34 1 31 22
M  V30 35 1 19 11
M  V30 36 1 30 25
M  V30 37 1 1 33
M  V30 38 1 1 34
M  V30 39 1 1 35
M  V30 40 1 3 36
M  V30 41 1 4 37
M  V30 42 1 5 38
M  V30 43 1 8 39
M  V30 44 1 10 40
M  V30 45 1 10 41
M  V30 46 1 12 42
M  V30 47 1 13 43
M  V30 48 1 14 44
M  V30 49 1 17 45
M  V30 50 1 17 46
M  V30 51 1 19 47
M  V30 52 1 23 48
M  V30 53 1 24 49
M  V30 54 1 27 50
M  V30 55 1 28 51
M  V30 56 1 29 52
M  V30 57 1 31 53
M  V30 END BOND
M  V30 END CTAB
M  END
>  <Dataset>  (392) 
ChEMBL_Kinases

>  <Ligand_Instance>  (392) 
nan

>  <PDB_ID>  (392) 
nan

>  <Standardized_SMILES>  (392) 
Cc1cccc(-c2cn(Cc3cccc(C(N)=O)c3)nc2-c2ccc3ncccc3c2)n1

>  <Name>  (392) 
nan

>  <Pocket>  (392) 
nan

>  <ATP_Site>  (392) 
nan

>  <Peripheral>  (392) 
nan

>  <Num_H_Atoms_ProtBoundConf>  (392) 
nan

>  <Num_Resolved_Atoms>  (392) 
nan

>  <Num_Not_Resolved_Atoms>  (392) 
nan

$$$$
CHEMBL1165268
     RDKit          3D

  0  0  0  0  0  0  0  0  0  0999 V3000
M  V30 BEGIN CTAB
M  V30 COUNTS 48 49 0 0 0
M  V30 BEGIN ATOM
M  V30 1 O -0.241185 -2.623714 0.347302 0
M  V30 2 C 0.399949 -3.044542 1.336176 0
M  V30 3 C 1.282176 -2.483226 2.400675 0
M  V30 4 C 1.481511 -0.995246 2.227793 0
M  V30 5 C 2.093656 -0.640525 0.915740 0
M  V30 6 C 2.260731 0.850084 0.836578 0
M  V30 7 C 1.001770 1.585039 0.959564 0
M  V30 8 O -0.254368 1.446664 1.136179 0
M  V30 9 N 1.232740 2.983665 0.843295 0
M  V30 10 C 0.310516 4.054045 0.901657 0
M  V30 11 C -0.264483 4.371572 -0.306607 0
M  V30 12 I 0.121292 3.389185 -2.140008 0
M  V30 13 C -1.190036 5.404906 -0.424976 0
M  V30 14 C -1.527991 6.119303 0.709781 0
M  V30 15 I -2.925633 7.706201 0.622258 0
M  V30 16 C -0.942830 5.791892 1.926407 0
M  V30 17 C -1.286103 6.538431 3.135919 0
M  V30 18 O -0.816080 6.327519 4.291895 0
M  V30 19 O -2.185950 7.588636 3.141781 0
M  V30 20 C -0.027117 4.766629 2.041149 0
M  V30 21 I 0.901291 4.205039 3.854055 0
M  V30 22 N 0.296060 -4.467086 1.552719 0
M  V30 23 C -0.491350 -5.278850 0.651924 0
M  V30 24 C -1.833064 -5.603061 0.903315 0
M  V30 25 I -2.730318 -4.900966 2.670238 0
M  V30 26 C -2.539580 -6.378394 -0.011399 0
M  V30 27 C -1.907353 -6.826425 -1.174027 0
M  V30 28 I -3.046236 -8.008883 -2.514791 0
M  V30 29 C -0.576224 -6.503835 -1.424971 0
M  V30 30 C 0.052944 -6.988237 -2.669131 0
M  V30 31 O 1.258284 -6.679007 -2.871794 0
M  V30 32 O -0.645355 -7.741359 -3.568518 0
M  V30 33 C 0.120870 -5.738479 -0.517022 0
M  V30 34 I 2.125726 -5.259994 -0.924078 0
M  V30 35 H 0.732600 -2.624872 3.373765 0
M  V30 36 H 2.233124 -3.002205 2.498275 0
M  V30 37 H 2.221890 -0.707110 3.029899 0
M  V30 38 H 0.563551 -0.445189 2.439971 0
M  V30 39 H 1.561956 -1.063549 0.053124 0
M  V30 40 H 3.132488 -1.078366 0.884177 0
M  V30 41 H 2.957284 1.226809 1.611127 0
M  V30 42 H 2.748715 1.124201 -0.131167 0
M  V30 43 H 2.098371 3.539610 0.690751 0
M  V30 44 H -1.680172 5.713094 -1.341149 0
M  V30 45 H -1.999813 8.468465 3.582932 0
M  V30 46 H 0.723153 -5.070728 2.301150 0
M  V30 47 H -3.579808 -6.626651 0.205308 0
M  V30 48 H -0.477576 -7.587700 -4.562517 0
M  V30 END ATOM
M  V30 BEGIN BOND
M  V30 1 2 1 2
M  V30 2 1 2 3
M  V30 3 1 3 4
M  V30 4 1 4 5
M  V30 5 1 5 6
M  V30 6 1 6 7
M  V30 7 2 7 8
M  V30 8 1 7 9
M  V30 9 1 9 10
M  V30 10 2 10 11
M  V30 11 1 11 12
M  V30 12 1 11 13
M  V30 13 2 13 14
M  V30 14 1 14 15
M  V30 15 1 14 16
M  V30 16 1 16 17
M  V30 17 2 17 18
M  V30 18 1 17 19
M  V30 19 2 16 20
M  V30 20 1 20 21
M  V30 21 1 2 22
M  V30 22 1 22 23
M  V30 23 2 23 24
M  V30 24 1 24 25
M  V30 25 1 24 26
M  V30 26 2 26 27
M  V30 27 1 27 28
M  V30 28 1 27 29
M  V30 29 1 29 30
M  V30 30 2 30 31
M  V30 31 1 30 32
M  V30 32 2 29 33
M  V30 33 1 33 34
M  V30 34 1 20 10
M  V30 35 1 33 23
M  V30 36 1 3 35
M  V30 37 1 3 36
M  V30 38 1 4 37
M  V30 39 1 4 38
M  V30 40 1 5 39
M  V30 41 1 5 40
M  V30 42 1 6 41
M  V30 43 1 6 42
M  V30 44 1 9 43
M  V30 45 1 13 44
M  V30 46 1 19 45
M  V30 47 1 22 46
M  V30 48 1 26 47
M  V30 49 1 32 48
M  V30 END BOND
M  V30 END CTAB
M  END
>  <Dataset>  (393) 
ChEMBL_Kinases

>  <Ligand_Instance>  (393) 
nan

>  <PDB_ID>  (393) 
nan

>  <Standardized_SMILES>  (393) 
O=C(CCCCC(=O)Nc1c(I)cc(I)c(C(=O)O)c1I)Nc1c(I)cc(I)c(C(=O)O)c1I

>  <Name>  (393) 
IODIPAMIDE

>  <Pocket>  (393) 
nan

>  <ATP_Site>  (393) 
nan

>  <Peripheral>  (393) 
nan

>  <Num_H_Atoms_ProtBoundConf>  (393) 
nan

>  <Num_Resolved_Atoms>  (393) 
nan

>  <Num_Not_Resolved_Atoms>  (393) 
nan

$$$$
CHEMBL1165374
     RDKit          3D

  0  0  0  0  0  0  0  0  0  0999 V3000
M  V30 BEGIN CTAB
M  V30 COUNTS 50 54 0 0 0
M  V30 BEGIN ATOM
M  V30 1 C -0.364044 -2.030718 4.805214 0
M  V30 2 C 0.487669 -2.258639 3.585966 0
M  V30 3 C 1.366935 -3.313505 3.641999 0
M  V30 4 C 2.203911 -3.618998 2.580538 0
M  V30 5 C 2.117137 -2.821172 1.469004 0
M  V30 6 C 1.230274 -1.770375 1.434521 0
M  V30 7 C 0.970660 -0.781598 0.376527 0
M  V30 8 N 1.921895 0.160231 0.099051 0
M  V30 9 C 1.461557 0.955043 -0.881231 0
M  V30 10 C 2.145682 2.130365 -1.530785 0
M  V30 11 C 1.931420 3.339712 -0.682123 0
M  V30 12 C 2.959493 3.613547 0.229844 0
M  V30 13 C 2.917286 4.703722 1.104333 0
M  V30 14 C 1.813095 5.527807 1.050244 0
M  V30 15 C 0.786277 5.257747 0.142299 0
M  V30 16 C -0.360584 6.138337 0.108899 0
M  V30 17 N -1.303157 6.841278 0.070264 0
M  V30 18 C 0.845063 4.183891 -0.707303 0
M  V30 19 N 0.220575 0.524839 -1.231324 0
M  V30 20 C -0.105436 -0.547125 -0.468972 0
M  V30 21 C -1.299895 -1.387170 -0.437973 0
M  V30 22 C -2.610621 -1.066049 -0.212836 0
M  V30 23 C -3.574704 -2.048476 -0.239143 0
M  V30 24 C -3.295130 -3.374984 -0.485481 0
M  V30 25 N -4.267270 -4.317862 -0.505909 0
M  V30 26 C -3.961668 -5.616128 -0.752025 0
M  V30 27 C -2.662188 -5.999594 -0.985159 0
M  V30 28 C -1.635870 -5.051165 -0.970783 0
M  V30 29 C -1.975397 -3.720580 -0.715255 0
M  V30 30 C -0.995964 -2.729885 -0.689637 0
M  V30 31 N 0.409526 -1.471555 2.476231 0
M  V30 32 H -1.314358 -2.598903 4.640889 0
M  V30 33 H 0.167963 -2.341323 5.706790 0
M  V30 34 H -0.639880 -0.947459 4.909643 0
M  V30 35 H 1.470215 -3.974936 4.506102 0
M  V30 36 H 2.926817 -4.422694 2.523549 0
M  V30 37 H 2.681587 -2.897017 0.541831 0
M  V30 38 H 2.870422 0.286009 0.546510 0
M  V30 39 H 3.216341 1.950344 -1.679714 0
M  V30 40 H 1.648626 2.338718 -2.517303 0
M  V30 41 H 3.852662 2.976569 0.295686 0
M  V30 42 H 3.765434 4.850631 1.791480 0
M  V30 43 H 1.799340 6.365811 1.737041 0
M  V30 44 H 0.066826 3.938711 -1.428847 0
M  V30 45 H -2.758808 -0.018959 -0.028463 0
M  V30 46 H -4.594046 -1.751280 -0.056015 0
M  V30 47 H -4.714560 -6.393693 -0.775863 0
M  V30 48 H -2.338578 -7.008693 -1.187530 0
M  V30 49 H -0.593081 -5.335751 -1.153151 0
M  V30 50 H 0.012072 -3.108468 -0.882365 0
M  V30 END ATOM
M  V30 BEGIN BOND
M  V30 1 1 1 2
M  V30 2 2 2 3
M  V30 3 1 3 4
M  V30 4 2 4 5
M  V30 5 1 5 6
M  V30 6 1 6 7
M  V30 7 1 7 8
M  V30 8 1 8 9
M  V30 9 1 9 10
M  V30 10 1 10 11
M  V30 11 2 11 12
M  V30 12 1 12 13
M  V30 13 2 13 14
M  V30 14 1 14 15
M  V30 15 1 15 16
M  V30 16 3 16 17
M  V30 17 2 15 18
M  V30 18 2 9 19
M  V30 19 1 19 20
M  V30 20 1 20 21
M  V30 21 2 21 22
M  V30 22 1 22 23
M  V30 23 2 23 24
M  V30 24 1 24 25
M  V30 25 2 25 26
M  V30 26 1 26 27
M  V30 27 2 27 28
M  V30 28 1 28 29
M  V30 29 2 29 30
M  V30 30 2 6 31
M  V30 31 1 31 2
M  V30 32 2 20 7
M  V30 33 1 30 21
M  V30 34 1 18 11
M  V30 35 1 29 24
M  V30 36 1 1 32
M  V30 37 1 1 33
M  V30 38 1 1 34
M  V30 39 1 3 35
M  V30 40 1 4 36
M  V30 41 1 5 37
M  V30 42 1 8 38
M  V30 43 1 10 39
M  V30 44 1 10 40
M  V30 45 1 12 41
M  V30 46 1 13 42
M  V30 47 1 14 43
M  V30 48 1 18 44
M  V30 49 1 22 45
M  V30 50 1 23 46
M  V30 51 1 26 47
M  V30 52 1 27 48
M  V30 53 1 28 49
M  V30 54 1 30 50
M  V30 END BOND
M  V30 END CTAB
M  END
>  <Dataset>  (394) 
ChEMBL_Kinases

>  <Ligand_Instance>  (394) 
nan

>  <PDB_ID>  (394) 
nan

>  <Standardized_SMILES>  (394) 
Cc1cccc(-c2[nH]c(Cc3cccc(C#N)c3)nc2-c2ccc3ncccc3c2)n1

>  <Name>  (394) 
nan

>  <Pocket>  (394) 
nan

>  <ATP_Site>  (394) 
nan

>  <Peripheral>  (394) 
nan

>  <Num_H_Atoms_ProtBoundConf>  (394) 
nan

>  <Num_Resolved_Atoms>  (394) 
nan

>  <Num_Not_Resolved_Atoms>  (394) 
nan

$$$$
CHEMBL1170261
     RDKit          3D

  0  0  0  0  0  0  0  0  0  0999 V3000
M  V30 BEGIN CTAB
M  V30 COUNTS 51 54 0 0 0
M  V30 BEGIN ATOM
M  V30 1 C 2.154590 0.606417 3.220094 0
M  V30 2 C 3.402963 1.022903 2.449144 0
M  V30 3 C 4.081515 -0.101223 1.798104 0
M  V30 4 C 5.215168 -0.682778 2.337512 0
M  V30 5 N 5.601220 -1.696596 1.546569 0
M  V30 6 C 4.776510 -1.839799 0.477381 0
M  V30 7 N 4.659776 -2.638362 -0.591588 0
M  V30 8 C 3.634717 -2.416548 -1.432537 0
M  V30 9 N 2.724649 -1.440734 -1.260279 0
M  V30 10 C 2.804228 -0.595893 -0.178310 0
M  V30 11 N 1.766021 0.367740 -0.252625 0
M  V30 12 C 1.569324 1.791526 -0.588218 0
M  V30 13 C 0.282751 2.177783 0.066400 0
M  V30 14 C -0.552047 0.913371 -0.171852 0 CFG=2
M  V30 15 N -1.071948 0.895427 -1.507005 0
M  V30 16 C -1.698347 0.970741 0.797049 0
M  V30 17 N -2.640932 -0.110498 0.727257 0
M  V30 18 C -2.727509 -1.511794 0.879933 0
M  V30 19 O -1.635106 -2.049476 1.185519 0
M  V30 20 C -3.922632 -2.319393 0.716830 0
M  V30 21 C -5.178345 -1.891549 0.372672 0
M  V30 22 C -6.305520 -2.668485 0.223269 0
M  V30 23 C -6.124045 -4.029532 0.451595 0
M  V30 24 F -7.162046 -4.870777 0.331446 0
M  V30 25 C -4.878574 -4.497654 0.798943 0
M  V30 26 C -3.785939 -3.677866 0.934603 0
M  V30 27 C 0.440735 -0.210379 0.107042 0
M  V30 28 C 3.859507 -0.844400 0.666689 0
M  V30 29 H 2.228422 0.810717 4.304888 0
M  V30 30 H 1.976316 -0.476274 3.034013 0
M  V30 31 H 1.243611 1.131226 2.877647 0
M  V30 32 H 3.173433 1.814880 1.720079 0
M  V30 33 H 4.047818 1.517448 3.209684 0
M  V30 34 H 5.729750 -0.387132 3.250774 0
M  V30 35 H 6.436295 -2.326371 1.703721 0
M  V30 36 H 3.593979 -3.104887 -2.286374 0
M  V30 37 H 2.433761 2.418489 -0.382855 0
M  V30 38 H 1.343410 1.751092 -1.702857 0
M  V30 39 H 0.360186 2.461342 1.110512 0
M  V30 40 H -0.198834 3.017788 -0.497414 0
M  V30 41 H -2.131519 0.947733 -1.534904 0
M  V30 42 H -0.642955 1.600516 -2.139933 0
M  V30 43 H -2.231777 1.918872 0.602401 0
M  V30 44 H -1.315116 1.107483 1.851134 0
M  V30 45 H -3.631679 0.222368 0.473171 0
M  V30 46 H -5.314456 -0.834447 0.196165 0
M  V30 47 H -7.249985 -2.231788 -0.051475 0
M  V30 48 H -4.723341 -5.563200 0.980683 0
M  V30 49 H -2.827616 -4.112939 1.212047 0
M  V30 50 H 0.236118 -1.084727 -0.510800 0
M  V30 51 H 0.421197 -0.377068 1.198714 0
M  V30 END ATOM
M  V30 BEGIN BOND
M  V30 1 1 1 2
M  V30 2 1 2 3
M  V30 3 2 3 4
M  V30 4 1 4 5
M  V30 5 1 5 6
M  V30 6 2 6 7
M  V30 7 1 7 8
M  V30 8 2 8 9
M  V30 9 1 9 10
M  V30 10 1 10 11
M  V30 11 1 11 12
M  V30 12 1 12 13
M  V30 13 1 13 14
M  V30 14 1 14 15 CFG=3
M  V30 15 1 14 16
M  V30 16 1 16 17
M  V30 17 1 17 18
M  V30 18 2 18 19
M  V30 19 1 18 20
M  V30 20 2 20 21
M  V30 21 1 21 22
M  V30 22 2 22 23
M  V30 23 1 23 24
M  V30 24 1 23 25
M  V30 25 2 25 26
M  V30 26 1 14 27
M  V30 27 2 10 28
M  V30 28 1 28 3
M  V30 29 1 28 6
M  V30 30 1 27 11
M  V30 31 1 26 20
M  V30 32 1 1 29
M  V30 33 1 1 30
M  V30 34 1 1 31
M  V30 35 1 2 32
M  V30 36 1 2 33
M  V30 37 1 4 34
M  V30 38 1 5 35
M  V30 39 1 8 36
M  V30 40 1 12 37
M  V30 41 1 12 38
M  V30 42 1 13 39
M  V30 43 1 13 40
M  V30 44 1 15 41
M  V30 45 1 15 42
M  V30 46 1 16 43
M  V30 47 1 16 44
M  V30 48 1 17 45
M  V30 49 1 21 46
M  V30 50 1 22 47
M  V30 51 1 25 48
M  V30 52 1 26 49
M  V30 53 1 27 50
M  V30 54 1 27 51
M  V30 END BOND
M  V30 END CTAB
M  END
>  <Dataset>  (395) 
ChEMBL_Kinases

>  <Ligand_Instance>  (395) 
nan

>  <PDB_ID>  (395) 
nan

>  <Standardized_SMILES>  (395) 
CCc1c[nH]c2ncnc(N3CC[C@](N)(CNC(=O)c4ccc(F)cc4)C3)c12

>  <Name>  (395) 
nan

>  <Pocket>  (395) 
nan

>  <ATP_Site>  (395) 
nan

>  <Peripheral>  (395) 
nan

>  <Num_H_Atoms_ProtBoundConf>  (395) 
nan

>  <Num_Resolved_Atoms>  (395) 
nan

>  <Num_Not_Resolved_Atoms>  (395) 
nan

$$$$
CHEMBL1169610
     RDKit          3D

  0  0  0  0  0  0  0  0  0  0999 V3000
M  V30 BEGIN CTAB
M  V30 COUNTS 45 48 0 0 0
M  V30 BEGIN ATOM
M  V30 1 N 1.535853 -2.264092 3.652229 0
M  V30 2 C 1.331338 -1.322845 2.546792 0 CFG=2
M  V30 3 C 2.641385 -1.247810 1.832389 0
M  V30 4 N 2.759099 -0.432092 0.689333 0
M  V30 5 C 2.721480 0.836412 0.114013 0
M  V30 6 O 2.478773 1.731790 0.953698 0
M  V30 7 C 2.917694 1.232016 -1.264044 0
M  V30 8 C 2.819475 2.562737 -1.529406 0
M  V30 9 C 3.000196 2.995583 -2.841590 0
M  V30 10 C 3.276997 2.150098 -3.908816 0
M  V30 11 F 3.433116 2.693604 -5.148355 0
M  V30 12 C 3.369174 0.797880 -3.595197 0
M  V30 13 C 3.190620 0.383822 -2.307252 0
M  V30 14 C 0.787121 -0.028749 3.039266 0
M  V30 15 C -0.388950 0.310695 2.166740 0
M  V30 16 N -0.860046 -0.967120 1.653200 0
M  V30 17 C -2.121881 -1.417540 1.175267 0
M  V30 18 N -2.074633 -1.581922 -0.175819 0
M  V30 19 C -3.188130 -1.982627 -0.856400 0
M  V30 20 N -4.355522 -2.225670 -0.221310 0
M  V30 21 C -4.430067 -2.072610 1.107618 0
M  V30 22 N -5.357071 -2.212908 2.076237 0
M  V30 23 C -4.864538 -1.920292 3.303196 0
M  V30 24 C -3.522435 -1.560298 3.152466 0
M  V30 25 Cl -2.446324 -1.112930 4.429157 0
M  V30 26 C -3.318779 -1.670417 1.805602 0
M  V30 27 C 0.251079 -1.919110 1.672214 0
M  V30 28 H 2.525827 -2.381881 3.909242 0
M  V30 29 H 0.889238 -2.100757 4.429319 0
M  V30 30 H 3.405509 -0.948476 2.620034 0
M  V30 31 H 2.936257 -2.312288 1.617750 0
M  V30 32 H 2.981739 -1.067155 -0.155553 0
M  V30 33 H 2.611534 3.315034 -0.800878 0
M  V30 34 H 2.922523 4.052620 -3.054388 0
M  V30 35 H 3.583990 0.145051 -4.425430 0
M  V30 36 H 3.272191 -0.675638 -2.115553 0
M  V30 37 H 1.519105 0.773888 3.181172 0
M  V30 38 H 0.387558 -0.222860 4.099221 0
M  V30 39 H -0.083175 0.966286 1.310764 0
M  V30 40 H -1.187609 0.871601 2.673575 0
M  V30 41 H -3.204334 -2.128980 -1.936586 0
M  V30 42 H -6.356163 -2.519126 1.882237 0
M  V30 43 H -5.403474 -1.955035 4.241072 0
M  V30 44 H -0.146286 -2.865122 2.089932 0
M  V30 45 H 0.589381 -2.075770 0.632990 0
M  V30 END ATOM
M  V30 BEGIN BOND
M  V30 1 1 2 1 CFG=1
M  V30 2 1 2 3
M  V30 3 1 3 4
M  V30 4 1 4 5
M  V30 5 2 5 6
M  V30 6 1 5 7
M  V30 7 2 7 8
M  V30 8 1 8 9
M  V30 9 2 9 10
M  V30 10 1 10 11
M  V30 11 1 10 12
M  V30 12 2 12 13
M  V30 13 1 2 14
M  V30 14 1 14 15
M  V30 15 1 15 16
M  V30 16 1 16 17
M  V30 17 2 17 18
M  V30 18 1 18 19
M  V30 19 2 19 20
M  V30 20 1 20 21
M  V30 21 1 21 22
M  V30 22 1 22 23
M  V30 23 2 23 24
M  V30 24 1 24 25
M  V30 25 1 24 26
M  V30 26 1 16 27
M  V30 27 1 27 2
M  V30 28 1 13 7
M  V30 29 1 26 17
M  V30 30 2 26 21
M  V30 31 1 1 28
M  V30 32 1 1 29
M  V30 33 1 3 30
M  V30 34 1 3 31
M  V30 35 1 4 32
M  V30 36 1 8 33
M  V30 37 1 9 34
M  V30 38 1 12 35
M  V30 39 1 13 36
M  V30 40 1 14 37
M  V30 41 1 14 38
M  V30 42 1 15 39
M  V30 43 1 15 40
M  V30 44 1 19 41
M  V30 45 1 22 42
M  V30 46 1 23 43
M  V30 47 1 27 44
M  V30 48 1 27 45
M  V30 END BOND
M  V30 END CTAB
M  END
>  <Dataset>  (396) 
ChEMBL_Kinases

>  <Ligand_Instance>  (396) 
nan

>  <PDB_ID>  (396) 
nan

>  <Standardized_SMILES>  (396) 
N[C@]1(CNC(=O)c2ccc(F)cc2)CCN(c2ncnc3[nH]cc(Cl)c23)C1

>  <Name>  (396) 
nan

>  <Pocket>  (396) 
nan

>  <ATP_Site>  (396) 
nan

>  <Peripheral>  (396) 
nan

>  <Num_H_Atoms_ProtBoundConf>  (396) 
nan

>  <Num_Resolved_Atoms>  (396) 
nan

>  <Num_Not_Resolved_Atoms>  (396) 
nan

$$$$
CHEMBL1169623
     RDKit          3D

  0  0  0  0  0  0  0  0  0  0999 V3000
M  V30 BEGIN CTAB
M  V30 COUNTS 45 48 0 0 0
M  V30 BEGIN ATOM
M  V30 1 N -3.647864 -1.772989 1.771514 0
M  V30 2 C -2.616942 -1.156638 0.923961 0 CFG=2
M  V30 3 C -1.309643 -1.805528 1.144298 0
M  V30 4 N -0.225437 -1.287611 0.371214 0
M  V30 5 C 1.003964 -1.952181 0.628858 0
M  V30 6 O 0.804278 -2.854500 1.502702 0
M  V30 7 C 2.288224 -1.667434 0.010679 0
M  V30 8 C 3.324271 -2.493871 0.469815 0
M  V30 9 C 4.608018 -2.361067 -0.010401 0
M  V30 10 C 4.947935 -1.429235 -0.950740 0
M  V30 11 F 6.180923 -1.234642 -1.472773 0
M  V30 12 C 3.931304 -0.615270 -1.404010 0
M  V30 13 C 2.653999 -0.745803 -0.927659 0
M  V30 14 F 1.663009 0.034069 -1.357218 0
M  V30 15 C -2.660672 0.309790 1.162321 0
M  V30 16 C -3.493975 0.759433 -0.047279 0
M  V30 17 N -2.797858 -0.036063 -1.084259 0
M  V30 18 C -2.143719 0.648446 -2.177364 0
M  V30 19 N -1.444243 1.761714 -1.830591 0
M  V30 20 C -0.742397 2.479680 -2.715646 0
M  V30 21 N -0.711425 2.109226 -3.999251 0
M  V30 22 C -1.372534 1.024340 -4.434682 0
M  V30 23 N -1.560298 0.399085 -5.609472 0
M  V30 24 C -2.357527 -0.671742 -5.449646 0
M  V30 25 C -2.697394 -0.741056 -4.121751 0
M  V30 26 Cl -3.749755 -1.984246 -3.501556 0
M  V30 27 C -2.080637 0.315556 -3.494552 0
M  V30 28 C -3.023927 -1.375310 -0.546888 0
M  V30 29 H -4.434183 -1.109413 1.922487 0
M  V30 30 H -3.174561 -2.016901 2.674235 0
M  V30 31 H -1.043698 -1.701430 2.237182 0
M  V30 32 H -1.339946 -2.902054 0.983802 0
M  V30 33 H -0.241638 -0.512939 -0.325959 0
M  V30 34 H 3.166095 -3.279071 1.226262 0
M  V30 35 H 5.383979 -3.005953 0.356978 0
M  V30 36 H 4.089232 0.157593 -2.149172 0
M  V30 37 H -3.166747 0.619638 2.103455 0
M  V30 38 H -1.703576 0.837424 1.098903 0
M  V30 39 H -4.508613 0.380005 0.110725 0
M  V30 40 H -3.410331 1.824817 -0.225656 0
M  V30 41 H -0.208142 3.364295 -2.343047 0
M  V30 42 H -1.123512 0.741718 -6.490185 0
M  V30 43 H -2.651728 -1.329913 -6.246291 0
M  V30 44 H -2.340928 -2.135506 -0.981594 0
M  V30 45 H -4.083966 -1.610542 -0.572382 0
M  V30 END ATOM
M  V30 BEGIN BOND
M  V30 1 1 2 1 CFG=1
M  V30 2 1 2 3
M  V30 3 1 3 4
M  V30 4 1 4 5
M  V30 5 2 5 6
M  V30 6 1 5 7
M  V30 7 2 7 8
M  V30 8 1 8 9
M  V30 9 2 9 10
M  V30 10 1 10 11
M  V30 11 1 10 12
M  V30 12 2 12 13
M  V30 13 1 13 14
M  V30 14 1 2 15
M  V30 15 1 15 16
M  V30 16 1 16 17
M  V30 17 1 17 18
M  V30 18 2 18 19
M  V30 19 1 19 20
M  V30 20 2 20 21
M  V30 21 1 21 22
M  V30 22 1 22 23
M  V30 23 1 23 24
M  V30 24 2 24 25
M  V30 25 1 25 26
M  V30 26 1 25 27
M  V30 27 1 17 28
M  V30 28 1 28 2
M  V30 29 1 13 7
M  V30 30 1 27 18
M  V30 31 2 27 22
M  V30 32 1 1 29
M  V30 33 1 1 30
M  V30 34 1 3 31
M  V30 35 1 3 32
M  V30 36 1 4 33
M  V30 37 1 8 34
M  V30 38 1 9 35
M  V30 39 1 12 36
M  V30 40 1 15 37
M  V30 41 1 15 38
M  V30 42 1 16 39
M  V30 43 1 16 40
M  V30 44 1 20 41
M  V30 45 1 23 42
M  V30 46 1 24 43
M  V30 47 1 28 44
M  V30 48 1 28 45
M  V30 END BOND
M  V30 END CTAB
M  END
>  <Dataset>  (397) 
ChEMBL_Kinases

>  <Ligand_Instance>  (397) 
nan

>  <PDB_ID>  (397) 
nan

>  <Standardized_SMILES>  (397) 
N[C@]1(CNC(=O)c2ccc(F)cc2F)CCN(c2ncnc3[nH]cc(Cl)c23)C1

>  <Name>  (397) 
nan

>  <Pocket>  (397) 
nan

>  <ATP_Site>  (397) 
nan

>  <Peripheral>  (397) 
nan

>  <Num_H_Atoms_ProtBoundConf>  (397) 
nan

>  <Num_Resolved_Atoms>  (397) 
nan

>  <Num_Not_Resolved_Atoms>  (397) 
nan

$$$$
CHEMBL1169654
     RDKit          3D

  0  0  0  0  0  0  0  0  0  0999 V3000
M  V30 BEGIN CTAB
M  V30 COUNTS 56 59 0 0 0
M  V30 BEGIN ATOM
M  V30 1 C 2.379577 1.880957 3.835107 0
M  V30 2 C 3.845336 1.739414 3.630600 0
M  V30 3 C 4.641472 2.128706 4.728341 0
M  V30 4 C 6.028729 2.062437 4.700906 0
M  V30 5 C 6.670187 1.603193 3.571051 0
M  V30 6 C 5.889633 1.226066 2.505281 0
M  V30 7 C 4.504723 1.283999 2.511471 0
M  V30 8 C 3.657096 0.895944 1.390329 0
M  V30 9 O 4.112238 -0.224955 0.992905 0
M  V30 10 C 2.526593 1.594454 0.806269 0
M  V30 11 C 2.155238 2.932973 0.883468 0
M  V30 12 N 1.028426 3.084242 0.152909 0
M  V30 13 C 0.685252 1.897991 -0.372753 0
M  V30 14 C -0.462403 1.645311 -1.223206 0
M  V30 15 O -1.338745 2.466623 -1.620870 0
M  V30 16 N -0.734168 0.347020 -1.736395 0
M  V30 17 N -1.666961 -0.268360 -2.531846 0
M  V30 18 C -1.421386 -1.680775 -2.723421 0
M  V30 19 C -1.982030 -2.238699 -1.400838 0
M  V30 20 N -3.388717 -2.115542 -1.469163 0
M  V30 21 C -4.127337 -2.697972 -0.423828 0
M  V30 22 C -3.872314 -4.148382 -0.232208 0
M  V30 23 C -4.554197 -5.194490 -0.837729 0
M  V30 24 C -4.279998 -6.518688 -0.627747 0
M  V30 25 C -3.259123 -6.804896 0.246032 0
M  V30 26 C -2.528704 -5.849450 0.893803 0
M  V30 27 C -2.858689 -4.517442 0.632997 0
M  V30 28 C -3.924445 -0.968997 -2.097207 0
M  V30 29 C -3.009918 0.112730 -2.520430 0
M  V30 30 C 1.599606 0.962245 0.018885 0
M  V30 31 H 1.794677 1.225711 3.190286 0
M  V30 32 H 2.178060 1.533244 4.890334 0
M  V30 33 H 2.071550 2.948070 3.818738 0
M  V30 34 H 4.187607 2.495342 5.643470 0
M  V30 35 H 6.575358 2.381518 5.579308 0
M  V30 36 H 7.749080 1.555854 3.558619 0
M  V30 37 H 6.380109 0.859079 1.593923 0
M  V30 38 H 2.690699 3.689879 1.434045 0
M  V30 39 H 0.493109 3.981107 0.001627 0
M  V30 40 H -0.009399 -0.373224 -1.423101 0
M  V30 41 H -0.327833 -1.807143 -2.796050 0
M  V30 42 H -1.999309 -2.051240 -3.582229 0
M  V30 43 H -1.633548 -3.240589 -1.214032 0
M  V30 44 H -1.610325 -1.560410 -0.596118 0
M  V30 45 H -3.846061 -2.187733 0.536027 0
M  V30 46 H -5.220358 -2.508046 -0.598907 0
M  V30 47 H -5.350752 -4.911304 -1.519741 0
M  V30 48 H -4.847885 -7.316865 -1.131404 0
M  V30 49 H -2.968777 -7.818026 0.476164 0
M  V30 50 H -1.724893 -6.074599 1.583476 0
M  V30 51 H -2.257927 -3.770163 1.165011 0
M  V30 52 H -4.488177 -1.331041 -3.013933 0
M  V30 53 H -4.733056 -0.562001 -1.447724 0
M  V30 54 H -3.252638 0.462095 -3.573100 0
M  V30 55 H -3.141910 1.023008 -1.899817 0
M  V30 56 H 1.601133 -0.084041 -0.234735 0
M  V30 END ATOM
M  V30 BEGIN BOND
M  V30 1 1 1 2
M  V30 2 2 2 3
M  V30 3 1 3 4
M  V30 4 2 4 5
M  V30 5 1 5 6
M  V30 6 2 6 7
M  V30 7 1 7 8
M  V30 8 2 8 9
M  V30 9 1 8 10
M  V30 10 2 10 11
M  V30 11 1 11 12
M  V30 12 1 12 13
M  V30 13 1 13 14
M  V30 14 2 14 15
M  V30 15 1 14 16
M  V30 16 1 16 17
M  V30 17 1 17 18
M  V30 18 1 18 19
M  V30 19 1 19 20
M  V30 20 1 20 21
M  V30 21 1 21 22
M  V30 22 2 22 23
M  V30 23 1 23 24
M  V30 24 2 24 25
M  V30 25 1 25 26
M  V30 26 2 26 27
M  V30 27 1 20 28
M  V30 28 1 28 29
M  V30 29 2 13 30
M  V30 30 1 7 2
M  V30 31 1 30 10
M  V30 32 1 29 17
M  V30 33 1 27 22
M  V30 34 1 1 31
M  V30 35 1 1 32
M  V30 36 1 1 33
M  V30 37 1 3 34
M  V30 38 1 4 35
M  V30 39 1 5 36
M  V30 40 1 6 37
M  V30 41 1 11 38
M  V30 42 1 12 39
M  V30 43 1 16 40
M  V30 44 1 18 41
M  V30 45 1 18 42
M  V30 46 1 19 43
M  V30 47 1 19 44
M  V30 48 1 21 45
M  V30 49 1 21 46
M  V30 50 1 23 47
M  V30 51 1 24 48
M  V30 52 1 25 49
M  V30 53 1 26 50
M  V30 54 1 27 51
M  V30 55 1 28 52
M  V30 56 1 28 53
M  V30 57 1 29 54
M  V30 58 1 29 55
M  V30 59 1 30 56
M  V30 END BOND
M  V30 END CTAB
M  END
>  <Dataset>  (398) 
ChEMBL_Kinases

>  <Ligand_Instance>  (398) 
nan

>  <PDB_ID>  (398) 
nan

>  <Standardized_SMILES>  (398) 
Cc1ccccc1C(=O)c1c[nH]c(C(=O)NN2CCN(Cc3ccccc3)CC2)c1

>  <Name>  (398) 
nan

>  <Pocket>  (398) 
nan

>  <ATP_Site>  (398) 
nan

>  <Peripheral>  (398) 
nan

>  <Num_H_Atoms_ProtBoundConf>  (398) 
nan

>  <Num_Resolved_Atoms>  (398) 
nan

>  <Num_Not_Resolved_Atoms>  (398) 
nan

$$$$
CHEMBL1169825
     RDKit          3D

  0  0  0  0  0  0  0  0  0  0999 V3000
M  V30 BEGIN CTAB
M  V30 COUNTS 33 34 0 0 0
M  V30 BEGIN ATOM
M  V30 1 C 0.082189 -3.244987 2.780419 0
M  V30 2 C 1.434049 -3.442528 2.188447 0
M  V30 3 C 2.184624 -4.560230 2.537763 0
M  V30 4 C 3.426522 -4.693490 1.960000 0
M  V30 5 C 3.990180 -3.811794 1.063658 0
M  V30 6 C 3.241851 -2.705902 0.721229 0
M  V30 7 C 2.001975 -2.556833 1.287226 0
M  V30 8 N 1.195536 -1.403136 0.949018 0
M  V30 9 C 0.275770 -1.364512 -0.129273 0
M  V30 10 O -0.309303 -1.852944 -1.093954 0
M  V30 11 N -0.121971 -0.043698 0.118722 0
M  V30 12 C -1.145292 0.725636 -0.681853 0
M  V30 13 O -1.630506 0.033763 -1.628507 0
M  V30 14 C -1.858518 2.049557 -0.815696 0
M  V30 15 C -1.127154 3.141110 -1.206749 0
M  V30 16 C -1.799719 4.342590 -1.301034 0
M  V30 17 C -3.152728 4.294431 -0.983209 0
M  V30 18 C -3.879256 3.210696 -0.595629 0
M  V30 19 C -3.199982 2.014040 -0.504128 0
M  V30 20 Cl -4.007732 0.538456 -0.018127 0
M  V30 21 H -0.405524 -2.437904 2.180134 0
M  V30 22 H -0.558245 -4.139796 2.654567 0
M  V30 23 H 0.173947 -2.933095 3.856087 0
M  V30 24 H 1.753017 -5.254824 3.237215 0
M  V30 25 H 3.992195 -5.590171 2.260705 0
M  V30 26 H 4.994783 -4.042946 0.679229 0
M  V30 27 H 3.667822 -2.002496 0.018281 0
M  V30 28 H 1.437684 -0.665941 1.637780 0
M  V30 29 H -0.690149 0.488705 -0.269320 0
M  V30 30 H -0.073399 3.105870 -1.438788 0
M  V30 31 H -1.344142 5.279461 -1.597461 0
M  V30 32 H -3.680931 5.254397 -1.058722 0
M  V30 33 H -4.926615 3.286443 -0.372925 0
M  V30 END ATOM
M  V30 BEGIN BOND
M  V30 1 1 1 2
M  V30 2 2 2 3
M  V30 3 1 3 4
M  V30 4 2 4 5
M  V30 5 1 5 6
M  V30 6 2 6 7
M  V30 7 1 7 8
M  V30 8 1 8 9
M  V30 9 2 9 10
M  V30 10 1 9 11
M  V30 11 1 11 12
M  V30 12 2 12 13
M  V30 13 1 12 14
M  V30 14 2 14 15
M  V30 15 1 15 16
M  V30 16 2 16 17
M  V30 17 1 17 18
M  V30 18 2 18 19
M  V30 19 1 19 20
M  V30 20 1 7 2
M  V30 21 1 19 14
M  V30 22 1 1 21
M  V30 23 1 1 22
M  V30 24 1 1 23
M  V30 25 1 3 24
M  V30 26 1 4 25
M  V30 27 1 5 26
M  V30 28 1 6 27
M  V30 29 1 8 28
M  V30 30 1 11 29
M  V30 31 1 15 30
M  V30 32 1 16 31
M  V30 33 1 17 32
M  V30 34 1 18 33
M  V30 END BOND
M  V30 END CTAB
M  END
>  <Dataset>  (399) 
ChEMBL_Kinases

>  <Ligand_Instance>  (399) 
nan

>  <PDB_ID>  (399) 
nan

>  <Standardized_SMILES>  (399) 
Cc1ccccc1NC(=O)NC(=O)c1ccccc1Cl

>  <Name>  (399) 
nan

>  <Pocket>  (399) 
nan

>  <ATP_Site>  (399) 
nan

>  <Peripheral>  (399) 
nan

>  <Num_H_Atoms_ProtBoundConf>  (399) 
nan

>  <Num_Resolved_Atoms>  (399) 
nan

>  <Num_Not_Resolved_Atoms>  (399) 
nan

$$$$
CHEMBL1169826
     RDKit          3D

  0  0  0  0  0  0  0  0  0  0999 V3000
M  V30 BEGIN CTAB
M  V30 COUNTS 35 36 0 0 0
M  V30 BEGIN ATOM
M  V30 1 N 0.354955 -2.393429 4.784817 0
M  V30 2 C -0.157659 -1.955821 3.863006 0
M  V30 3 C -0.824287 -1.413796 2.704284 0
M  V30 4 N -0.287985 -1.929807 1.462598 0
M  V30 5 C 1.097281 -1.658309 1.249514 0
M  V30 6 C 1.570329 -2.242478 -0.086548 0
M  V30 7 O 2.904594 -1.970688 -0.272579 0
M  V30 8 C 0.820386 -1.633562 -1.216049 0
M  V30 9 C 1.228041 -0.332555 -1.512818 0
M  V30 10 C 0.653427 0.410504 -2.532550 0
M  V30 11 C -0.356138 -0.190800 -3.260064 0
M  V30 12 C -0.772700 -1.477272 -2.980784 0
M  V30 13 C -0.192492 -2.210282 -1.960770 0
M  V30 14 C -0.725732 0.076815 2.649779 0
M  V30 15 C -0.267786 0.839508 3.700127 0
M  V30 16 C -0.205685 2.227476 3.570833 0
M  V30 17 C -0.594695 2.863406 2.407021 0
M  V30 18 Cl -0.516981 4.616240 2.241866 0
M  V30 19 C -1.052178 2.087916 1.360605 0
M  V30 20 Cl -1.547027 2.909991 -0.122655 0
M  V30 21 C -1.117434 0.708718 1.479696 0
M  V30 22 H -1.913401 -1.626264 2.676154 0
M  V30 23 H -0.881186 -1.738730 0.648418 0
M  V30 24 H 1.656044 -2.267016 2.018573 0
M  V30 25 H 1.376271 -0.608285 1.313207 0
M  V30 26 H 1.413185 -3.333909 -0.110781 0
M  V30 27 H 3.381577 -2.751920 -0.661162 0
M  V30 28 H 2.012742 0.189668 -0.977954 0
M  V30 29 H 0.966351 1.418636 -2.765631 0
M  V30 30 H -0.842050 0.360128 -4.079176 0
M  V30 31 H -1.544737 -1.989065 -3.508127 0
M  V30 32 H -0.439751 -3.218530 -1.658471 0
M  V30 33 H 0.032958 0.328494 4.603990 0
M  V30 34 H 0.159545 2.827297 4.410316 0
M  V30 35 H -1.493620 0.206267 0.590608 0
M  V30 END ATOM
M  V30 BEGIN BOND
M  V30 1 3 1 2
M  V30 2 1 2 3
M  V30 3 1 3 4
M  V30 4 1 4 5
M  V30 5 1 5 6
M  V30 6 1 6 7
M  V30 7 1 6 8
M  V30 8 2 8 9
M  V30 9 1 9 10
M  V30 10 2 10 11
M  V30 11 1 11 12
M  V30 12 2 12 13
M  V30 13 1 3 14
M  V30 14 2 14 15
M  V30 15 1 15 16
M  V30 16 2 16 17
M  V30 17 1 17 18
M  V30 18 1 17 19
M  V30 19 1 19 20
M  V30 20 2 19 21
M  V30 21 1 13 8
M  V30 22 1 21 14
M  V30 23 1 3 22
M  V30 24 1 4 23
M  V30 25 1 5 24
M  V30 26 1 5 25
M  V30 27 1 6 26
M  V30 28 1 7 27
M  V30 29 1 9 28
M  V30 30 1 10 29
M  V30 31 1 11 30
M  V30 32 1 12 31
M  V30 33 1 13 32
M  V30 34 1 15 33
M  V30 35 1 16 34
M  V30 36 1 21 35
M  V30 END BOND
M  V30 END CTAB
M  END
>  <Dataset>  (400) 
ChEMBL_Kinases

>  <Ligand_Instance>  (400) 
nan

>  <PDB_ID>  (400) 
nan

>  <Standardized_SMILES>  (400) 
N#CC(NCC(O)c1ccccc1)c1ccc(Cl)c(Cl)c1

>  <Name>  (400) 
nan

>  <Pocket>  (400) 
nan

>  <ATP_Site>  (400) 
nan

>  <Peripheral>  (400) 
nan

>  <Num_H_Atoms_ProtBoundConf>  (400) 
nan

>  <Num_Resolved_Atoms>  (400) 
nan

>  <Num_Not_Resolved_Atoms>  (400) 
nan

$$$$
CHEMBL117
     RDKit          3D

  0  0  0  0  0  0  0  0  0  0999 V3000
M  V30 BEGIN CTAB
M  V30 COUNTS 29 31 0 0 0
M  V30 BEGIN ATOM
M  V30 1 O -2.973977 -1.667591 1.411918 0
M  V30 2 C -1.821907 -1.202710 1.257360 0
M  V30 3 C -0.918467 -1.759467 0.375564 0
M  V30 4 C 0.349730 -1.250319 0.203288 0
M  V30 5 C 1.346280 -1.794805 -0.711886 0
M  V30 6 C 2.571452 -1.167824 -0.766780 0
M  V30 7 C 3.575115 -1.632691 -1.619572 0
M  V30 8 C 3.357915 -2.736935 -2.429718 0
M  V30 9 C 2.117415 -3.367932 -2.370976 0
M  V30 10 C 1.133844 -2.892278 -1.518666 0
M  V30 11 O 0.683221 -0.200331 0.914272 0
M  V30 12 C -0.163281 0.359115 1.771682 0
M  V30 13 C 0.279302 1.461734 2.475141 0
M  V30 14 C -0.524437 2.110804 3.386557 0
M  V30 15 O -0.190690 3.218408 4.144986 0
M  V30 16 C -1.825475 1.652658 3.616287 0
M  V30 17 C -2.249145 0.536268 2.892622 0
M  V30 18 O -3.540027 0.003369 3.055892 0
M  V30 19 C -1.447376 -0.098324 1.994079 0
M  V30 20 H -1.207545 -2.624984 -0.203886 0
M  V30 21 H 2.819625 -0.297751 -0.164430 0
M  V30 22 H 4.555990 -1.181632 -1.705547 0
M  V30 23 H 4.124865 -3.104932 -3.091928 0
M  V30 24 H 1.926438 -4.243995 -3.004994 0
M  V30 25 H 0.176228 -3.392936 -1.484506 0
M  V30 26 H 1.258498 1.898770 2.378372 0
M  V30 27 H 0.456969 3.885258 3.710454 0
M  V30 28 H -2.505155 2.117881 4.317961 0
M  V30 29 H -3.642510 -0.679226 3.815149 0
M  V30 END ATOM
M  V30 BEGIN BOND
M  V30 1 2 1 2
M  V30 2 1 2 3
M  V30 3 2 3 4
M  V30 4 1 4 5
M  V30 5 2 5 6
M  V30 6 1 6 7
M  V30 7 2 7 8
M  V30 8 1 8 9
M  V30 9 2 9 10
M  V30 10 1 4 11
M  V30 11 1 11 12
M  V30 12 2 12 13
M  V30 13 1 13 14
M  V30 14 1 14 15
M  V30 15 2 14 16
M  V30 16 1 16 17
M  V30 17 1 17 18
M  V30 18 2 17 19
M  V30 19 1 19 2
M  V30 20 1 10 5
M  V30 21 1 19 12
M  V30 22 1 3 20
M  V30 23 1 6 21
M  V30 24 1 7 22
M  V30 25 1 8 23
M  V30 26 1 9 24
M  V30 27 1 10 25
M  V30 28 1 13 26
M  V30 29 1 15 27
M  V30 30 1 16 28
M  V30 31 1 18 29
M  V30 END BOND
M  V30 END CTAB
M  END
>  <Dataset>  (401) 
ChEMBL_Kinases

>  <Ligand_Instance>  (401) 
nan

>  <PDB_ID>  (401) 
nan

>  <Standardized_SMILES>  (401) 
O=c1cc(-c2ccccc2)oc2cc(O)cc(O)c12

>  <Name>  (401) 
CHRYSIN

>  <Pocket>  (401) 
nan

>  <ATP_Site>  (401) 
nan

>  <Peripheral>  (401) 
nan

>  <Num_H_Atoms_ProtBoundConf>  (401) 
nan

>  <Num_Resolved_Atoms>  (401) 
nan

>  <Num_Not_Resolved_Atoms>  (401) 
nan

$$$$
CHEMBL1170012
     RDKit          3D

  0  0  0  0  0  0  0  0  0  0999 V3000
M  V30 BEGIN CTAB
M  V30 COUNTS 33 34 0 0 0
M  V30 BEGIN ATOM
M  V30 1 C -2.604478 -3.326942 3.483949 0
M  V30 2 C -1.519730 -3.040100 2.493039 0
M  V30 3 C -1.599021 -3.630604 1.230997 0
M  V30 4 C -0.591830 -3.358199 0.325137 0
M  V30 5 C 0.470217 -2.518679 0.663980 0
M  V30 6 S 1.688605 -2.245881 -0.564579 0
M  V30 7 O 1.803447 -3.495262 -1.390877 0
M  V30 8 O 3.062870 -2.047243 0.059649 0
M  V30 9 N 1.337376 -0.901033 -1.559470 0
M  V30 10 C 1.238349 0.399860 -0.994948 0
M  V30 11 C 2.151229 0.889629 -0.081989 0
M  V30 12 C 2.063006 2.143545 0.467411 0
M  V30 13 C 0.994375 2.956381 0.077930 0
M  V30 14 C 0.073494 2.491253 -0.828855 0
M  V30 15 C -1.042307 3.387823 -1.212095 0
M  V30 16 F -0.640894 4.600121 -1.700169 0
M  V30 17 F -1.853125 3.537270 -0.089376 0
M  V30 18 F -1.849390 2.774999 -2.161791 0
M  V30 19 C 0.169841 1.214023 -1.383689 0
M  V30 20 C 0.503994 -1.957862 1.926240 0
M  V30 21 C -0.475107 -2.195377 2.870790 0
M  V30 22 H -2.201717 -3.639201 4.473275 0
M  V30 23 H -3.267465 -4.103382 3.101394 0
M  V30 24 H -3.123021 -2.364458 3.675519 0
M  V30 25 H -2.423065 -4.281158 0.970034 0
M  V30 26 H -0.652402 -3.818340 -0.660137 0
M  V30 27 H 1.187739 -0.996719 -2.596352 0
M  V30 28 H 2.984242 0.282290 0.234488 0
M  V30 29 H 2.789068 2.505007 1.179777 0
M  V30 30 H 0.941073 3.952813 0.526892 0
M  V30 31 H -0.574092 0.874501 -2.098486 0
M  V30 32 H 1.329767 -1.322229 2.149594 0
M  V30 33 H -0.430073 -1.748917 3.847825 0
M  V30 END ATOM
M  V30 BEGIN BOND
M  V30 1 1 1 2
M  V30 2 2 2 3
M  V30 3 1 3 4
M  V30 4 2 4 5
M  V30 5 1 5 6
M  V30 6 2 6 7
M  V30 7 2 6 8
M  V30 8 1 6 9
M  V30 9 1 9 10
M  V30 10 2 10 11
M  V30 11 1 11 12
M  V30 12 2 12 13
M  V30 13 1 13 14
M  V30 14 1 14 15
M  V30 15 1 15 16
M  V30 16 1 15 17
M  V30 17 1 15 18
M  V30 18 2 14 19
M  V30 19 1 5 20
M  V30 20 2 20 21
M  V30 21 1 21 2
M  V30 22 1 19 10
M  V30 23 1 1 22
M  V30 24 1 1 23
M  V30 25 1 1 24
M  V30 26 1 3 25
M  V30 27 1 4 26
M  V30 28 1 9 27
M  V30 29 1 11 28
M  V30 30 1 12 29
M  V30 31 1 13 30
M  V30 32 1 19 31
M  V30 33 1 20 32
M  V30 34 1 21 33
M  V30 END BOND
M  V30 END CTAB
M  END
>  <Dataset>  (402) 
ChEMBL_Kinases

>  <Ligand_Instance>  (402) 
nan

>  <PDB_ID>  (402) 
nan

>  <Standardized_SMILES>  (402) 
Cc1ccc(S(=O)(=O)Nc2cccc(C(F)(F)F)c2)cc1

>  <Name>  (402) 
nan

>  <Pocket>  (402) 
nan

>  <ATP_Site>  (402) 
nan

>  <Peripheral>  (402) 
nan

>  <Num_H_Atoms_ProtBoundConf>  (402) 
nan

>  <Num_Resolved_Atoms>  (402) 
nan

>  <Num_Not_Resolved_Atoms>  (402) 
nan

$$$$
CHEMBL1170113
     RDKit          3D

  0  0  0  0  0  0  0  0  0  0999 V3000
M  V30 BEGIN CTAB
M  V30 COUNTS 42 44 0 0 0
M  V30 BEGIN ATOM
M  V30 1 C 3.564590 -2.568537 0.280691 0
M  V30 2 C 3.353980 -2.968467 -1.129854 0
M  V30 3 C 3.479529 -4.308284 -1.424461 0
M  V30 4 C 3.314518 -4.700310 -2.732104 0
M  V30 5 C 3.032106 -3.810629 -3.740948 0
M  V30 6 C 2.923958 -2.484661 -3.348999 0
M  V30 7 C 3.073779 -1.986034 -2.046694 0
M  V30 8 C 2.873477 -0.565001 -1.846379 0
M  V30 9 O 3.626585 0.049924 -2.687621 0
M  V30 10 C 2.062106 0.257572 -0.968577 0
M  V30 11 C 1.739036 1.548296 -1.391955 0
M  V30 12 N 0.976674 2.137870 -0.453981 0
M  V30 13 C 0.771571 1.314401 0.573907 0
M  V30 14 C 0.000735 1.603805 1.764362 0
M  V30 15 O -0.522793 2.732032 1.876485 0
M  V30 16 N -0.206942 0.699116 2.819228 0
M  V30 17 C -0.868033 0.607617 4.087425 0
M  V30 18 C -2.317442 0.769352 3.928825 0
M  V30 19 C -3.121902 1.871830 3.832947 0
M  V30 20 F -2.529876 3.058235 3.966976 0
M  V30 21 C -4.480427 1.798512 3.642887 0
M  V30 22 C -5.147227 0.598918 3.534115 0
M  V30 23 C -4.373107 -0.540052 3.626147 0
M  V30 24 C -3.012906 -0.442396 3.816040 0
M  V30 25 F -2.399466 -1.648825 3.884108 0
M  V30 26 C 1.441439 0.159546 0.252195 0
M  V30 27 H 4.378209 -3.210257 0.711158 0
M  V30 28 H 3.781156 -1.511531 0.426001 0
M  V30 29 H 2.636447 -2.810984 0.851423 0
M  V30 30 H 3.698621 -5.014451 -0.650774 0
M  V30 31 H 3.407708 -5.738155 -2.983301 0
M  V30 32 H 2.894987 -4.071481 -4.778110 0
M  V30 33 H 2.699736 -1.772472 -4.145074 0
M  V30 34 H 1.991102 2.107698 -2.297153 0
M  V30 35 H 0.585790 3.101396 -0.494970 0
M  V30 36 H 0.303997 -0.201813 2.563481 0
M  V30 37 H -0.637470 -0.359040 4.564909 0
M  V30 38 H -0.456398 1.392650 4.796894 0
M  V30 39 H -5.043075 2.722102 3.576905 0
M  V30 40 H -6.215421 0.589852 3.385929 0
M  V30 41 H -4.905220 -1.476342 3.540075 0
M  V30 42 H 1.490765 -0.723549 0.849556 0
M  V30 END ATOM
M  V30 BEGIN BOND
M  V30 1 1 1 2
M  V30 2 2 2 3
M  V30 3 1 3 4
M  V30 4 2 4 5
M  V30 5 1 5 6
M  V30 6 2 6 7
M  V30 7 1 7 8
M  V30 8 2 8 9
M  V30 9 1 8 10
M  V30 10 2 10 11
M  V30 11 1 11 12
M  V30 12 1 12 13
M  V30 13 1 13 14
M  V30 14 2 14 15
M  V30 15 1 14 16
M  V30 16 1 16 17
M  V30 17 1 17 18
M  V30 18 2 18 19
M  V30 19 1 19 20
M  V30 20 1 19 21
M  V30 21 2 21 22
M  V30 22 1 22 23
M  V30 23 2 23 24
M  V30 24 1 24 25
M  V30 25 2 13 26
M  V30 26 1 7 2
M  V30 27 1 26 10
M  V30 28 1 24 18
M  V30 29 1 1 27
M  V30 30 1 1 28
M  V30 31 1 1 29
M  V30 32 1 3 30
M  V30 33 1 4 31
M  V30 34 1 5 32
M  V30 35 1 6 33
M  V30 36 1 11 34
M  V30 37 1 12 35
M  V30 38 1 16 36
M  V30 39 1 17 37
M  V30 40 1 17 38
M  V30 41 1 21 39
M  V30 42 1 22 40
M  V30 43 1 23 41
M  V30 44 1 26 42
M  V30 END BOND
M  V30 END CTAB
M  END
>  <Dataset>  (403) 
ChEMBL_Kinases

>  <Ligand_Instance>  (403) 
nan

>  <PDB_ID>  (403) 
nan

>  <Standardized_SMILES>  (403) 
Cc1ccccc1C(=O)c1c[nH]c(C(=O)NCc2c(F)cccc2F)c1

>  <Name>  (403) 
nan

>  <Pocket>  (403) 
nan

>  <ATP_Site>  (403) 
nan

>  <Peripheral>  (403) 
nan

>  <Num_H_Atoms_ProtBoundConf>  (403) 
nan

>  <Num_Resolved_Atoms>  (403) 
nan

>  <Num_Not_Resolved_Atoms>  (403) 
nan

$$$$
CHEMBL1165694
     RDKit          3D

  0  0  0  0  0  0  0  0  0  0999 V3000
M  V30 BEGIN CTAB
M  V30 COUNTS 49 53 0 0 0
M  V30 BEGIN ATOM
M  V30 1 C 0.976690 -3.435181 4.033729 0
M  V30 2 C 1.442613 -3.309201 2.605564 0
M  V30 3 C 2.209504 -4.295915 2.006252 0
M  V30 4 C 2.630237 -4.169862 0.698612 0
M  V30 5 C 2.293307 -3.050618 -0.043468 0
M  V30 6 C 1.529116 -2.083209 0.576899 0
M  V30 7 C 1.030471 -0.799966 0.028800 0
M  V30 8 N 1.776951 0.237852 -0.424634 0
M  V30 9 N 0.991031 1.219608 -0.838117 0
M  V30 10 C 1.412329 2.513477 -1.397030 0
M  V30 11 C 1.545465 3.451118 -0.224806 0
M  V30 12 C 2.736467 3.589832 0.467649 0
M  V30 13 C 2.912340 4.425575 1.537676 0
M  V30 14 C 1.816802 5.178305 1.945954 0
M  V30 15 C 0.617584 5.054430 1.267679 0
M  V30 16 C -0.546657 5.816347 1.656030 0
M  V30 17 N -1.497785 6.431413 1.956783 0
M  V30 18 C 0.461161 4.202127 0.186572 0
M  V30 19 C -0.299009 0.869750 -0.674542 0
M  V30 20 C -0.287005 -0.399756 -0.129651 0
M  V30 21 C -1.447780 -1.235497 0.240268 0
M  V30 22 C -2.427485 -0.988182 1.182939 0
M  V30 23 C -3.415225 -1.933107 1.340508 0
M  V30 24 C -3.407488 -3.076687 0.575208 0
M  V30 25 N -4.373773 -3.979837 0.742908 0
M  V30 26 C -4.426330 -5.128710 0.020966 0
M  V30 27 C -3.441417 -5.370040 -0.922224 0
M  V30 28 C -2.416477 -4.473747 -1.140835 0
M  V30 29 C -2.414899 -3.313771 -0.370906 0
M  V30 30 N -1.468101 -2.379347 -0.502981 0
M  V30 31 N 1.129737 -2.240674 1.873485 0
M  V30 32 H -0.083888 -3.104323 4.011129 0
M  V30 33 H 1.147294 -4.436394 4.425443 0
M  V30 34 H 1.544283 -2.635513 4.582684 0
M  V30 35 H 2.485370 -5.184093 2.572526 0
M  V30 36 H 3.223586 -4.895456 0.178809 0
M  V30 37 H 2.536804 -2.804014 -1.054069 0
M  V30 38 H 2.412981 2.328476 -1.838124 0
M  V30 39 H 0.668753 2.917515 -2.092260 0
M  V30 40 H 3.572387 2.974314 0.108007 0
M  V30 41 H 3.875060 4.506801 2.060134 0
M  V30 42 H 1.877276 5.854398 2.775462 0
M  V30 43 H -0.476821 4.102738 -0.346913 0
M  V30 44 H -1.212930 1.415089 -0.899602 0
M  V30 45 H -2.286146 -0.050163 1.694249 0
M  V30 46 H -4.155310 -1.693555 2.087630 0
M  V30 47 H -5.186416 -5.891254 0.118672 0
M  V30 48 H -3.379274 -6.254192 -1.560179 0
M  V30 49 H -1.612483 -4.584356 -1.853289 0
M  V30 END ATOM
M  V30 BEGIN BOND
M  V30 1 1 1 2
M  V30 2 2 2 3
M  V30 3 1 3 4
M  V30 4 2 4 5
M  V30 5 1 5 6
M  V30 6 1 6 7
M  V30 7 2 7 8
M  V30 8 1 8 9
M  V30 9 1 9 10
M  V30 10 1 10 11
M  V30 11 2 11 12
M  V30 12 1 12 13
M  V30 13 2 13 14
M  V30 14 1 14 15
M  V30 15 1 15 16
M  V30 16 3 16 17
M  V30 17 2 15 18
M  V30 18 1 9 19
M  V30 19 2 19 20
M  V30 20 1 20 21
M  V30 21 2 21 22
M  V30 22 1 22 23
M  V30 23 2 23 24
M  V30 24 1 24 25
M  V30 25 2 25 26
M  V30 26 1 26 27
M  V30 27 2 27 28
M  V30 28 1 28 29
M  V30 29 2 29 30
M  V30 30 2 6 31
M  V30 31 1 31 2
M  V30 32 1 20 7
M  V30 33 1 30 21
M  V30 34 1 18 11
M  V30 35 1 29 24
M  V30 36 1 1 32
M  V30 37 1 1 33
M  V30 38 1 1 34
M  V30 39 1 3 35
M  V30 40 1 4 36
M  V30 41 1 5 37
M  V30 42 1 10 38
M  V30 43 1 10 39
M  V30 44 1 12 40
M  V30 45 1 13 41
M  V30 46 1 14 42
M  V30 47 1 18 43
M  V30 48 1 19 44
M  V30 49 1 22 45
M  V30 50 1 23 46
M  V30 51 1 26 47
M  V30 52 1 27 48
M  V30 53 1 28 49
M  V30 END BOND
M  V30 END CTAB
M  END
>  <Dataset>  (404) 
ChEMBL_Kinases

>  <Ligand_Instance>  (404) 
nan

>  <PDB_ID>  (404) 
nan

>  <Standardized_SMILES>  (404) 
Cc1cccc(-c2nn(Cc3cccc(C#N)c3)cc2-c2ccc3ncccc3n2)n1

>  <Name>  (404) 
nan

>  <Pocket>  (404) 
nan

>  <ATP_Site>  (404) 
nan

>  <Peripheral>  (404) 
nan

>  <Num_H_Atoms_ProtBoundConf>  (404) 
nan

>  <Num_Resolved_Atoms>  (404) 
nan

>  <Num_Not_Resolved_Atoms>  (404) 
nan

$$$$
CHEMBL1189501
     RDKit          3D

  0  0  0  0  0  0  0  0  0  0999 V3000
M  V30 BEGIN CTAB
M  V30 COUNTS 47 51 0 0 0
M  V30 BEGIN ATOM
M  V30 1 C 0.692356 -2.555813 1.961508 0
M  V30 2 N 0.175533 -2.330487 3.289322 0
M  V30 3 C 0.046485 -0.995481 3.740853 0
M  V30 4 C 1.230781 -0.095688 3.831679 0
M  V30 5 O 1.700402 0.124163 2.556442 0
M  V30 6 C 2.631723 0.869717 1.972961 0
M  V30 7 C 3.841942 1.434421 2.291838 0
M  V30 8 C 4.568262 2.191346 1.397834 0
M  V30 9 C 4.045611 2.380576 0.135465 0
M  V30 10 C 2.827241 1.832949 -0.244150 0
M  V30 11 N 2.423291 2.069393 -1.511274 0
M  V30 12 C 1.258737 1.531421 -1.906847 0
M  V30 13 O 0.867308 1.777568 -3.174845 0
M  V30 14 C 0.543898 0.779502 -1.025699 0
M  V30 15 N 0.979607 0.589023 0.180604 0
M  V30 16 C 2.116541 1.074503 0.674555 0
M  V30 17 C -0.671446 0.088116 -1.369785 0
M  V30 18 C -1.129607 0.116948 -2.660377 0
M  V30 19 C -2.253041 -0.557732 -3.117132 0
M  V30 20 C -2.976378 -1.320571 -2.220386 0
M  V30 21 C -2.567176 -1.388452 -0.912882 0
M  V30 22 C -2.971675 -2.005386 0.243302 0
M  V30 23 O -4.102795 -2.806445 0.201443 0
M  V30 24 N -2.137742 -1.700835 1.288297 0
M  V30 25 N -1.268022 -0.911718 0.705793 0
M  V30 26 C -1.448774 -0.687575 -0.557276 0
M  V30 27 C -2.235064 -2.122130 2.623404 0
M  V30 28 C -1.213596 -2.914994 3.307034 0
M  V30 29 H -0.050190 -3.113501 1.377497 0
M  V30 30 H 1.526484 -3.353673 2.067421 0
M  V30 31 H 1.105063 -1.724549 1.458219 0
M  V30 32 H -0.306982 -1.095831 4.832200 0
M  V30 33 H -0.781595 -0.394589 3.290734 0
M  V30 34 H 0.867588 0.850066 4.316901 0
M  V30 35 H 2.000553 -0.481779 4.533828 0
M  V30 36 H 4.067237 1.164356 3.324930 0
M  V30 37 H 5.493843 2.566958 1.788588 0
M  V30 38 H 4.660295 2.983150 -0.519112 0
M  V30 39 H 0.612303 2.671286 -3.594614 0
M  V30 40 H -0.701299 0.641342 -3.485557 0
M  V30 41 H -2.654851 -0.567579 -4.116926 0
M  V30 42 H -3.862559 -1.871939 -2.515178 0
M  V30 43 H -4.111701 -3.786665 0.430792 0
M  V30 44 H -3.203883 -2.757425 2.715825 0
M  V30 45 H -2.512690 -1.219602 3.246195 0
M  V30 46 H -1.084904 -3.917457 2.892763 0
M  V30 47 H -1.447026 -3.003178 4.375408 0
M  V30 END ATOM
M  V30 BEGIN BOND
M  V30 1 1 1 2
M  V30 2 1 2 3
M  V30 3 1 3 4
M  V30 4 1 4 5
M  V30 5 1 5 6
M  V30 6 2 6 7
M  V30 7 1 7 8
M  V30 8 2 8 9
M  V30 9 1 9 10
M  V30 10 2 10 11
M  V30 11 1 11 12
M  V30 12 1 12 13
M  V30 13 2 12 14
M  V30 14 1 14 15
M  V30 15 2 15 16
M  V30 16 1 14 17
M  V30 17 2 17 18
M  V30 18 1 18 19
M  V30 19 2 19 20
M  V30 20 1 20 21
M  V30 21 2 21 22
M  V30 22 1 22 23
M  V30 23 1 22 24
M  V30 24 1 24 25
M  V30 25 2 25 26
M  V30 26 1 24 27
M  V30 27 1 27 28
M  V30 28 1 28 2
M  V30 29 1 16 6
M  V30 30 1 26 17
M  V30 31 1 16 10
M  V30 32 1 26 21
M  V30 33 1 1 29
M  V30 34 1 1 30
M  V30 35 1 1 31
M  V30 36 1 3 32
M  V30 37 1 3 33
M  V30 38 1 4 34
M  V30 39 1 4 35
M  V30 40 1 7 36
M  V30 41 1 8 37
M  V30 42 1 9 38
M  V30 43 1 13 39
M  V30 44 1 18 40
M  V30 45 1 19 41
M  V30 46 1 20 42
M  V30 47 1 23 43
M  V30 48 1 27 44
M  V30 49 1 27 45
M  V30 50 1 28 46
M  V30 51 1 28 47
M  V30 END BOND
M  V30 END CTAB
M  END
>  <Dataset>  (405) 
ChEMBL_Kinases

>  <Ligand_Instance>  (405) 
nan

>  <PDB_ID>  (405) 
nan

>  <Standardized_SMILES>  (405) 
CN1CCOc2cccc3nc(O)c(nc23)-c2cccc3c(O)n(nc23)CC1

>  <Name>  (405) 
nan

>  <Pocket>  (405) 
nan

>  <ATP_Site>  (405) 
nan

>  <Peripheral>  (405) 
nan

>  <Num_H_Atoms_ProtBoundConf>  (405) 
nan

>  <Num_Resolved_Atoms>  (405) 
nan

>  <Num_Not_Resolved_Atoms>  (405) 
nan

$$$$
CHEMBL118917
     RDKit          3D

  0  0  0  0  0  0  0  0  0  0999 V3000
M  V30 BEGIN CTAB
M  V30 COUNTS 46 50 0 0 0
M  V30 BEGIN ATOM
M  V30 1 O -3.352614 -0.274999 2.659542 0
M  V30 2 C -2.149696 -0.679943 2.493204 0
M  V30 3 C -1.105342 -0.543895 3.540861 0
M  V30 4 C 0.082222 0.139879 2.950846 0
M  V30 5 C 0.400996 -0.513038 1.653687 0
M  V30 6 C 1.736965 -0.522113 1.042685 0
M  V30 7 C 2.357745 0.505657 0.402921 0
M  V30 8 C 1.870807 1.847578 0.165210 0
M  V30 9 C 0.646150 2.040373 -0.449077 0
M  V30 10 C 0.306498 3.365215 -0.613254 0
M  V30 11 C 1.048627 4.462438 -0.235071 0
M  V30 12 F 0.614471 5.727612 -0.446825 0
M  V30 13 C 2.258739 4.178206 0.371396 0
M  V30 14 C 2.697505 2.870508 0.585445 0
M  V30 15 Cl 4.238065 2.549145 1.358295 0
M  V30 16 N 3.587256 0.087328 -0.018240 0
M  V30 17 C 3.737739 -1.204974 0.358002 0
M  V30 18 C 4.785162 -2.083715 0.178819 0
M  V30 19 C 4.716702 -3.381650 0.657461 0
M  V30 20 C 3.553288 -3.763622 1.324228 0
M  V30 21 C 2.558386 -2.818505 1.456246 0
M  V30 22 N 2.598133 -1.554110 1.002407 0
M  V30 23 N -0.435044 -1.148504 0.901097 0
M  V30 24 N -1.787531 -1.286627 1.258094 0
M  V30 25 C -2.768302 -1.975365 0.472819 0
M  V30 26 C -3.146530 -3.302058 0.497492 0
M  V30 27 C -4.127171 -3.726067 -0.368852 0
M  V30 28 C -4.756957 -2.898047 -1.264575 0
M  V30 29 C -4.376137 -1.573121 -1.285967 0
M  V30 30 C -3.383925 -1.094895 -0.424688 0
M  V30 31 Cl -3.053892 0.608134 -0.614494 0
M  V30 32 H -1.523310 0.002298 4.411714 0
M  V30 33 H -0.798703 -1.580982 3.824479 0
M  V30 34 H 0.949459 0.199387 3.622082 0
M  V30 35 H -0.199052 1.189766 2.696825 0
M  V30 36 H 0.005261 1.234067 -0.774736 0
M  V30 37 H -0.649643 3.595545 -1.092998 0
M  V30 38 H 2.903924 4.981609 0.699720 0
M  V30 39 H 5.689018 -1.788850 -0.338869 0
M  V30 40 H 5.474988 -4.126625 0.565566 0
M  V30 41 H 3.447866 -4.760701 1.716193 0
M  V30 42 H 1.663901 -3.145752 1.980669 0
M  V30 43 H -2.606960 -3.862285 1.219068 0
M  V30 44 H -4.395380 -4.771638 -0.319161 0
M  V30 45 H -5.523204 -3.290759 -1.922346 0
M  V30 46 H -4.902184 -0.958375 -2.010019 0
M  V30 END ATOM
M  V30 BEGIN BOND
M  V30 1 2 1 2
M  V30 2 1 2 3
M  V30 3 1 3 4
M  V30 4 1 4 5
M  V30 5 1 5 6
M  V30 6 2 6 7
M  V30 7 1 7 8
M  V30 8 2 8 9
M  V30 9 1 9 10
M  V30 10 2 10 11
M  V30 11 1 11 12
M  V30 12 1 11 13
M  V30 13 2 13 14
M  V30 14 1 14 15
M  V30 15 1 7 16
M  V30 16 2 16 17
M  V30 17 1 17 18
M  V30 18 2 18 19
M  V30 19 1 19 20
M  V30 20 2 20 21
M  V30 21 1 21 22
M  V30 22 2 5 23
M  V30 23 1 23 24
M  V30 24 1 24 25
M  V30 25 2 25 26
M  V30 26 1 26 27
M  V30 27 2 27 28
M  V30 28 1 28 29
M  V30 29 2 29 30
M  V30 30 1 30 31
M  V30 31 1 24 2
M  V30 32 1 30 25
M  V30 33 1 22 6
M  V30 34 1 14 8
M  V30 35 1 22 17
M  V30 36 1 3 32
M  V30 37 1 3 33
M  V30 38 1 4 34
M  V30 39 1 4 35
M  V30 40 1 9 36
M  V30 41 1 10 37
M  V30 42 1 13 38
M  V30 43 1 18 39
M  V30 44 1 19 40
M  V30 45 1 20 41
M  V30 46 1 21 42
M  V30 47 1 26 43
M  V30 48 1 27 44
M  V30 49 1 28 45
M  V30 50 1 29 46
M  V30 END BOND
M  V30 END CTAB
M  END
>  <Dataset>  (406) 
ChEMBL_Kinases

>  <Ligand_Instance>  (406) 
nan

>  <PDB_ID>  (406) 
nan

>  <Standardized_SMILES>  (406) 
O=C1CCC(c2c(-c3ccc(F)cc3Cl)nc3ccccn23)=NN1c1ccccc1Cl

>  <Name>  (406) 
nan

>  <Pocket>  (406) 
nan

>  <ATP_Site>  (406) 
nan

>  <Peripheral>  (406) 
nan

>  <Num_H_Atoms_ProtBoundConf>  (406) 
nan

>  <Num_Resolved_Atoms>  (406) 
nan

>  <Num_Not_Resolved_Atoms>  (406) 
nan

$$$$
CHEMBL118768
     RDKit          3D

  0  0  0  0  0  0  0  0  0  0999 V3000
M  V30 BEGIN CTAB
M  V30 COUNTS 44 48 0 0 0
M  V30 BEGIN ATOM
M  V30 1 O 0.953072 -4.446976 -0.344976 0
M  V30 2 C 0.778145 -3.395281 0.334003 0
M  V30 3 C 1.181038 -3.474046 1.646395 0
M  V30 4 C 0.983214 -2.307829 2.385161 0
M  V30 5 C 0.422117 -1.188849 1.795423 0
M  V30 6 C 0.174979 0.079441 2.474871 0
M  V30 7 C 0.817862 1.207098 1.983089 0
M  V30 8 C 1.732322 1.383363 0.870762 0
M  V30 9 C 2.910658 0.694111 0.994622 0
M  V30 10 C 3.859174 0.786309 -0.004336 0
M  V30 11 C 3.621530 1.569798 -1.123529 0
M  V30 12 F 4.491395 1.722185 -2.155162 0
M  V30 13 C 2.432299 2.258175 -1.236441 0
M  V30 14 C 1.483554 2.166352 -0.237815 0
M  V30 15 Cl -0.064389 3.007826 -0.292662 0
M  V30 16 N 0.440860 2.234888 2.759889 0
M  V30 17 C -0.406253 1.806368 3.713962 0
M  V30 18 C -1.077838 2.432473 4.749735 0
M  V30 19 C -1.885973 1.655299 5.553235 0
M  V30 20 C -2.014804 0.291691 5.322704 0
M  V30 21 C -1.336599 -0.313384 4.284633 0
M  V30 22 N -0.560896 0.483267 3.528059 0
M  V30 23 N 0.078027 -1.257839 0.506852 0
M  V30 24 N 0.233206 -2.323901 -0.257790 0
M  V30 25 C -0.171294 -2.286598 -1.621812 0
M  V30 26 C 0.601027 -2.345079 -2.757632 0
M  V30 27 Cl 2.318712 -2.483957 -2.464690 0
M  V30 28 C -0.027306 -2.290859 -4.001116 0
M  V30 29 C -1.399486 -2.180487 -4.076635 0
M  V30 30 C -2.193264 -2.120232 -2.949436 0
M  V30 31 C -1.551227 -2.175631 -1.706729 0
M  V30 32 Cl -2.668370 -2.090265 -0.348772 0
M  V30 33 H 1.618202 -4.353467 2.095886 0
M  V30 34 H 1.255670 -2.240162 3.423609 0
M  V30 35 H 3.215008 0.048698 1.819851 0
M  V30 36 H 4.823031 0.305150 -0.044448 0
M  V30 37 H 2.212377 2.886136 -2.106389 0
M  V30 38 H -0.940671 3.496878 4.883309 0
M  V30 39 H -2.386280 2.215684 6.351710 0
M  V30 40 H -2.664927 -0.233104 5.998398 0
M  V30 41 H -1.442071 -1.375574 4.111811 0
M  V30 42 H 0.659113 -2.343119 -4.840868 0
M  V30 43 H -1.844495 -2.141383 -5.061807 0
M  V30 44 H -3.262566 -2.033985 -3.077339 0
M  V30 END ATOM
M  V30 BEGIN BOND
M  V30 1 2 1 2
M  V30 2 1 2 3
M  V30 3 2 3 4
M  V30 4 1 4 5
M  V30 5 1 5 6
M  V30 6 2 6 7
M  V30 7 1 7 8
M  V30 8 2 8 9
M  V30 9 1 9 10
M  V30 10 2 10 11
M  V30 11 1 11 12
M  V30 12 1 11 13
M  V30 13 2 13 14
M  V30 14 1 14 15
M  V30 15 1 7 16
M  V30 16 2 16 17
M  V30 17 1 17 18
M  V30 18 2 18 19
M  V30 19 1 19 20
M  V30 20 2 20 21
M  V30 21 1 21 22
M  V30 22 2 5 23
M  V30 23 1 23 24
M  V30 24 1 24 25
M  V30 25 2 25 26
M  V30 26 1 26 27
M  V30 27 1 26 28
M  V30 28 2 28 29
M  V30 29 1 29 30
M  V30 30 2 30 31
M  V30 31 1 31 32
M  V30 32 1 24 2
M  V30 33 1 31 25
M  V30 34 1 22 6
M  V30 35 1 14 8
M  V30 36 1 22 17
M  V30 37 1 3 33
M  V30 38 1 4 34
M  V30 39 1 9 35
M  V30 40 1 10 36
M  V30 41 1 13 37
M  V30 42 1 18 38
M  V30 43 1 19 39
M  V30 44 1 20 40
M  V30 45 1 21 41
M  V30 46 1 28 42
M  V30 47 1 29 43
M  V30 48 1 30 44
M  V30 END BOND
M  V30 END CTAB
M  END
>  <Dataset>  (407) 
ChEMBL_Kinases

>  <Ligand_Instance>  (407) 
nan

>  <PDB_ID>  (407) 
nan

>  <Standardized_SMILES>  (407) 
O=c1ccc(-c2c(-c3ccc(F)cc3Cl)nc3ccccn23)nn1-c1c(Cl)cccc1Cl

>  <Name>  (407) 
nan

>  <Pocket>  (407) 
nan

>  <ATP_Site>  (407) 
nan

>  <Peripheral>  (407) 
nan

>  <Num_H_Atoms_ProtBoundConf>  (407) 
nan

>  <Num_Resolved_Atoms>  (407) 
nan

>  <Num_Not_Resolved_Atoms>  (407) 
nan

$$$$
CHEMBL118651
     RDKit          3D

  0  0  0  0  0  0  0  0  0  0999 V3000
M  V30 BEGIN CTAB
M  V30 COUNTS 47 51 0 0 0
M  V30 BEGIN ATOM
M  V30 1 C -0.574496 -3.054900 4.329385 0
M  V30 2 C 0.555379 -2.086809 4.328533 0
M  V30 3 C 1.546666 -2.448706 5.234112 0
M  V30 4 C 2.687173 -1.688762 5.396851 0
M  V30 5 C 2.847183 -0.543729 4.643085 0
M  V30 6 C 1.867243 -0.179943 3.743038 0
M  V30 7 C 0.728861 -0.941405 3.583019 0
M  V30 8 N -0.362619 -0.699029 2.702550 0
M  V30 9 N -0.027466 -0.731917 1.423786 0
M  V30 10 C -0.896692 -0.533220 0.429316 0
M  V30 11 C -0.589269 -0.556184 -0.995399 0
M  V30 12 C 0.274456 0.363388 -1.602286 0
M  V30 13 C 1.008964 1.469777 -0.998340 0
M  V30 14 C 2.003842 1.411701 -0.046438 0
M  V30 15 C 2.620309 2.517738 0.447388 0
M  V30 16 C 2.191604 3.742500 -0.063820 0
M  V30 17 F 2.804956 4.870237 0.425396 0
M  V30 18 C 1.204432 3.851439 -1.012558 0
M  V30 19 C 0.613815 2.695159 -1.477409 0
M  V30 20 Cl -0.641176 2.971784 -2.695597 0
M  V30 21 N 0.314812 0.029672 -2.925968 0
M  V30 22 C -0.478532 -1.033853 -3.120057 0
M  V30 23 C -0.752198 -1.726745 -4.305356 0
M  V30 24 C -1.627752 -2.796575 -4.159167 0
M  V30 25 C -2.196720 -3.166363 -2.948216 0
M  V30 26 C -1.871972 -2.421520 -1.807858 0
M  V30 27 N -1.032531 -1.397275 -1.952736 0
M  V30 28 C -2.213595 -0.280029 0.736565 0
M  V30 29 C -2.604723 -0.237813 2.079359 0
M  V30 30 C -1.645764 -0.453415 3.042606 0
M  V30 31 O -1.879025 -0.439969 4.300035 0
M  V30 32 H -1.218988 -2.961988 3.430276 0
M  V30 33 H -0.190073 -4.113550 4.387798 0
M  V30 34 H -1.123762 -2.892452 5.287644 0
M  V30 35 H 1.527872 -3.326976 5.879632 0
M  V30 36 H 3.487747 -1.951156 6.106891 0
M  V30 37 H 3.734644 0.092010 4.736525 0
M  V30 38 H 1.907764 0.708198 3.105105 0
M  V30 39 H 2.255222 0.411166 0.275710 0
M  V30 40 H 3.396322 2.425990 1.192923 0
M  V30 41 H 0.958491 4.870889 -1.332592 0
M  V30 42 H -0.338009 -1.481802 -5.273052 0
M  V30 43 H -1.846478 -3.341369 -5.077384 0
M  V30 44 H -2.878635 -4.018961 -2.898984 0
M  V30 45 H -2.325963 -2.721188 -0.859831 0
M  V30 46 H -3.001672 -0.105335 0.023075 0
M  V30 47 H -3.629560 -0.042978 2.404042 0
M  V30 END ATOM
M  V30 BEGIN BOND
M  V30 1 1 1 2
M  V30 2 2 2 3
M  V30 3 1 3 4
M  V30 4 2 4 5
M  V30 5 1 5 6
M  V30 6 2 6 7
M  V30 7 1 7 8
M  V30 8 1 8 9
M  V30 9 2 9 10
M  V30 10 1 10 11
M  V30 11 2 11 12
M  V30 12 1 12 13
M  V30 13 2 13 14
M  V30 14 1 14 15
M  V30 15 2 15 16
M  V30 16 1 16 17
M  V30 17 1 16 18
M  V30 18 2 18 19
M  V30 19 1 19 20
M  V30 20 1 12 21
M  V30 21 2 21 22
M  V30 22 1 22 23
M  V30 23 2 23 24
M  V30 24 1 24 25
M  V30 25 2 25 26
M  V30 26 1 26 27
M  V30 27 1 10 28
M  V30 28 2 28 29
M  V30 29 1 29 30
M  V30 30 2 30 31
M  V30 31 1 7 2
M  V30 32 1 30 8
M  V30 33 1 27 11
M  V30 34 1 19 13
M  V30 35 1 27 22
M  V30 36 1 1 32
M  V30 37 1 1 33
M  V30 38 1 1 34
M  V30 39 1 3 35
M  V30 40 1 4 36
M  V30 41 1 5 37
M  V30 42 1 6 38
M  V30 43 1 14 39
M  V30 44 1 15 40
M  V30 45 1 18 41
M  V30 46 1 23 42
M  V30 47 1 24 43
M  V30 48 1 25 44
M  V30 49 1 26 45
M  V30 50 1 28 46
M  V30 51 1 29 47
M  V30 END BOND
M  V30 END CTAB
M  END
>  <Dataset>  (408) 
ChEMBL_Kinases

>  <Ligand_Instance>  (408) 
nan

>  <PDB_ID>  (408) 
nan

>  <Standardized_SMILES>  (408) 
Cc1ccccc1-n1nc(-c2c(-c3ccc(F)cc3Cl)nc3ccccn23)ccc1=O

>  <Name>  (408) 
nan

>  <Pocket>  (408) 
nan

>  <ATP_Site>  (408) 
nan

>  <Peripheral>  (408) 
nan

>  <Num_H_Atoms_ProtBoundConf>  (408) 
nan

>  <Num_Resolved_Atoms>  (408) 
nan

>  <Num_Not_Resolved_Atoms>  (408) 
nan

$$$$
CHEMBL118466
     RDKit          3D

  0  0  0  0  0  0  0  0  0  0999 V3000
M  V30 BEGIN CTAB
M  V30 COUNTS 49 53 0 0 0
M  V30 BEGIN ATOM
M  V30 1 C 0.512068 -1.910670 5.140232 0
M  V30 2 C 1.617850 -2.004853 4.193137 0
M  V30 3 C 2.883287 -2.010035 4.783973 0
M  V30 4 C 4.037509 -2.051441 4.034592 0
M  V30 5 C 3.903367 -2.088198 2.662001 0
M  V30 6 C 2.656572 -2.082303 2.134431 0
M  V30 7 C 1.469178 -2.042862 2.834758 0
M  V30 8 N 0.239136 -2.014161 2.135018 0
M  V30 9 N 0.302485 -1.371801 0.864566 0
M  V30 10 C -0.781892 -1.254414 0.181785 0
M  V30 11 C -0.711718 -0.589271 -1.137715 0
M  V30 12 C -0.489122 0.776482 -1.332277 0
M  V30 13 C -0.273575 1.851190 -0.375419 0
M  V30 14 C 0.682313 1.991895 0.606467 0
M  V30 15 C 0.747632 3.089958 1.426109 0
M  V30 16 C -0.179290 4.118008 1.278947 0
M  V30 17 F 0.013118 5.128615 2.155548 0
M  V30 18 C -1.153734 4.007245 0.300317 0
M  V30 19 C -1.197936 2.894119 -0.510165 0
M  V30 20 Cl -2.511208 2.928066 -1.696004 0
M  V30 21 N -0.504835 1.014471 -2.656652 0
M  V30 22 C -0.727694 -0.148402 -3.301164 0
M  V30 23 C -0.842481 -0.491542 -4.642618 0
M  V30 24 C -1.082072 -1.805784 -5.056750 0
M  V30 25 C -1.193824 -2.729563 -4.009614 0
M  V30 26 C -1.080484 -2.395312 -2.664641 0
M  V30 27 N -0.850096 -1.100856 -2.386681 0
M  V30 28 C -2.186816 -1.658231 0.481156 0
M  V30 29 C -2.320273 -1.848001 1.998331 0
M  V30 30 C -1.059934 -2.460381 2.486326 0
M  V30 31 O -1.034710 -3.464976 3.278043 0
M  V30 32 H -0.385072 -1.372469 4.788713 0
M  V30 33 H 0.249333 -2.895429 5.564390 0
M  V30 34 H 0.820605 -1.311740 6.064998 0
M  V30 35 H 3.031810 -1.981505 5.856992 0
M  V30 36 H 5.021461 -2.056540 4.492451 0
M  V30 37 H 4.780489 -2.121578 2.032078 0
M  V30 38 H 2.592133 -2.111548 1.040417 0
M  V30 39 H 1.366291 1.168575 0.662417 0
M  V30 40 H 1.566796 3.047259 2.156784 0
M  V30 41 H -1.808250 4.851490 0.280479 0
M  V30 42 H -0.749434 0.255303 -5.426581 0
M  V30 43 H -1.177693 -2.117831 -6.083572 0
M  V30 44 H -1.379032 -3.746220 -4.329723 0
M  V30 45 H -1.191123 -3.222250 -1.995223 0
M  V30 46 H -2.547822 -2.507608 -0.096547 0
M  V30 47 H -2.829271 -0.786475 0.261395 0
M  V30 48 H -2.515948 -0.915605 2.536840 0
M  V30 49 H -3.135194 -2.560274 2.233251 0
M  V30 END ATOM
M  V30 BEGIN BOND
M  V30 1 1 1 2
M  V30 2 2 2 3
M  V30 3 1 3 4
M  V30 4 2 4 5
M  V30 5 1 5 6
M  V30 6 2 6 7
M  V30 7 1 7 8
M  V30 8 1 8 9
M  V30 9 2 9 10
M  V30 10 1 10 11
M  V30 11 2 11 12
M  V30 12 1 12 13
M  V30 13 2 13 14
M  V30 14 1 14 15
M  V30 15 2 15 16
M  V30 16 1 16 17
M  V30 17 1 16 18
M  V30 18 2 18 19
M  V30 19 1 19 20
M  V30 20 1 12 21
M  V30 21 2 21 22
M  V30 22 1 22 23
M  V30 23 2 23 24
M  V30 24 1 24 25
M  V30 25 2 25 26
M  V30 26 1 26 27
M  V30 27 1 10 28
M  V30 28 1 28 29
M  V30 29 1 29 30
M  V30 30 2 30 31
M  V30 31 1 7 2
M  V30 32 1 30 8
M  V30 33 1 27 11
M  V30 34 1 19 13
M  V30 35 1 27 22
M  V30 36 1 1 32
M  V30 37 1 1 33
M  V30 38 1 1 34
M  V30 39 1 3 35
M  V30 40 1 4 36
M  V30 41 1 5 37
M  V30 42 1 6 38
M  V30 43 1 14 39
M  V30 44 1 15 40
M  V30 45 1 18 41
M  V30 46 1 23 42
M  V30 47 1 24 43
M  V30 48 1 25 44
M  V30 49 1 26 45
M  V30 50 1 28 46
M  V30 51 1 28 47
M  V30 52 1 29 48
M  V30 53 1 29 49
M  V30 END BOND
M  V30 END CTAB
M  END
>  <Dataset>  (409) 
ChEMBL_Kinases

>  <Ligand_Instance>  (409) 
nan

>  <PDB_ID>  (409) 
nan

>  <Standardized_SMILES>  (409) 
Cc1ccccc1N1N=C(c2c(-c3ccc(F)cc3Cl)nc3ccccn23)CCC1=O

>  <Name>  (409) 
nan

>  <Pocket>  (409) 
nan

>  <ATP_Site>  (409) 
nan

>  <Peripheral>  (409) 
nan

>  <Num_H_Atoms_ProtBoundConf>  (409) 
nan

>  <Num_Resolved_Atoms>  (409) 
nan

>  <Num_Not_Resolved_Atoms>  (409) 
nan

$$$$
CHEMBL118305
     RDKit          3D

  0  0  0  0  0  0  0  0  0  0999 V3000
M  V30 BEGIN CTAB
M  V30 COUNTS 18 19 0 0 0
M  V30 BEGIN ATOM
M  V30 1 O -1.118267 1.679588 4.203221 0
M  V30 2 C -0.433667 1.166172 3.274854 0
M  V30 3 N 0.674628 0.256768 3.387664 0
M  V30 4 C 1.108582 -0.032779 2.058001 0
M  V30 5 C 2.153234 -0.867268 1.695760 0
M  V30 6 C 2.377154 -0.983505 0.324698 0
M  V30 7 C 1.625758 -0.323687 -0.645256 0
M  V30 8 N 1.923475 -0.499611 -2.026737 0 CHG=1 VAL=4
M  V30 9 O 1.187036 0.139966 -2.830853 0
M  V30 10 O 2.965987 -1.332186 -2.392364 0 CHG=-1 VAL=1
M  V30 11 C 0.614243 0.478298 -0.169891 0
M  V30 12 C 0.322170 0.652019 1.162008 0
M  V30 13 C -0.687871 1.442680 1.846407 0
M  V30 14 O -1.568318 2.184582 1.354960 0
M  V30 15 H 1.071990 -0.110889 4.287244 0
M  V30 16 H 2.765949 -1.401181 2.401323 0
M  V30 17 H 3.184907 -1.624446 -0.044346 0
M  V30 18 H 0.020984 0.998872 -0.927237 0
M  V30 END ATOM
M  V30 BEGIN BOND
M  V30 1 2 1 2
M  V30 2 1 2 3
M  V30 3 1 3 4
M  V30 4 2 4 5
M  V30 5 1 5 6
M  V30 6 2 6 7
M  V30 7 1 7 8
M  V30 8 2 8 9
M  V30 9 1 8 10
M  V30 10 1 7 11
M  V30 11 2 11 12
M  V30 12 1 12 13
M  V30 13 2 13 14
M  V30 14 1 13 2
M  V30 15 1 12 4
M  V30 16 1 3 15
M  V30 17 1 5 16
M  V30 18 1 6 17
M  V30 19 1 11 18
M  V30 END BOND
M  V30 END CTAB
M  END
>  <Dataset>  (410) 
ChEMBL_Kinases

>  <Ligand_Instance>  (410) 
nan

>  <PDB_ID>  (410) 
nan

>  <Standardized_SMILES>  (410) 
O=C1Nc2ccc([N+](=O)[O-])cc2C1=O

>  <Name>  (410) 
5-NITROISATIN

>  <Pocket>  (410) 
nan

>  <ATP_Site>  (410) 
nan

>  <Peripheral>  (410) 
nan

>  <Num_H_Atoms_ProtBoundConf>  (410) 
nan

>  <Num_Resolved_Atoms>  (410) 
nan

>  <Num_Not_Resolved_Atoms>  (410) 
nan

$$$$
CHEMBL118258
     RDKit          3D

  0  0  0  0  0  0  0  0  0  0999 V3000
M  V30 BEGIN CTAB
M  V30 COUNTS 64 68 0 0 0
M  V30 BEGIN ATOM
M  V30 1 C 2.661412 -1.465708 4.789342 0
M  V30 2 N 3.225090 -0.467354 3.910142 0
M  V30 3 C 4.526805 -0.805835 3.406752 0
M  V30 4 C 4.920858 0.261003 2.411956 0
M  V30 5 C 3.799214 1.269525 2.197630 0
M  V30 6 O 4.263680 2.211874 1.283375 0
M  V30 7 C 2.645864 0.523518 1.608232 0
M  V30 8 C 1.402825 1.060726 1.250376 0
M  V30 9 N 0.610066 0.067509 0.745908 0
M  V30 10 C -0.700845 0.433214 0.327259 0
M  V30 11 C -1.526890 0.904083 1.327844 0
M  V30 12 C -2.805722 1.266673 0.947377 0
M  V30 13 N -3.227566 1.169613 -0.318922 0
M  V30 14 C -2.410486 0.709143 -1.280814 0
M  V30 15 N -2.828886 0.594381 -2.634193 0
M  V30 16 C -4.146660 0.957451 -3.055796 0
M  V30 17 C -5.242089 0.139582 -2.384816 0
M  V30 18 C -5.119577 -1.186945 -3.117697 0
M  V30 19 C -4.828635 -0.783739 -4.538389 0
M  V30 20 C -4.379476 0.639687 -4.514089 0
M  V30 21 N -1.145973 0.343922 -0.939815 0
M  V30 22 C 1.326510 -1.045543 0.786025 0
M  V30 23 C 0.759953 -2.302554 0.312334 0
M  V30 24 C 1.693003 -3.173131 -0.263981 0
M  V30 25 C 1.284765 -4.399587 -0.752670 0
M  V30 26 C -0.044347 -4.758570 -0.668794 0
M  V30 27 C -0.943421 -3.876065 -0.093373 0
M  V30 28 C -2.349590 -4.313504 -0.031245 0
M  V30 29 F -3.166917 -3.391795 0.581571 0
M  V30 30 F -2.415745 -5.480248 0.741657 0
M  V30 31 F -2.848302 -4.682189 -1.269577 0
M  V30 32 C -0.557999 -2.647451 0.400622 0
M  V30 33 N 2.548420 -0.802022 1.297333 0
M  V30 34 C 3.408745 1.874751 3.506817 0
M  V30 35 C 3.378029 0.819469 4.592201 0
M  V30 36 H 2.659496 -1.121904 5.856369 0
M  V30 37 H 1.586704 -1.572723 4.531246 0
M  V30 38 H 3.112312 -2.469531 4.659687 0
M  V30 39 H 4.605827 -1.831402 3.024074 0
M  V30 40 H 5.232143 -0.736792 4.268859 0
M  V30 41 H 5.781040 0.873195 2.788583 0
M  V30 42 H 5.231175 -0.213504 1.469018 0
M  V30 43 H 4.837099 2.863369 1.732339 0
M  V30 44 H 1.206014 2.133741 1.398024 0
M  V30 45 H -1.288094 1.022289 2.378061 0
M  V30 46 H -3.550069 1.650700 1.636964 0
M  V30 47 H -2.173219 0.239237 -3.349919 0
M  V30 48 H -4.348337 2.041152 -2.916671 0
M  V30 49 H -6.225280 0.596848 -2.514450 0
M  V30 50 H -4.969980 -0.061512 -1.345629 0
M  V30 51 H -6.080207 -1.744278 -3.042633 0
M  V30 52 H -4.287118 -1.775039 -2.689739 0
M  V30 53 H -5.763024 -0.814516 -5.168906 0
M  V30 54 H -4.036479 -1.435291 -4.986399 0
M  V30 55 H -5.105416 1.333701 -4.982851 0
M  V30 56 H -3.376886 0.727016 -5.018260 0
M  V30 57 H 2.749669 -2.925306 -0.347915 0
M  V30 58 H 2.034376 -5.056144 -1.195804 0
M  V30 59 H -0.302588 -5.732426 -1.069259 0
M  V30 60 H -1.246436 -1.956545 0.848233 0
M  V30 61 H 2.343508 2.214790 3.388731 0
M  V30 62 H 4.005930 2.755790 3.789903 0
M  V30 63 H 4.323643 0.804960 5.184171 0
M  V30 64 H 2.488549 0.940862 5.247307 0
M  V30 END ATOM
M  V30 BEGIN BOND
M  V30 1 1 1 2
M  V30 2 1 2 3
M  V30 3 1 3 4
M  V30 4 1 4 5
M  V30 5 1 5 6
M  V30 6 1 5 7
M  V30 7 2 7 8
M  V30 8 1 8 9
M  V30 9 1 9 10
M  V30 10 2 10 11
M  V30 11 1 11 12
M  V30 12 2 12 13
M  V30 13 1 13 14
M  V30 14 1 14 15
M  V30 15 1 15 16
M  V30 16 1 16 17
M  V30 17 1 17 18
M  V30 18 1 18 19
M  V30 19 1 19 20
M  V30 20 2 14 21
M  V30 21 1 9 22
M  V30 22 1 22 23
M  V30 23 2 23 24
M  V30 24 1 24 25
M  V30 25 2 25 26
M  V30 26 1 26 27
M  V30 27 1 27 28
M  V30 28 1 28 29
M  V30 29 1 28 30
M  V30 30 1 28 31
M  V30 31 2 27 32
M  V30 32 2 22 33
M  V30 33 1 5 34
M  V30 34 1 34 35
M  V30 35 1 35 2
M  V30 36 1 33 7
M  V30 37 1 21 10
M  V30 38 1 32 23
M  V30 39 1 20 16
M  V30 40 1 1 36
M  V30 41 1 1 37
M  V30 42 1 1 38
M  V30 43 1 3 39
M  V30 44 1 3 40
M  V30 45 1 4 41
M  V30 46 1 4 42
M  V30 47 1 6 43
M  V30 48 1 8 44
M  V30 49 1 11 45
M  V30 50 1 12 46
M  V30 51 1 15 47
M  V30 52 1 16 48
M  V30 53 1 17 49
M  V30 54 1 17 50
M  V30 55 1 18 51
M  V30 56 1 18 52
M  V30 57 1 19 53
M  V30 58 1 19 54
M  V30 59 1 20 55
M  V30 60 1 20 56
M  V30 61 1 24 57
M  V30 62 1 25 58
M  V30 63 1 26 59
M  V30 64 1 32 60
M  V30 65 1 34 61
M  V30 66 1 34 62
M  V30 67 1 35 63
M  V30 68 1 35 64
M  V30 END BOND
M  V30 END CTAB
M  END
>  <Dataset>  (411) 
ChEMBL_Kinases

>  <Ligand_Instance>  (411) 
nan

>  <PDB_ID>  (411) 
nan

>  <Standardized_SMILES>  (411) 
CN1CCC(O)(c2cn(-c3ccnc(NC4CCCC4)n3)c(-c3cccc(C(F)(F)F)c3)n2)CC1

>  <Name>  (411) 
nan

>  <Pocket>  (411) 
nan

>  <ATP_Site>  (411) 
nan

>  <Peripheral>  (411) 
nan

>  <Num_H_Atoms_ProtBoundConf>  (411) 
nan

>  <Num_Resolved_Atoms>  (411) 
nan

>  <Num_Not_Resolved_Atoms>  (411) 
nan

$$$$
CHEMBL118187
     RDKit          3D

  0  0  0  0  0  0  0  0  0  0999 V3000
M  V30 BEGIN CTAB
M  V30 COUNTS 47 51 0 0 0
M  V30 BEGIN ATOM
M  V30 1 C -0.370706 -3.144474 4.417410 0
M  V30 2 C 0.881443 -2.404856 4.255489 0
M  V30 3 C 2.092912 -2.677658 4.840296 0
M  V30 4 C 3.208482 -1.893517 4.602578 0
M  V30 5 C 3.161399 -0.787048 3.758397 0
M  V30 6 C 1.923199 -0.508773 3.160827 0
M  V30 7 C 0.829238 -1.314581 3.421757 0
M  V30 8 N -0.281077 -0.778668 2.668061 0
M  V30 9 N -0.165208 -0.818536 1.329384 0
M  V30 10 C -1.114308 -0.337918 0.501065 0
M  V30 11 C -0.704740 -0.504735 -0.910526 0
M  V30 12 C -0.151949 0.543389 -1.612109 0
M  V30 13 C 0.117832 1.904445 -1.165076 0
M  V30 14 C 1.455255 2.046236 -0.777357 0
M  V30 15 C 1.959763 3.254229 -0.313717 0
M  V30 16 C 1.066370 4.309232 -0.256611 0
M  V30 17 F 1.520183 5.515285 0.194163 0
M  V30 18 C -0.261899 4.196211 -0.634093 0
M  V30 19 C -0.737949 2.985067 -1.091360 0
M  V30 20 F -2.003264 2.703875 -1.499951 0
M  V30 21 N 0.087814 0.006452 -2.838414 0
M  V30 22 C -0.306077 -1.289624 -2.849146 0
M  V30 23 C -0.281962 -2.270892 -3.833343 0
M  V30 24 C -0.769367 -3.536006 -3.531420 0
M  V30 25 C -1.279473 -3.836133 -2.265589 0
M  V30 26 C -1.291958 -2.831501 -1.294625 0
M  V30 27 N -0.808164 -1.628211 -1.641994 0
M  V30 28 C -2.246922 0.215805 1.004243 0
M  V30 29 C -2.383430 0.265196 2.377571 0
M  V30 30 C -1.392495 -0.235960 3.194262 0
M  V30 31 O -1.474592 -0.212345 4.452564 0
M  V30 32 H -1.077974 -2.964465 3.594844 0
M  V30 33 H -0.166743 -4.252172 4.511794 0
M  V30 34 H -0.832906 -2.901136 5.419435 0
M  V30 35 H 2.125929 -3.546836 5.502927 0
M  V30 36 H 4.164316 -2.125391 5.077814 0
M  V30 37 H 4.066441 -0.213978 3.612400 0
M  V30 38 H 2.005774 0.370865 2.528098 0
M  V30 39 H 2.213043 1.263230 -0.794107 0
M  V30 40 H 2.972945 3.406366 -0.006888 0
M  V30 41 H -0.974854 4.994746 -0.599759 0
M  V30 42 H 0.117965 -2.036138 -4.824130 0
M  V30 43 H -0.748535 -4.295622 -4.301792 0
M  V30 44 H -1.666494 -4.830222 -2.019506 0
M  V30 45 H -1.677883 -3.013143 -0.297127 0
M  V30 46 H -2.934696 0.565418 0.274244 0
M  V30 47 H -3.274595 0.700220 2.780613 0
M  V30 END ATOM
M  V30 BEGIN BOND
M  V30 1 1 1 2
M  V30 2 2 2 3
M  V30 3 1 3 4
M  V30 4 2 4 5
M  V30 5 1 5 6
M  V30 6 2 6 7
M  V30 7 1 7 8
M  V30 8 1 8 9
M  V30 9 2 9 10
M  V30 10 1 10 11
M  V30 11 2 11 12
M  V30 12 1 12 13
M  V30 13 2 13 14
M  V30 14 1 14 15
M  V30 15 2 15 16
M  V30 16 1 16 17
M  V30 17 1 16 18
M  V30 18 2 18 19
M  V30 19 1 19 20
M  V30 20 1 12 21
M  V30 21 2 21 22
M  V30 22 1 22 23
M  V30 23 2 23 24
M  V30 24 1 24 25
M  V30 25 2 25 26
M  V30 26 1 26 27
M  V30 27 1 10 28
M  V30 28 2 28 29
M  V30 29 1 29 30
M  V30 30 2 30 31
M  V30 31 1 7 2
M  V30 32 1 30 8
M  V30 33 1 27 11
M  V30 34 1 19 13
M  V30 35 1 27 22
M  V30 36 1 1 32
M  V30 37 1 1 33
M  V30 38 1 1 34
M  V30 39 1 3 35
M  V30 40 1 4 36
M  V30 41 1 5 37
M  V30 42 1 6 38
M  V30 43 1 14 39
M  V30 44 1 15 40
M  V30 45 1 18 41
M  V30 46 1 23 42
M  V30 47 1 24 43
M  V30 48 1 25 44
M  V30 49 1 26 45
M  V30 50 1 28 46
M  V30 51 1 29 47
M  V30 END BOND
M  V30 END CTAB
M  END
>  <Dataset>  (412) 
ChEMBL_Kinases

>  <Ligand_Instance>  (412) 
nan

>  <PDB_ID>  (412) 
nan

>  <Standardized_SMILES>  (412) 
Cc1ccccc1-n1nc(-c2c(-c3ccc(F)cc3F)nc3ccccn23)ccc1=O

>  <Name>  (412) 
nan

>  <Pocket>  (412) 
nan

>  <ATP_Site>  (412) 
nan

>  <Peripheral>  (412) 
nan

>  <Num_H_Atoms_ProtBoundConf>  (412) 
nan

>  <Num_Resolved_Atoms>  (412) 
nan

>  <Num_Not_Resolved_Atoms>  (412) 
nan

$$$$
CHEMBL118
     RDKit          3D

  0  0  0  0  0  0  0  0  0  0999 V3000
M  V30 BEGIN CTAB
M  V30 COUNTS 40 42 0 0 0
M  V30 BEGIN ATOM
M  V30 1 C -0.115896 -5.561349 0.738109 0
M  V30 2 C 0.447283 -4.210305 0.483216 0
M  V30 3 C 0.903347 -3.808421 -0.769662 0
M  V30 4 C 1.412703 -2.535759 -0.923505 0
M  V30 5 C 1.498969 -1.614134 0.117903 0
M  V30 6 C 2.067270 -0.319993 -0.243923 0
M  V30 7 C 3.189553 -0.067783 -1.007352 0
M  V30 8 C 3.293809 1.298563 -1.049765 0
M  V30 9 C 4.339401 2.103991 -1.748914 0
M  V30 10 F 4.429144 1.769878 -3.096321 0
M  V30 11 F 5.565419 1.889086 -1.125973 0
M  V30 12 F 4.010491 3.431861 -1.694705 0
M  V30 13 N 2.263471 1.807965 -0.333149 0
M  V30 14 N 1.516278 0.836538 0.158067 0
M  V30 15 C 0.377681 1.152743 0.944706 0
M  V30 16 C -0.781598 1.085694 0.170207 0
M  V30 17 C -2.027810 1.360113 0.740986 0
M  V30 18 C -2.087391 1.696547 2.077756 0
M  V30 19 S -3.647138 2.044372 2.809853 0
M  V30 20 N -4.336205 0.597414 3.440542 0
M  V30 21 O -4.497550 2.683921 1.750823 0
M  V30 22 O -3.399317 2.981126 3.963751 0
M  V30 23 C -0.938087 1.761172 2.838107 0
M  V30 24 C 0.292618 1.491401 2.279418 0
M  V30 25 C 1.042928 -2.028037 1.352526 0
M  V30 26 C 0.532720 -3.298576 1.513051 0
M  V30 27 H 0.399608 -6.320113 0.105591 0
M  V30 28 H -1.211965 -5.615612 0.626762 0
M  V30 29 H 0.184363 -5.836932 1.789314 0
M  V30 30 H 0.850643 -4.501031 -1.601761 0
M  V30 31 H 1.750444 -2.295143 -1.937479 0
M  V30 32 H 3.842163 -0.804744 -1.470057 0
M  V30 33 H -0.860365 0.834438 -0.881548 0
M  V30 34 H -2.958107 1.323387 0.188584 0
M  V30 35 H -3.635717 -0.160964 3.370327 0
M  V30 36 H -5.131591 0.316944 2.839543 0
M  V30 37 H -0.943169 2.022486 3.894216 0
M  V30 38 H 1.251909 1.509092 2.767292 0
M  V30 39 H 1.128724 -1.281678 2.130933 0
M  V30 40 H 0.184443 -3.586604 2.498359 0
M  V30 END ATOM
M  V30 BEGIN BOND
M  V30 1 1 1 2
M  V30 2 2 2 3
M  V30 3 1 3 4
M  V30 4 2 4 5
M  V30 5 1 5 6
M  V30 6 2 6 7
M  V30 7 1 7 8
M  V30 8 1 8 9
M  V30 9 1 9 10
M  V30 10 1 9 11
M  V30 11 1 9 12
M  V30 12 2 8 13
M  V30 13 1 13 14
M  V30 14 1 14 15
M  V30 15 2 15 16
M  V30 16 1 16 17
M  V30 17 2 17 18
M  V30 18 1 18 19
M  V30 19 1 19 20
M  V30 20 2 19 21
M  V30 21 2 19 22
M  V30 22 1 18 23
M  V30 23 2 23 24
M  V30 24 1 5 25
M  V30 25 2 25 26
M  V30 26 1 26 2
M  V30 27 1 14 6
M  V30 28 1 24 15
M  V30 29 1 1 27
M  V30 30 1 1 28
M  V30 31 1 1 29
M  V30 32 1 3 30
M  V30 33 1 4 31
M  V30 34 1 7 32
M  V30 35 1 16 33
M  V30 36 1 17 34
M  V30 37 1 20 35
M  V30 38 1 20 36
M  V30 39 1 23 37
M  V30 40 1 24 38
M  V30 41 1 25 39
M  V30 42 1 26 40
M  V30 END BOND
M  V30 END CTAB
M  END
>  <Dataset>  (413) 
ChEMBL_Kinases

>  <Ligand_Instance>  (413) 
nan

>  <PDB_ID>  (413) 
nan

>  <Standardized_SMILES>  (413) 
Cc1ccc(-c2cc(C(F)(F)F)nn2-c2ccc(S(N)(=O)=O)cc2)cc1

>  <Name>  (413) 
CELECOXIB

>  <Pocket>  (413) 
nan

>  <ATP_Site>  (413) 
nan

>  <Peripheral>  (413) 
nan

>  <Num_H_Atoms_ProtBoundConf>  (413) 
nan

>  <Num_Resolved_Atoms>  (413) 
nan

>  <Num_Not_Resolved_Atoms>  (413) 
nan

$$$$
CHEMBL1172329
     RDKit          3D

  0  0  0  0  0  0  0  0  0  0999 V3000
M  V30 BEGIN CTAB
M  V30 COUNTS 31 32 0 0 0
M  V30 BEGIN ATOM
M  V30 1 C 0.808883 -4.992152 2.739622 0
M  V30 2 C 0.871719 -3.649354 2.104004 0
M  V30 3 C 1.957392 -2.786200 2.288649 0
M  V30 4 C 1.943151 -1.538144 1.654557 0
M  V30 5 C 0.876444 -1.158714 0.857489 0
M  V30 6 N 1.168640 0.162190 0.357167 0
M  V30 7 S 2.044188 -0.042023 -1.125538 0
M  V30 8 C 1.087228 0.106953 -2.624465 0
M  V30 9 Cl 0.442006 1.752422 -2.891361 0
M  V30 10 Cl -0.158235 -1.141465 -2.816670 0
M  V30 11 Cl 2.231881 -0.161879 -3.993752 0
M  V30 12 S 0.647368 1.522328 1.270604 0
M  V30 13 O 1.635714 2.632517 0.998330 0
M  V30 14 O 0.705632 1.260485 2.741768 0
M  V30 15 C -0.948733 2.026100 0.789346 0
M  V30 16 C -1.735110 1.471467 -0.176980 0
M  V30 17 C -2.986422 2.003554 -0.429380 0
M  V30 18 Cl -4.165130 1.520090 -1.561060 0
M  V30 19 S -3.180074 3.396247 0.721538 0
M  V30 20 C -1.488681 3.157432 1.499199 0
M  V30 21 Cl -0.853130 4.135534 2.760818 0
M  V30 22 C -0.184230 -2.020787 0.686725 0
M  V30 23 C -0.166234 -3.229587 1.303199 0
M  V30 24 H 0.188769 -4.983307 3.634356 0
M  V30 25 H 1.856897 -5.313086 2.880456 0
M  V30 26 H 0.315266 -5.659364 1.988387 0
M  V30 27 H 2.729952 -3.185015 2.928403 0
M  V30 28 H 2.857568 -1.015897 1.912905 0
M  V30 29 H -1.395363 0.625433 -0.748140 0
M  V30 30 H -0.924179 -1.571333 0.041392 0
M  V30 31 H -1.028539 -3.848758 1.123893 0
M  V30 END ATOM
M  V30 BEGIN BOND
M  V30 1 1 1 2
M  V30 2 2 2 3
M  V30 3 1 3 4
M  V30 4 2 4 5
M  V30 5 1 5 6
M  V30 6 1 6 7
M  V30 7 1 7 8
M  V30 8 1 8 9
M  V30 9 1 8 10
M  V30 10 1 8 11
M  V30 11 1 6 12
M  V30 12 2 12 13
M  V30 13 2 12 14
M  V30 14 1 12 15
M  V30 15 1 15 16
M  V30 16 2 16 17
M  V30 17 1 17 18
M  V30 18 1 17 19
M  V30 19 1 19 20
M  V30 20 1 20 21
M  V30 21 1 5 22
M  V30 22 2 22 23
M  V30 23 1 23 2
M  V30 24 2 20 15
M  V30 25 1 1 24
M  V30 26 1 1 25
M  V30 27 1 1 26
M  V30 28 1 3 27
M  V30 29 1 4 28
M  V30 30 1 16 29
M  V30 31 1 22 30
M  V30 32 1 23 31
M  V30 END BOND
M  V30 END CTAB
M  END
>  <Dataset>  (414) 
ChEMBL_Kinases

>  <Ligand_Instance>  (414) 
nan

>  <PDB_ID>  (414) 
nan

>  <Standardized_SMILES>  (414) 
Cc1ccc(N(SC(Cl)(Cl)Cl)S(=O)(=O)c2cc(Cl)sc2Cl)cc1

>  <Name>  (414) 
nan

>  <Pocket>  (414) 
nan

>  <ATP_Site>  (414) 
nan

>  <Peripheral>  (414) 
nan

>  <Num_H_Atoms_ProtBoundConf>  (414) 
nan

>  <Num_Resolved_Atoms>  (414) 
nan

>  <Num_Not_Resolved_Atoms>  (414) 
nan

$$$$
CHEMBL1172328
     RDKit          3D

  0  0  0  0  0  0  0  0  0  0999 V3000
M  V30 BEGIN CTAB
M  V30 COUNTS 24 25 0 0 0
M  V30 BEGIN ATOM
M  V30 1 O 1.101380 -0.938756 3.540958 0
M  V30 2 S 0.068072 -1.359799 2.505604 0
M  V30 3 O -0.534125 -2.629863 3.080153 0
M  V30 4 N 0.848210 -1.711586 1.041266 0
M  V30 5 C 1.622014 -0.906160 0.204753 0
M  V30 6 C 2.621322 -0.054656 0.628913 0
M  V30 7 C 3.406547 0.753698 -0.165558 0
M  V30 8 C 3.160974 0.698993 -1.521574 0
M  V30 9 Cl 4.106048 1.690768 -2.630538 0
M  V30 10 C 2.190729 -0.110471 -2.073619 0
M  V30 11 C 1.464491 -0.876905 -1.186423 0
M  V30 12 C -1.161459 -0.117962 2.378808 0
M  V30 13 C -0.870755 1.282392 2.563983 0
M  V30 14 Cl 0.842395 1.864185 2.946822 0
M  V30 15 S -2.397594 2.143267 2.352182 0
M  V30 16 C -3.416441 0.595212 2.014319 0
M  V30 17 Cl -5.089947 0.702486 1.704841 0
M  V30 18 C -2.438540 -0.428316 2.106161 0
M  V30 19 Cl -3.124653 -2.013391 1.828121 0
M  V30 20 H 0.787750 -2.685323 0.621220 0
M  V30 21 H 2.832048 0.003476 1.696016 0
M  V30 22 H 4.168362 1.389938 0.262439 0
M  V30 23 H 1.976748 -0.173997 -3.126827 0
M  V30 24 H 0.688563 -1.525483 -1.618010 0
M  V30 END ATOM
M  V30 BEGIN BOND
M  V30 1 2 1 2
M  V30 2 2 2 3
M  V30 3 1 2 4
M  V30 4 1 4 5
M  V30 5 2 5 6
M  V30 6 1 6 7
M  V30 7 2 7 8
M  V30 8 1 8 9
M  V30 9 1 8 10
M  V30 10 2 10 11
M  V30 11 1 2 12
M  V30 12 2 12 13
M  V30 13 1 13 14
M  V30 14 1 13 15
M  V30 15 1 15 16
M  V30 16 1 16 17
M  V30 17 2 16 18
M  V30 18 1 18 19
M  V30 19 1 11 5
M  V30 20 1 18 12
M  V30 21 1 4 20
M  V30 22 1 6 21
M  V30 23 1 7 22
M  V30 24 1 10 23
M  V30 25 1 11 24
M  V30 END BOND
M  V30 END CTAB
M  END
>  <Dataset>  (415) 
ChEMBL_Kinases

>  <Ligand_Instance>  (415) 
nan

>  <PDB_ID>  (415) 
nan

>  <Standardized_SMILES>  (415) 
O=S(=O)(Nc1ccc(Cl)cc1)c1c(Cl)sc(Cl)c1Cl

>  <Name>  (415) 
nan

>  <Pocket>  (415) 
nan

>  <ATP_Site>  (415) 
nan

>  <Peripheral>  (415) 
nan

>  <Num_H_Atoms_ProtBoundConf>  (415) 
nan

>  <Num_Resolved_Atoms>  (415) 
nan

>  <Num_Not_Resolved_Atoms>  (415) 
nan

$$$$
CHEMBL1172241
     RDKit          3D

  0  0  0  0  0  0  0  0  0  0999 V3000
M  V30 BEGIN CTAB
M  V30 COUNTS 76 80 0 0 0
M  V30 BEGIN ATOM
M  V30 1 C 7.644718 -3.433858 2.035908 0
M  V30 2 C 7.237219 -2.020784 2.335517 0
M  V30 3 C 6.944075 -1.098454 1.353559 0
M  V30 4 C 6.566883 0.197257 1.666739 0
M  V30 5 C 6.253771 1.219766 0.651243 0
M  V30 6 N 4.879781 1.145464 0.283829 0
M  V30 7 C 3.717403 1.581875 0.949132 0
M  V30 8 O 3.969653 2.131060 2.055272 0
M  V30 9 C 2.343290 1.460698 0.497608 0
M  V30 10 N 1.373881 1.958693 1.302505 0
M  V30 11 N 0.185665 1.770848 0.753609 0
M  V30 12 C -1.096987 2.188141 1.343242 0
M  V30 13 C -1.404453 3.611117 0.872028 0
M  V30 14 C -2.710349 4.119861 1.432989 0
M  V30 15 N -3.838837 3.302227 1.041025 0
M  V30 16 C 0.335918 1.154345 -0.409075 0
M  V30 17 C 1.684469 0.946139 -0.596360 0
M  V30 18 C 2.293986 0.278035 -1.768642 0
M  V30 19 C 1.319167 -0.133971 -2.811239 0
M  V30 20 C -0.091143 0.120658 -2.521744 0
M  V30 21 C -1.019876 -0.290336 -3.477374 0
M  V30 22 N -2.342623 -0.105167 -3.317430 0
M  V30 23 C -2.861693 0.488154 -2.227089 0
M  V30 24 N -4.164751 0.830471 -1.771419 0
M  V30 25 C -4.933216 -0.171258 -1.115978 0
M  V30 26 C -6.152842 0.042926 -0.465131 0
M  V30 27 C -6.858557 -0.976778 0.140979 0
M  V30 28 C -6.381318 -2.275423 0.128546 0
M  V30 29 C -5.173547 -2.553744 -0.504441 0
M  V30 30 C -4.640686 -3.926363 -0.559354 0
M  V30 31 C -3.743623 -4.307378 0.532645 0
M  V30 32 O -3.495773 -3.455038 1.423191 0
M  V30 33 N -3.228380 -5.648219 0.469317 0
M  V30 34 C -3.581640 -6.572741 -0.619555 0
M  V30 35 C -2.321371 -6.132318 1.511435 0
M  V30 36 C -4.520404 -1.491459 -1.086773 0
M  V30 37 N -1.979269 0.903266 -1.272344 0
M  V30 38 C -0.638351 0.728301 -1.409017 0
M  V30 39 C 6.499662 0.515876 2.999923 0
M  V30 40 C 6.800958 -0.432236 3.980611 0
M  V30 41 N 7.161117 -1.670503 3.634562 0
M  V30 42 H 7.157531 -4.067879 2.834388 0
M  V30 43 H 8.717111 -3.603027 2.150032 0
M  V30 44 H 7.240885 -3.758626 1.068355 0
M  V30 45 H 7.008242 -1.394397 0.316482 0
M  V30 46 H 6.512062 2.257514 1.030708 0
M  V30 47 H 6.956743 1.061428 -0.180245 0
M  V30 48 H 4.737546 0.678339 -0.657781 0
M  V30 49 H -1.916748 1.556245 1.018019 0
M  V30 50 H -0.986266 2.155461 2.448971 0
M  V30 51 H -1.496974 3.583206 -0.235031 0
M  V30 52 H -0.634330 4.341170 1.183458 0
M  V30 53 H -2.669658 4.312815 2.514716 0
M  V30 54 H -2.862571 5.126259 0.959968 0
M  V30 55 H -3.985937 2.465333 1.615240 0
M  V30 56 H -4.699961 3.900363 0.921778 0
M  V30 57 H 2.981094 1.031787 -2.236088 0
M  V30 58 H 2.932011 -0.582917 -1.470140 0
M  V30 59 H 1.485968 -1.231538 -3.026298 0
M  V30 60 H 1.548104 0.340301 -3.812346 0
M  V30 61 H -0.793018 -0.787131 -4.419455 0
M  V30 62 H -4.627193 1.768679 -1.872923 0
M  V30 63 H -6.478758 1.096096 -0.492786 0
M  V30 64 H -7.796236 -0.737561 0.623600 0
M  V30 65 H -6.905100 -3.088882 0.589892 0
M  V30 66 H -5.505181 -4.624170 -0.573448 0
M  V30 67 H -4.111444 -4.003932 -1.552151 0
M  V30 68 H -2.916666 -7.454791 -0.576551 0
M  V30 69 H -4.628978 -6.896735 -0.542177 0
M  V30 70 H -3.376331 -6.071926 -1.605058 0
M  V30 71 H -1.428266 -6.624829 1.021033 0
M  V30 72 H -2.760960 -6.891708 2.163347 0
M  V30 73 H -1.922908 -5.299732 2.101832 0
M  V30 74 H -3.574234 -1.741725 -1.572810 0
M  V30 75 H 6.228597 1.465706 3.423373 0
M  V30 76 H 6.772502 -0.258175 5.065097 0
M  V30 END ATOM
M  V30 BEGIN BOND
M  V30 1 1 1 2
M  V30 2 2 2 3
M  V30 3 1 3 4
M  V30 4 1 4 5
M  V30 5 1 5 6
M  V30 6 1 6 7
M  V30 7 2 7 8
M  V30 8 1 7 9
M  V30 9 2 9 10
M  V30 10 1 10 11
M  V30 11 1 11 12
M  V30 12 1 12 13
M  V30 13 1 13 14
M  V30 14 1 14 15
M  V30 15 1 11 16
M  V30 16 2 16 17
M  V30 17 1 17 18
M  V30 18 1 18 19
M  V30 19 1 19 20
M  V30 20 2 20 21
M  V30 21 1 21 22
M  V30 22 2 22 23
M  V30 23 1 23 24
M  V30 24 1 24 25
M  V30 25 2 25 26
M  V30 26 1 26 27
M  V30 27 2 27 28
M  V30 28 1 28 29
M  V30 29 1 29 30
M  V30 30 1 30 31
M  V30 31 2 31 32
M  V30 32 1 31 33
M  V30 33 1 33 34
M  V30 34 1 33 35
M  V30 35 2 29 36
M  V30 36 1 23 37
M  V30 37 2 37 38
M  V30 38 2 4 39
M  V30 39 1 39 40
M  V30 40 2 40 41
M  V30 41 1 41 2
M  V30 42 1 17 9
M  V30 43 1 38 20
M  V30 44 1 38 16
M  V30 45 1 36 25
M  V30 46 1 1 42
M  V30 47 1 1 43
M  V30 48 1 1 44
M  V30 49 1 3 45
M  V30 50 1 5 46
M  V30 51 1 5 47
M  V30 52 1 6 48
M  V30 53 1 12 49
M  V30 54 1 12 50
M  V30 55 1 13 51
M  V30 56 1 13 52
M  V30 57 1 14 53
M  V30 58 1 14 54
M  V30 59 1 15 55
M  V30 60 1 15 56
M  V30 61 1 18 57
M  V30 62 1 18 58
M  V30 63 1 19 59
M  V30 64 1 19 60
M  V30 65 1 21 61
M  V30 66 1 24 62
M  V30 67 1 26 63
M  V30 68 1 27 64
M  V30 69 1 28 65
M  V30 70 1 30 66
M  V30 71 1 30 67
M  V30 72 1 34 68
M  V30 73 1 34 69
M  V30 74 1 34 70
M  V30 75 1 35 71
M  V30 76 1 35 72
M  V30 77 1 35 73
M  V30 78 1 36 74
M  V30 79 1 39 75
M  V30 80 1 40 76
M  V30 END BOND
M  V30 END CTAB
M  END
>  <Dataset>  (416) 
ChEMBL_Kinases

>  <Ligand_Instance>  (416) 
nan

>  <PDB_ID>  (416) 
nan

>  <Standardized_SMILES>  (416) 
Cc1cc(CNC(=O)c2nn(CCCN)c3c2CCc2cnc(Nc4cccc(CC(=O)N(C)C)c4)nc2-3)ccn1

>  <Name>  (416) 
NERVIANO

>  <Pocket>  (416) 
nan

>  <ATP_Site>  (416) 
nan

>  <Peripheral>  (416) 
nan

>  <Num_H_Atoms_ProtBoundConf>  (416) 
nan

>  <Num_Resolved_Atoms>  (416) 
nan

>  <Num_Not_Resolved_Atoms>  (416) 
nan

$$$$
CHEMBL1172130
     RDKit          3D

  0  0  0  0  0  0  0  0  0  0999 V3000
M  V30 BEGIN CTAB
M  V30 COUNTS 30 31 0 0 0
M  V30 BEGIN ATOM
M  V30 1 C 2.378222 -0.897086 2.816150 0
M  V30 2 C 1.897174 -2.117890 2.164063 0
M  V30 3 C 1.751859 -3.383090 2.648846 0
M  V30 4 C 1.292978 -4.452142 1.952903 0
M  V30 5 Cl 1.171464 -6.019957 2.746447 0
M  V30 6 C 0.930741 -4.285328 0.634273 0
M  V30 7 C 1.062281 -3.021133 0.105514 0
M  V30 8 C 1.536859 -1.915833 0.826260 0
M  V30 9 N 1.586843 -0.742059 0.033468 0
M  V30 10 S 0.742759 0.236564 -1.082694 0
M  V30 11 O 1.649567 1.321401 -1.568581 0
M  V30 12 O 0.322257 -0.633860 -2.273172 0
M  V30 13 C -0.728033 0.920250 -0.467364 0
M  V30 14 C -0.794271 2.318174 -0.348367 0
M  V30 15 C -1.852058 3.063900 0.128152 0
M  V30 16 Cl -1.771302 4.810035 0.210731 0
M  V30 17 C -2.970306 2.368610 0.534017 0
M  V30 18 C -2.980608 0.992565 0.447042 0
M  V30 19 C -1.877992 0.330651 -0.042374 0
M  V30 20 Cl -1.926603 -1.407876 -0.163505 0
M  V30 21 H 3.454840 -0.677191 2.668585 0
M  V30 22 H 1.802663 -0.024683 2.516439 0
M  V30 23 H 2.167963 -1.030335 3.917806 0
M  V30 24 H 2.055722 -3.457539 3.705184 0
M  V30 25 H 0.572726 -5.131716 0.100166 0
M  V30 26 H 0.756008 -2.976807 -0.935826 0
M  V30 27 H 2.566574 -0.406831 0.297732 0
M  V30 28 H 0.076967 2.916982 -0.660697 0
M  V30 29 H -3.835398 2.876628 0.917265 0
M  V30 30 H -3.837020 0.408457 0.754443 0
M  V30 END ATOM
M  V30 BEGIN BOND
M  V30 1 1 1 2
M  V30 2 2 2 3
M  V30 3 1 3 4
M  V30 4 1 4 5
M  V30 5 2 4 6
M  V30 6 1 6 7
M  V30 7 2 7 8
M  V30 8 1 8 9
M  V30 9 1 9 10
M  V30 10 2 10 11
M  V30 11 2 10 12
M  V30 12 1 10 13
M  V30 13 2 13 14
M  V30 14 1 14 15
M  V30 15 1 15 16
M  V30 16 2 15 17
M  V30 17 1 17 18
M  V30 18 2 18 19
M  V30 19 1 19 20
M  V30 20 1 8 2
M  V30 21 1 19 13
M  V30 22 1 1 21
M  V30 23 1 1 22
M  V30 24 1 1 23
M  V30 25 1 3 24
M  V30 26 1 6 25
M  V30 27 1 7 26
M  V30 28 1 9 27
M  V30 29 1 14 28
M  V30 30 1 17 29
M  V30 31 1 18 30
M  V30 END BOND
M  V30 END CTAB
M  END
>  <Dataset>  (417) 
ChEMBL_Kinases

>  <Ligand_Instance>  (417) 
nan

>  <PDB_ID>  (417) 
nan

>  <Standardized_SMILES>  (417) 
Cc1cc(Cl)ccc1NS(=O)(=O)c1cc(Cl)ccc1Cl

>  <Name>  (417) 
nan

>  <Pocket>  (417) 
nan

>  <ATP_Site>  (417) 
nan

>  <Peripheral>  (417) 
nan

>  <Num_H_Atoms_ProtBoundConf>  (417) 
nan

>  <Num_Resolved_Atoms>  (417) 
nan

>  <Num_Not_Resolved_Atoms>  (417) 
nan

$$$$
CHEMBL1172129
     RDKit          3D

  0  0  0  0  0  0  0  0  0  0999 V3000
M  V30 BEGIN CTAB
M  V30 COUNTS 30 31 0 0 0
M  V30 BEGIN ATOM
M  V30 1 C -0.931707 -1.645640 1.359154 0
M  V30 2 C 0.223801 -2.527731 1.316085 0
M  V30 3 C 0.386162 -3.484813 2.322394 0
M  V30 4 C 1.464052 -4.345178 2.321771 0
M  V30 5 C 2.391361 -4.259925 1.317340 0
M  V30 6 Cl 3.786150 -5.304304 1.232571 0
M  V30 7 C 2.178866 -3.301841 0.358640 0
M  V30 8 C 1.115310 -2.384335 0.275972 0
M  V30 9 S 1.029477 -1.252917 -1.006779 0
M  V30 10 O 2.080618 -1.614420 -2.022500 0
M  V30 11 O -0.276250 -1.558076 -1.746809 0
M  V30 12 N 1.054500 0.380151 -0.691564 0
M  V30 13 C 0.260177 1.326331 0.007989 0
M  V30 14 C 0.733394 2.284660 0.903388 0
M  V30 15 C -0.098936 3.153856 1.539585 0
M  V30 16 C -1.456630 3.113188 1.314969 0
M  V30 17 Cl -2.543662 4.229196 2.129257 0
M  V30 18 C -2.021254 2.201627 0.447205 0
M  V30 19 Cl -3.731465 2.074668 0.098680 0
M  V30 20 C -1.119828 1.354126 -0.160531 0
M  V30 21 H -0.794864 -0.714216 1.921531 0
M  V30 22 H -1.754334 -2.189027 1.876417 0
M  V30 23 H -1.332757 -1.493987 0.334525 0
M  V30 24 H -0.366758 -3.533911 3.113420 0
M  V30 25 H 1.560533 -5.061358 3.099084 0
M  V30 26 H 2.925726 -3.242191 -0.439339 0
M  V30 27 H 1.851624 0.973671 -1.082794 0
M  V30 28 H 1.810293 2.296799 1.064063 0
M  V30 29 H 0.296111 3.887570 2.229747 0
M  V30 30 H -1.516835 0.620883 -0.850565 0
M  V30 END ATOM
M  V30 BEGIN BOND
M  V30 1 1 1 2
M  V30 2 2 2 3
M  V30 3 1 3 4
M  V30 4 2 4 5
M  V30 5 1 5 6
M  V30 6 1 5 7
M  V30 7 2 7 8
M  V30 8 1 8 9
M  V30 9 2 9 10
M  V30 10 2 9 11
M  V30 11 1 9 12
M  V30 12 1 12 13
M  V30 13 2 13 14
M  V30 14 1 14 15
M  V30 15 2 15 16
M  V30 16 1 16 17
M  V30 17 1 16 18
M  V30 18 1 18 19
M  V30 19 2 18 20
M  V30 20 1 8 2
M  V30 21 1 20 13
M  V30 22 1 1 21
M  V30 23 1 1 22
M  V30 24 1 1 23
M  V30 25 1 3 24
M  V30 26 1 4 25
M  V30 27 1 7 26
M  V30 28 1 12 27
M  V30 29 1 14 28
M  V30 30 1 15 29
M  V30 31 1 20 30
M  V30 END BOND
M  V30 END CTAB
M  END
>  <Dataset>  (418) 
ChEMBL_Kinases

>  <Ligand_Instance>  (418) 
nan

>  <PDB_ID>  (418) 
nan

>  <Standardized_SMILES>  (418) 
Cc1ccc(Cl)cc1S(=O)(=O)Nc1ccc(Cl)c(Cl)c1

>  <Name>  (418) 
nan

>  <Pocket>  (418) 
nan

>  <ATP_Site>  (418) 
nan

>  <Peripheral>  (418) 
nan

>  <Num_H_Atoms_ProtBoundConf>  (418) 
nan

>  <Num_Resolved_Atoms>  (418) 
nan

>  <Num_Not_Resolved_Atoms>  (418) 
nan

$$$$
CHEMBL117211
     RDKit          3D

  0  0  0  0  0  0  0  0  0  0999 V3000
M  V30 BEGIN CTAB
M  V30 COUNTS 38 41 0 0 0
M  V30 BEGIN ATOM
M  V30 1 O 0.445627 -4.465995 4.072730 0
M  V30 2 C 1.016396 -3.433349 3.630565 0
M  V30 3 N 2.188542 -2.932617 4.061901 0
M  V30 4 C 2.732037 -1.822103 3.535682 0
M  V30 5 N 2.137364 -1.123170 2.528925 0
M  V30 6 N 2.668755 -0.023034 2.002550 0
M  V30 7 C 1.992662 0.591850 1.006560 0
M  V30 8 S 2.761416 2.060856 0.346396 0
M  V30 9 C 1.763879 2.775008 -0.963417 0
M  V30 10 C 1.877180 2.456055 -2.305884 0
M  V30 11 C 1.066847 3.055841 -3.246761 0
M  V30 12 C 0.128122 3.987703 -2.850481 0
M  V30 13 C 0.031588 4.292557 -1.499135 0
M  V30 14 C 0.837808 3.702737 -0.519604 0
M  V30 15 O 0.679055 4.062507 0.815108 0
M  V30 16 C 0.779304 0.174433 0.476622 0
M  V30 17 C 0.275010 -0.973560 1.062104 0
M  V30 18 C 0.953227 -1.612657 2.079645 0
M  V30 19 C 0.373425 -2.751337 2.602966 0
M  V30 20 C -0.902761 -3.247842 2.093074 0
M  V30 21 C -2.178408 -2.927182 2.533821 0
M  V30 22 Cl -2.231987 -1.783504 3.867271 0
M  V30 23 C -3.270867 -3.504914 1.919651 0
M  V30 24 C -3.089661 -4.390975 0.879189 0
M  V30 25 C -1.826532 -4.724316 0.424352 0
M  V30 26 C -0.731646 -4.131526 1.055911 0
M  V30 27 Cl 0.814070 -4.634059 0.389238 0
M  V30 28 H 3.665339 -1.483791 3.929053 0
M  V30 29 H 2.639039 1.712442 -2.548046 0
M  V30 30 H 1.173297 2.790614 -4.292163 0
M  V30 31 H -0.524674 4.479275 -3.555962 0
M  V30 32 H -0.706257 5.030842 -1.151100 0
M  V30 33 H 0.325217 4.994917 0.990299 0
M  V30 34 H 0.328960 0.746210 -0.320925 0
M  V30 35 H -0.683321 -1.328909 0.664796 0
M  V30 36 H -4.243784 -3.207762 2.316990 0
M  V30 37 H -3.999086 -4.803199 0.447857 0
M  V30 38 H -1.790463 -5.429181 -0.397594 0
M  V30 END ATOM
M  V30 BEGIN BOND
M  V30 1 2 1 2
M  V30 2 1 2 3
M  V30 3 2 3 4
M  V30 4 1 4 5
M  V30 5 1 5 6
M  V30 6 2 6 7
M  V30 7 1 7 8
M  V30 8 1 8 9
M  V30 9 2 9 10
M  V30 10 1 10 11
M  V30 11 2 11 12
M  V30 12 1 12 13
M  V30 13 2 13 14
M  V30 14 1 14 15
M  V30 15 1 7 16
M  V30 16 2 16 17
M  V30 17 1 17 18
M  V30 18 2 18 19
M  V30 19 1 19 20
M  V30 20 2 20 21
M  V30 21 1 21 22
M  V30 22 1 21 23
M  V30 23 2 23 24
M  V30 24 1 24 25
M  V30 25 2 25 26
M  V30 26 1 26 27
M  V30 27 1 19 2
M  V30 28 1 26 20
M  V30 29 1 18 5
M  V30 30 1 14 9
M  V30 31 1 4 28
M  V30 32 1 10 29
M  V30 33 1 11 30
M  V30 34 1 12 31
M  V30 35 1 13 32
M  V30 36 1 15 33
M  V30 37 1 16 34
M  V30 38 1 17 35
M  V30 39 1 23 36
M  V30 40 1 24 37
M  V30 41 1 25 38
M  V30 END BOND
M  V30 END CTAB
M  END
>  <Dataset>  (419) 
ChEMBL_Kinases

>  <Ligand_Instance>  (419) 
nan

>  <PDB_ID>  (419) 
nan

>  <Standardized_SMILES>  (419) 
O=c1ncn2nc(Sc3ccccc3O)ccc2c1-c1c(Cl)cccc1Cl

>  <Name>  (419) 
nan

>  <Pocket>  (419) 
nan

>  <ATP_Site>  (419) 
nan

>  <Peripheral>  (419) 
nan

>  <Num_H_Atoms_ProtBoundConf>  (419) 
nan

>  <Num_Resolved_Atoms>  (419) 
nan

>  <Num_Not_Resolved_Atoms>  (419) 
nan

$$$$
CHEMBL1171204
     RDKit          3D

  0  0  0  0  0  0  0  0  0  0999 V3000
M  V30 BEGIN CTAB
M  V30 COUNTS 39 41 0 0 0
M  V30 BEGIN ATOM
M  V30 1 C 0.949891 -5.035131 -0.931746 0
M  V30 2 C 1.968163 -4.012616 -0.666396 0
M  V30 3 C 3.083666 -4.380544 0.063543 0
M  V30 4 C 4.079328 -3.460841 0.349119 0
M  V30 5 C 3.957652 -2.159596 -0.100390 0
M  V30 6 C 2.838090 -1.813123 -0.826327 0
M  V30 7 C 1.846262 -2.718907 -1.113881 0
M  V30 8 C 0.690339 -2.276178 -1.892474 0
M  V30 9 O 0.041607 -2.728474 -2.861413 0
M  V30 10 C 0.152051 -0.982410 -1.429370 0
M  V30 11 C -0.568840 -0.076958 -2.189904 0
M  V30 12 N -0.912221 1.010755 -1.451470 0
M  V30 13 C -0.427707 0.835707 -0.213382 0
M  V30 14 C -0.580805 1.777886 0.888245 0
M  V30 15 O -1.227173 2.831971 0.633713 0
M  V30 16 N -0.048036 1.545714 2.166962 0
M  V30 17 C -0.196927 2.487975 3.284743 0
M  V30 18 C -1.619191 2.723797 3.628678 0
M  V30 19 C -2.350671 1.987198 4.543429 0
M  V30 20 C -3.651920 2.456619 4.640086 0
M  V30 21 C -3.640802 3.515455 3.725041 0
M  V30 22 O -2.467755 3.625167 3.179674 0
M  V30 23 C 0.229382 -0.376300 -0.168916 0
M  V30 24 H 0.367507 -5.267705 -0.002608 0
M  V30 25 H 1.504267 -5.986261 -1.169516 0
M  V30 26 H 0.262104 -4.745301 -1.725097 0
M  V30 27 H 3.169533 -5.419316 0.415758 0
M  V30 28 H 4.922885 -3.847910 0.933096 0
M  V30 29 H 4.788108 -1.523796 0.176105 0
M  V30 30 H 2.782145 -0.784052 -1.158805 0
M  V30 31 H -0.841449 -0.190695 -3.242653 0
M  V30 32 H -1.457120 1.819159 -1.818752 0
M  V30 33 H 0.471750 0.627938 2.254790 0
M  V30 34 H 0.282107 1.998817 4.157059 0
M  V30 35 H 0.334865 3.433073 3.053355 0
M  V30 36 H -1.928893 1.141924 5.108445 0
M  V30 37 H -4.423904 2.049575 5.286751 0
M  V30 38 H -4.535198 4.120905 3.548065 0
M  V30 39 H 0.743874 -0.844326 0.672553 0
M  V30 END ATOM
M  V30 BEGIN BOND
M  V30 1 1 1 2
M  V30 2 2 2 3
M  V30 3 1 3 4
M  V30 4 2 4 5
M  V30 5 1 5 6
M  V30 6 2 6 7
M  V30 7 1 7 8
M  V30 8 2 8 9
M  V30 9 1 8 10
M  V30 10 2 10 11
M  V30 11 1 11 12
M  V30 12 1 12 13
M  V30 13 1 13 14
M  V30 14 2 14 15
M  V30 15 1 14 16
M  V30 16 1 16 17
M  V30 17 1 17 18
M  V30 18 2 18 19
M  V30 19 1 19 20
M  V30 20 2 20 21
M  V30 21 1 21 22
M  V30 22 2 13 23
M  V30 23 1 7 2
M  V30 24 1 23 10
M  V30 25 1 22 18
M  V30 26 1 1 24
M  V30 27 1 1 25
M  V30 28 1 1 26
M  V30 29 1 3 27
M  V30 30 1 4 28
M  V30 31 1 5 29
M  V30 32 1 6 30
M  V30 33 1 11 31
M  V30 34 1 12 32
M  V30 35 1 16 33
M  V30 36 1 17 34
M  V30 37 1 17 35
M  V30 38 1 19 36
M  V30 39 1 20 37
M  V30 40 1 21 38
M  V30 41 1 23 39
M  V30 END BOND
M  V30 END CTAB
M  END
>  <Dataset>  (420) 
ChEMBL_Kinases

>  <Ligand_Instance>  (420) 
nan

>  <PDB_ID>  (420) 
nan

>  <Standardized_SMILES>  (420) 
Cc1ccccc1C(=O)c1c[nH]c(C(=O)NCc2ccco2)c1

>  <Name>  (420) 
nan

>  <Pocket>  (420) 
nan

>  <ATP_Site>  (420) 
nan

>  <Peripheral>  (420) 
nan

>  <Num_H_Atoms_ProtBoundConf>  (420) 
nan

>  <Num_Resolved_Atoms>  (420) 
nan

>  <Num_Not_Resolved_Atoms>  (420) 
nan

$$$$
CHEMBL1171205
     RDKit          3D

  0  0  0  0  0  0  0  0  0  0999 V3000
M  V30 BEGIN CTAB
M  V30 COUNTS 36 38 0 0 0
M  V30 BEGIN ATOM
M  V30 1 O 0.560379 -2.943820 0.263180 0
M  V30 2 C 1.559833 -2.248477 -0.049059 0
M  V30 3 N 2.869312 -2.778120 0.037232 0
M  V30 4 C 3.013734 -4.153693 0.499484 0
M  V30 5 C 2.439757 -4.305479 1.893889 0
M  V30 6 C 3.184194 -4.114896 3.085956 0
M  V30 7 C 2.495958 -4.296435 4.256886 0
M  V30 8 C 1.176694 -4.639244 4.242201 0
M  V30 9 S 0.806670 -4.731135 2.463275 0
M  V30 10 C 1.341140 -0.879641 -0.503093 0
M  V30 11 C 0.138063 -0.218955 -0.620470 0
M  V30 12 C 0.288360 1.074557 -1.081870 0
M  V30 13 C -0.666305 2.141310 -1.318494 0
M  V30 14 O -0.321586 2.954867 -2.250577 0
M  V30 15 C -1.945355 2.510075 -0.736075 0
M  V30 16 C -2.798017 3.275720 -1.495714 0
M  V30 17 Cl -2.459209 3.807212 -3.125921 0
M  V30 18 C -4.026438 3.666478 -0.944530 0
M  V30 19 C -4.432888 3.324692 0.327154 0
M  V30 20 C -3.574450 2.563757 1.072128 0
M  V30 21 C -2.365222 2.178249 0.533010 0
M  V30 22 Cl -1.346498 1.260810 1.612935 0
M  V30 23 C 1.651016 1.195854 -1.251615 0
M  V30 24 N 2.229098 0.040790 -0.905100 0
M  V30 25 H 3.666364 -2.149998 -0.236526 0
M  V30 26 H 4.047324 -4.489296 0.592180 0
M  V30 27 H 2.385367 -4.822625 -0.126448 0
M  V30 28 H 4.230769 -3.842761 3.039247 0
M  V30 29 H 2.954665 -4.179606 5.228400 0
M  V30 30 H 0.476858 -4.822905 4.989330 0
M  V30 31 H -0.788902 -0.714806 -0.384171 0
M  V30 32 H -4.717874 4.272489 -1.525177 0
M  V30 33 H -5.380287 3.645105 0.708861 0
M  V30 34 H -3.894534 2.296919 2.067870 0
M  V30 35 H 2.149429 2.088077 -1.607806 0
M  V30 36 H 3.266246 -0.091941 -0.955586 0
M  V30 END ATOM
M  V30 BEGIN BOND
M  V30 1 2 1 2
M  V30 2 1 2 3
M  V30 3 1 3 4
M  V30 4 1 4 5
M  V30 5 2 5 6
M  V30 6 1 6 7
M  V30 7 2 7 8
M  V30 8 1 8 9
M  V30 9 1 2 10
M  V30 10 2 10 11
M  V30 11 1 11 12
M  V30 12 1 12 13
M  V30 13 2 13 14
M  V30 14 1 13 15
M  V30 15 2 15 16
M  V30 16 1 16 17
M  V30 17 1 16 18
M  V30 18 2 18 19
M  V30 19 1 19 20
M  V30 20 2 20 21
M  V30 21 1 21 22
M  V30 22 2 12 23
M  V30 23 1 23 24
M  V30 24 1 9 5
M  V30 25 1 24 10
M  V30 26 1 21 15
M  V30 27 1 3 25
M  V30 28 1 4 26
M  V30 29 1 4 27
M  V30 30 1 6 28
M  V30 31 1 7 29
M  V30 32 1 8 30
M  V30 33 1 11 31
M  V30 34 1 18 32
M  V30 35 1 19 33
M  V30 36 1 20 34
M  V30 37 1 23 35
M  V30 38 1 24 36
M  V30 END BOND
M  V30 END CTAB
M  END
>  <Dataset>  (421) 
ChEMBL_Kinases

>  <Ligand_Instance>  (421) 
nan

>  <PDB_ID>  (421) 
nan

>  <Standardized_SMILES>  (421) 
O=C(NCc1cccs1)c1cc(C(=O)c2c(Cl)cccc2Cl)c[nH]1

>  <Name>  (421) 
nan

>  <Pocket>  (421) 
nan

>  <ATP_Site>  (421) 
nan

>  <Peripheral>  (421) 
nan

>  <Num_H_Atoms_ProtBoundConf>  (421) 
nan

>  <Num_Resolved_Atoms>  (421) 
nan

>  <Num_Not_Resolved_Atoms>  (421) 
nan

$$$$
CHEMBL1171238
     RDKit          3D

  0  0  0  0  0  0  0  0  0  0999 V3000
M  V30 BEGIN CTAB
M  V30 COUNTS 29 30 0 0 0
M  V30 BEGIN ATOM
M  V30 1 O 1.236602 -0.293528 3.666141 0
M  V30 2 C 1.220231 -0.977836 2.586280 0
M  V30 3 C 1.568134 -2.334883 3.016145 0
M  V30 4 Br 1.610911 -3.581184 1.520854 0
M  V30 5 N 0.915839 -0.447391 1.279734 0
M  V30 6 C 0.909379 -1.260348 0.087896 0
M  V30 7 C -0.082282 -1.978347 -0.525094 0
M  V30 8 C 0.237607 -2.664823 -1.676830 0
M  V30 9 C 1.474394 -2.671065 -2.237679 0
M  V30 10 C 2.482530 -1.947410 -1.623673 0
M  V30 11 C 2.195404 -1.247461 -0.466776 0
M  V30 12 S 0.566597 1.242182 1.251010 0
M  V30 13 O 1.017241 1.852552 -0.038574 0
M  V30 14 O 1.318936 1.955563 2.354394 0
M  V30 15 C -1.134616 1.544934 1.506767 0
M  V30 16 C -2.052733 0.562125 1.716903 0
M  V30 17 C -3.412046 0.936460 1.915960 0
M  V30 18 Cl -4.781948 -0.000974 2.197014 0
M  V30 19 S -3.414946 2.717768 1.807440 0
M  V30 20 C -1.568904 2.892136 1.495294 0
M  V30 21 Cl -0.746089 4.340821 1.272304 0
M  V30 22 H 0.914082 -2.750126 3.820337 0
M  V30 23 H 2.601748 -2.359726 3.436401 0
M  V30 24 H -1.003928 -1.897282 0.005851 0
M  V30 25 H -0.612480 -3.215263 -2.106717 0
M  V30 26 H 1.568111 -3.265257 -3.152894 0
M  V30 27 H 3.446133 -1.985055 -2.108813 0
M  V30 28 H 3.084275 -0.727226 -0.098571 0
M  V30 29 H -1.835286 -0.491755 1.747593 0
M  V30 END ATOM
M  V30 BEGIN BOND
M  V30 1 2 1 2
M  V30 2 1 2 3
M  V30 3 1 3 4
M  V30 4 1 2 5
M  V30 5 1 5 6
M  V30 6 2 6 7
M  V30 7 1 7 8
M  V30 8 2 8 9
M  V30 9 1 9 10
M  V30 10 2 10 11
M  V30 11 1 5 12
M  V30 12 2 12 13
M  V30 13 2 12 14
M  V30 14 1 12 15
M  V30 15 1 15 16
M  V30 16 2 16 17
M  V30 17 1 17 18
M  V30 18 1 17 19
M  V30 19 1 19 20
M  V30 20 1 20 21
M  V30 21 1 11 6
M  V30 22 2 20 15
M  V30 23 1 3 22
M  V30 24 1 3 23
M  V30 25 1 7 24
M  V30 26 1 8 25
M  V30 27 1 9 26
M  V30 28 1 10 27
M  V30 29 1 11 28
M  V30 30 1 16 29
M  V30 END BOND
M  V30 END CTAB
M  END
>  <Dataset>  (422) 
ChEMBL_Kinases

>  <Ligand_Instance>  (422) 
nan

>  <PDB_ID>  (422) 
nan

>  <Standardized_SMILES>  (422) 
O=C(CBr)N(c1ccccc1)S(=O)(=O)c1cc(Cl)sc1Cl

>  <Name>  (422) 
nan

>  <Pocket>  (422) 
nan

>  <ATP_Site>  (422) 
nan

>  <Peripheral>  (422) 
nan

>  <Num_H_Atoms_ProtBoundConf>  (422) 
nan

>  <Num_Resolved_Atoms>  (422) 
nan

>  <Num_Not_Resolved_Atoms>  (422) 
nan

$$$$
CHEMBL1171239
     RDKit          3D

  0  0  0  0  0  0  0  0  0  0999 V3000
M  V30 BEGIN CTAB
M  V30 COUNTS 29 30 0 0 0
M  V30 BEGIN ATOM
M  V30 1 O 0.302446 -1.555974 3.727292 0
M  V30 2 C 0.798548 -1.620302 2.551018 0
M  V30 3 C 1.499598 -2.917813 2.514738 0
M  V30 4 Br 2.352207 -3.239682 0.786575 0
M  V30 5 N 0.650166 -0.596152 1.548720 0
M  V30 6 C 1.224534 -0.707013 0.234586 0
M  V30 7 C 0.732944 -1.227100 -0.940471 0
M  V30 8 C 1.520064 -1.195632 -2.056090 0
M  V30 9 C 2.792495 -0.663774 -2.060361 0
M  V30 10 Cl 3.698604 -0.684921 -3.559186 0
M  V30 11 C 3.295284 -0.139588 -0.887428 0
M  V30 12 C 2.506466 -0.161824 0.265332 0
M  V30 13 S -0.249593 0.770818 2.018238 0
M  V30 14 O 0.280775 2.013269 1.318784 0
M  V30 15 O -0.117805 1.049614 3.500335 0
M  V30 16 C -1.958131 0.589126 1.699055 0
M  V30 17 C -2.498351 -0.509279 1.156457 0
M  V30 18 C -3.911959 -0.556267 0.938668 0
M  V30 19 Cl -4.865458 -1.910745 0.229266 0
M  V30 20 S -4.446064 1.144501 1.587140 0
M  V30 21 C -2.811120 1.661271 2.035636 0
M  V30 22 Cl -2.391080 3.249181 2.769668 0
M  V30 23 H 0.818296 -3.783871 2.761481 0
M  V30 24 H 2.319973 -2.985043 3.251217 0
M  V30 25 H -0.259615 -1.607438 -0.806539 0
M  V30 26 H 1.064891 -1.624588 -2.947450 0
M  V30 27 H 4.296476 0.264339 -0.945198 0
M  V30 28 H 3.039952 0.284676 1.099621 0
M  V30 29 H -1.961648 -1.392189 0.857590 0
M  V30 END ATOM
M  V30 BEGIN BOND
M  V30 1 2 1 2
M  V30 2 1 2 3
M  V30 3 1 3 4
M  V30 4 1 2 5
M  V30 5 1 5 6
M  V30 6 2 6 7
M  V30 7 1 7 8
M  V30 8 2 8 9
M  V30 9 1 9 10
M  V30 10 1 9 11
M  V30 11 2 11 12
M  V30 12 1 5 13
M  V30 13 2 13 14
M  V30 14 2 13 15
M  V30 15 1 13 16
M  V30 16 1 16 17
M  V30 17 2 17 18
M  V30 18 1 18 19
M  V30 19 1 18 20
M  V30 20 1 20 21
M  V30 21 1 21 22
M  V30 22 1 12 6
M  V30 23 2 21 16
M  V30 24 1 3 23
M  V30 25 1 3 24
M  V30 26 1 7 25
M  V30 27 1 8 26
M  V30 28 1 11 27
M  V30 29 1 12 28
M  V30 30 1 17 29
M  V30 END BOND
M  V30 END CTAB
M  END
>  <Dataset>  (423) 
ChEMBL_Kinases

>  <Ligand_Instance>  (423) 
nan

>  <PDB_ID>  (423) 
nan

>  <Standardized_SMILES>  (423) 
O=C(CBr)N(c1ccc(Cl)cc1)S(=O)(=O)c1cc(Cl)sc1Cl

>  <Name>  (423) 
nan

>  <Pocket>  (423) 
nan

>  <ATP_Site>  (423) 
nan

>  <Peripheral>  (423) 
nan

>  <Num_H_Atoms_ProtBoundConf>  (423) 
nan

>  <Num_Resolved_Atoms>  (423) 
nan

>  <Num_Not_Resolved_Atoms>  (423) 
nan

$$$$
CHEMBL1171396
     RDKit          3D

  0  0  0  0  0  0  0  0  0  0999 V3000
M  V30 BEGIN CTAB
M  V30 COUNTS 44 45 0 0 0
M  V30 BEGIN ATOM
M  V30 1 C 0.044379 -1.833915 4.118133 0
M  V30 2 C -0.262391 -2.534186 2.811040 0
M  V30 3 N 0.444259 -1.914049 1.738881 0
M  V30 4 C 1.502604 -2.393531 0.914611 0
M  V30 5 O 1.904111 -3.557099 1.148543 0
M  V30 6 C 2.076299 -1.561363 -0.140352 0
M  V30 7 C 1.750675 -0.280477 -0.532220 0
M  V30 8 C 2.568220 0.100975 -1.577157 0
M  V30 9 C 2.626909 1.344315 -2.339176 0
M  V30 10 O 3.209332 1.483390 -3.469917 0
M  V30 11 C 2.016581 2.596133 -1.890566 0
M  V30 12 C 1.285928 3.354726 -2.775441 0
M  V30 13 C 0.661801 4.553894 -2.466034 0
M  V30 14 C 0.780885 5.030809 -1.161102 0
M  V30 15 C 1.508860 4.289652 -0.252201 0
M  V30 16 C 2.131548 3.081190 -0.583933 0
M  V30 17 F 2.840651 2.360079 0.302336 0
M  V30 18 C 3.399952 -0.978269 -1.812824 0
M  V30 19 N 3.084484 -1.954554 -0.942125 0
M  V30 20 C -1.744891 -2.648847 2.572012 0
M  V30 21 C -2.436702 -1.324010 2.508759 0
M  V30 22 C -2.357263 -3.395591 3.758684 0
M  V30 23 C -2.083421 -3.448189 1.358651 0
M  V30 24 H -0.407233 -0.835825 4.195679 0
M  V30 25 H -0.281062 -2.484466 4.952376 0
M  V30 26 H 1.169538 -1.791908 4.183285 0
M  V30 27 H 0.131215 -3.564901 2.934125 0
M  V30 28 H 0.046205 -0.943968 1.610139 0
M  V30 29 H 0.987126 0.329899 -0.101855 0
M  V30 30 H 1.194565 2.984678 -3.789052 0
M  V30 31 H 0.101491 5.080344 -3.255115 0
M  V30 32 H 0.299621 5.963976 -0.908743 0
M  V30 33 H 1.595089 4.672864 0.762736 0
M  V30 34 H 4.168567 -1.011239 -2.573681 0
M  V30 35 H 3.572688 -2.873949 -0.919255 0
M  V30 36 H -2.185791 -0.795332 1.551642 0
M  V30 37 H -3.527536 -1.516379 2.456526 0
M  V30 38 H -2.274329 -0.682368 3.391950 0
M  V30 39 H -2.283275 -2.719369 4.628398 0
M  V30 40 H -3.440726 -3.519067 3.518853 0
M  V30 41 H -1.848457 -4.363893 3.926450 0
M  V30 42 H -1.252835 -4.088995 1.000786 0
M  V30 43 H -2.965993 -4.109485 1.501325 0
M  V30 44 H -2.353793 -2.772524 0.522414 0
M  V30 END ATOM
M  V30 BEGIN BOND
M  V30 1 1 1 2
M  V30 2 1 2 3
M  V30 3 1 3 4
M  V30 4 2 4 5
M  V30 5 1 4 6
M  V30 6 2 6 7
M  V30 7 1 7 8
M  V30 8 1 8 9
M  V30 9 2 9 10
M  V30 10 1 9 11
M  V30 11 2 11 12
M  V30 12 1 12 13
M  V30 13 2 13 14
M  V30 14 1 14 15
M  V30 15 2 15 16
M  V30 16 1 16 17
M  V30 17 2 8 18
M  V30 18 1 18 19
M  V30 19 1 2 20
M  V30 20 1 20 21
M  V30 21 1 20 22
M  V30 22 1 20 23
M  V30 23 1 19 6
M  V30 24 1 16 11
M  V30 25 1 1 24
M  V30 26 1 1 25
M  V30 27 1 1 26
M  V30 28 1 2 27
M  V30 29 1 3 28
M  V30 30 1 7 29
M  V30 31 1 12 30
M  V30 32 1 13 31
M  V30 33 1 14 32
M  V30 34 1 15 33
M  V30 35 1 18 34
M  V30 36 1 19 35
M  V30 37 1 21 36
M  V30 38 1 21 37
M  V30 39 1 21 38
M  V30 40 1 22 39
M  V30 41 1 22 40
M  V30 42 1 22 41
M  V30 43 1 23 42
M  V30 44 1 23 43
M  V30 45 1 23 44
M  V30 END BOND
M  V30 END CTAB
M  END
>  <Dataset>  (424) 
ChEMBL_Kinases

>  <Ligand_Instance>  (424) 
nan

>  <PDB_ID>  (424) 
nan

>  <Standardized_SMILES>  (424) 
CC(NC(=O)c1cc(C(=O)c2ccccc2F)c[nH]1)C(C)(C)C

>  <Name>  (424) 
nan

>  <Pocket>  (424) 
nan

>  <ATP_Site>  (424) 
nan

>  <Peripheral>  (424) 
nan

>  <Num_H_Atoms_ProtBoundConf>  (424) 
nan

>  <Num_Resolved_Atoms>  (424) 
nan

>  <Num_Not_Resolved_Atoms>  (424) 
nan

$$$$
CHEMBL1171397
     RDKit          3D

  0  0  0  0  0  0  0  0  0  0999 V3000
M  V30 BEGIN CTAB
M  V30 COUNTS 40 42 0 0 0
M  V30 BEGIN ATOM
M  V30 1 O 3.428698 -2.538135 2.616635 0
M  V30 2 C 2.475960 -1.785982 2.282742 0
M  V30 3 N 2.320729 -1.768672 0.866058 0
M  V30 4 C 2.997215 -2.422084 -0.229384 0
M  V30 5 C 2.455770 -2.006389 -1.564281 0
M  V30 6 C 3.128024 -1.165785 -2.412256 0
M  V30 7 C 2.550920 -0.819482 -3.638368 0
M  V30 8 C 1.319171 -1.354143 -3.924420 0
M  V30 9 C 0.654118 -2.191182 -3.075703 0
M  V30 10 C 1.199361 -2.551055 -1.857209 0
M  V30 11 O 0.529421 -3.405548 -0.976134 0
M  V30 12 C 1.589948 -0.995856 3.114704 0
M  V30 13 C 0.547326 -0.209348 2.680822 0
M  V30 14 C -0.065220 0.371933 3.764813 0
M  V30 15 C -1.215787 1.263226 3.745651 0
M  V30 16 O -1.519190 1.844399 4.838007 0
M  V30 17 C -2.045893 1.540481 2.586117 0
M  V30 18 C -1.644553 1.894223 1.320887 0
M  V30 19 C -2.498093 2.145078 0.278113 0
M  V30 20 C -3.878454 2.044671 0.478145 0
M  V30 21 C -4.322747 1.692919 1.732910 0
M  V30 22 C -3.413705 1.452438 2.743397 0
M  V30 23 F -4.010746 1.117506 3.914684 0
M  V30 24 C 0.642714 -0.091665 4.844462 0
M  V30 25 N 1.638253 -0.914431 4.451719 0
M  V30 26 H 1.537902 -1.144233 0.505547 0
M  V30 27 H 2.829433 -3.519680 -0.154085 0
M  V30 28 H 4.090262 -2.236951 -0.147405 0
M  V30 29 H 4.095342 -0.775776 -2.138080 0
M  V30 30 H 3.038256 -0.163448 -4.343188 0
M  V30 31 H 0.816129 -1.121622 -4.863179 0
M  V30 32 H -0.310565 -2.601783 -3.305912 0
M  V30 33 H 0.851587 -4.367095 -0.954408 0
M  V30 34 H 0.293244 -0.104770 1.648487 0
M  V30 35 H -0.594817 1.993443 1.133641 0
M  V30 36 H -2.099101 2.420028 -0.696360 0
M  V30 37 H -4.565764 2.235824 -0.326356 0
M  V30 38 H -5.396169 1.627358 1.841875 0
M  V30 39 H 0.420555 0.177426 5.877702 0
M  V30 40 H 2.333945 -1.414284 5.045436 0
M  V30 END ATOM
M  V30 BEGIN BOND
M  V30 1 2 1 2
M  V30 2 1 2 3
M  V30 3 1 3 4
M  V30 4 1 4 5
M  V30 5 2 5 6
M  V30 6 1 6 7
M  V30 7 2 7 8
M  V30 8 1 8 9
M  V30 9 2 9 10
M  V30 10 1 10 11
M  V30 11 1 2 12
M  V30 12 2 12 13
M  V30 13 1 13 14
M  V30 14 1 14 15
M  V30 15 2 15 16
M  V30 16 1 15 17
M  V30 17 2 17 18
M  V30 18 1 18 19
M  V30 19 2 19 20
M  V30 20 1 20 21
M  V30 21 2 21 22
M  V30 22 1 22 23
M  V30 23 2 14 24
M  V30 24 1 24 25
M  V30 25 1 10 5
M  V30 26 1 25 12
M  V30 27 1 22 17
M  V30 28 1 3 26
M  V30 29 1 4 27
M  V30 30 1 4 28
M  V30 31 1 6 29
M  V30 32 1 7 30
M  V30 33 1 8 31
M  V30 34 1 9 32
M  V30 35 1 11 33
M  V30 36 1 13 34
M  V30 37 1 18 35
M  V30 38 1 19 36
M  V30 39 1 20 37
M  V30 40 1 21 38
M  V30 41 1 24 39
M  V30 42 1 25 40
M  V30 END BOND
M  V30 END CTAB
M  END
>  <Dataset>  (425) 
ChEMBL_Kinases

>  <Ligand_Instance>  (425) 
nan

>  <PDB_ID>  (425) 
nan

>  <Standardized_SMILES>  (425) 
O=C(NCc1ccccc1O)c1cc(C(=O)c2ccccc2F)c[nH]1

>  <Name>  (425) 
nan

>  <Pocket>  (425) 
nan

>  <ATP_Site>  (425) 
nan

>  <Peripheral>  (425) 
nan

>  <Num_H_Atoms_ProtBoundConf>  (425) 
nan

>  <Num_Resolved_Atoms>  (425) 
nan

>  <Num_Not_Resolved_Atoms>  (425) 
nan

$$$$
CHEMBL1171399
     RDKit          3D

  0  0  0  0  0  0  0  0  0  0999 V3000
M  V30 BEGIN CTAB
M  V30 COUNTS 30 31 0 0 0
M  V30 BEGIN ATOM
M  V30 1 C 1.456515 -1.181923 3.271608 0
M  V30 2 C 1.439793 -2.272395 2.263916 0
M  V30 3 C 1.312715 -3.621971 2.454572 0
M  V30 4 C 1.311619 -4.533527 1.442701 0
M  V30 5 C 1.442689 -4.126366 0.137469 0
M  V30 6 Cl 1.438058 -5.308200 -1.127613 0
M  V30 7 C 1.569261 -2.781280 -0.053865 0
M  V30 8 C 1.574258 -1.817663 0.961087 0
M  V30 9 N 1.739138 -0.509857 0.468117 0
M  V30 10 S 1.233784 0.682452 -0.633151 0
M  V30 11 O 1.311477 0.183531 -2.060671 0
M  V30 12 O 2.059489 1.930335 -0.471624 0
M  V30 13 C -0.431111 1.107432 -0.334049 0
M  V30 14 C -0.747368 2.404145 0.104379 0
M  V30 15 C -1.994669 2.906222 0.404984 0
M  V30 16 Cl -2.200426 4.559128 0.940879 0
M  V30 17 C -3.051340 2.034333 0.257842 0
M  V30 18 C -2.840642 0.740819 -0.167717 0
M  V30 19 C -1.558272 0.331630 -0.443995 0
M  V30 20 Cl -1.339035 -1.290886 -1.001719 0
M  V30 21 H 1.001918 -1.595302 4.196972 0
M  V30 22 H 0.944859 -0.281538 2.898199 0
M  V30 23 H 2.530488 -0.948298 3.441536 0
M  V30 24 H 1.210250 -3.906001 3.513799 0
M  V30 25 H 1.204795 -5.577354 1.704317 0
M  V30 26 H 1.670001 -2.526376 -1.122492 0
M  V30 27 H 2.540465 -0.205489 1.101417 0
M  V30 28 H 0.076276 3.120037 0.230356 0
M  V30 29 H -4.041676 2.395232 0.485149 0
M  V30 30 H -3.660436 0.071988 -0.279500 0
M  V30 END ATOM
M  V30 BEGIN BOND
M  V30 1 1 1 2
M  V30 2 2 2 3
M  V30 3 1 3 4
M  V30 4 2 4 5
M  V30 5 1 5 6
M  V30 6 1 5 7
M  V30 7 2 7 8
M  V30 8 1 8 9
M  V30 9 1 9 10
M  V30 10 2 10 11
M  V30 11 2 10 12
M  V30 12 1 10 13
M  V30 13 2 13 14
M  V30 14 1 14 15
M  V30 15 1 15 16
M  V30 16 2 15 17
M  V30 17 1 17 18
M  V30 18 2 18 19
M  V30 19 1 19 20
M  V30 20 1 8 2
M  V30 21 1 19 13
M  V30 22 1 1 21
M  V30 23 1 1 22
M  V30 24 1 1 23
M  V30 25 1 3 24
M  V30 26 1 4 25
M  V30 27 1 7 26
M  V30 28 1 9 27
M  V30 29 1 14 28
M  V30 30 1 17 29
M  V30 31 1 18 30
M  V30 END BOND
M  V30 END CTAB
M  END
>  <Dataset>  (426) 
ChEMBL_Kinases

>  <Ligand_Instance>  (426) 
nan

>  <PDB_ID>  (426) 
nan

>  <Standardized_SMILES>  (426) 
Cc1ccc(Cl)cc1NS(=O)(=O)c1cc(Cl)ccc1Cl

>  <Name>  (426) 
nan

>  <Pocket>  (426) 
nan

>  <ATP_Site>  (426) 
nan

>  <Peripheral>  (426) 
nan

>  <Num_H_Atoms_ProtBoundConf>  (426) 
nan

>  <Num_Resolved_Atoms>  (426) 
nan

>  <Num_Not_Resolved_Atoms>  (426) 
nan

$$$$
CHEMBL1171400
     RDKit          3D

  0  0  0  0  0  0  0  0  0  0999 V3000
M  V30 BEGIN CTAB
M  V30 COUNTS 30 31 0 0 0
M  V30 BEGIN ATOM
M  V30 1 O -0.287419 -0.559486 4.644020 0
M  V30 2 S 0.273499 -0.984282 3.318681 0
M  V30 3 O 1.330845 -2.026039 3.546674 0
M  V30 4 N 0.977661 0.358802 2.505374 0
M  V30 5 C 1.596132 0.161859 1.241161 0
M  V30 6 C 2.453597 -0.857632 0.919407 0
M  V30 7 C 3.034628 -1.020830 -0.310196 0
M  V30 8 C 2.730280 -0.088880 -1.288999 0
M  V30 9 C 1.874288 0.958557 -1.024736 0
M  V30 10 C 1.568990 1.943556 -2.102858 0
M  V30 11 F 2.646220 2.042170 -2.960782 0
M  V30 12 F 1.279408 3.147702 -1.511666 0
M  V30 13 F 0.440082 1.483165 -2.774354 0
M  V30 14 C 1.315909 1.076297 0.231894 0
M  V30 15 C -1.018067 -1.657698 2.356731 0
M  V30 16 C -0.812825 -2.655579 1.428139 0
M  V30 17 C -1.853017 -3.166176 0.684424 0
M  V30 18 C -3.129918 -2.708602 0.832839 0
M  V30 19 Cl -4.468905 -3.345102 -0.104221 0
M  V30 20 C -3.343632 -1.700972 1.768989 0
M  V30 21 C -2.305561 -1.201269 2.501544 0
M  V30 22 H 0.959152 1.326242 2.927275 0
M  V30 23 H 2.682248 -1.577454 1.692493 0
M  V30 24 H 3.709058 -1.877389 -0.458397 0
M  V30 25 H 3.212342 -0.250391 -2.259100 0
M  V30 26 H 0.649839 1.904401 0.412460 0
M  V30 27 H 0.166960 -3.045629 1.276155 0
M  V30 28 H -1.646893 -3.949967 -0.034426 0
M  V30 29 H -4.336138 -1.317860 1.911227 0
M  V30 30 H -2.495886 -0.428656 3.213152 0
M  V30 END ATOM
M  V30 BEGIN BOND
M  V30 1 2 1 2
M  V30 2 2 2 3
M  V30 3 1 2 4
M  V30 4 1 4 5
M  V30 5 2 5 6
M  V30 6 1 6 7
M  V30 7 2 7 8
M  V30 8 1 8 9
M  V30 9 1 9 10
M  V30 10 1 10 11
M  V30 11 1 10 12
M  V30 12 1 10 13
M  V30 13 2 9 14
M  V30 14 1 2 15
M  V30 15 2 15 16
M  V30 16 1 16 17
M  V30 17 2 17 18
M  V30 18 1 18 19
M  V30 19 1 18 20
M  V30 20 2 20 21
M  V30 21 1 14 5
M  V30 22 1 21 15
M  V30 23 1 4 22
M  V30 24 1 6 23
M  V30 25 1 7 24
M  V30 26 1 8 25
M  V30 27 1 14 26
M  V30 28 1 16 27
M  V30 29 1 17 28
M  V30 30 1 20 29
M  V30 31 1 21 30
M  V30 END BOND
M  V30 END CTAB
M  END
>  <Dataset>  (427) 
ChEMBL_Kinases

>  <Ligand_Instance>  (427) 
nan

>  <PDB_ID>  (427) 
nan

>  <Standardized_SMILES>  (427) 
O=S(=O)(Nc1cccc(C(F)(F)F)c1)c1ccc(Cl)cc1

>  <Name>  (427) 
nan

>  <Pocket>  (427) 
nan

>  <ATP_Site>  (427) 
nan

>  <Peripheral>  (427) 
nan

>  <Num_H_Atoms_ProtBoundConf>  (427) 
nan

>  <Num_Resolved_Atoms>  (427) 
nan

>  <Num_Not_Resolved_Atoms>  (427) 
nan

$$$$
CHEMBL1171994
     RDKit          3D

  0  0  0  0  0  0  0  0  0  0999 V3000
M  V30 BEGIN CTAB
M  V30 COUNTS 48 51 0 0 0
M  V30 BEGIN ATOM
M  V30 1 C 2.281292 -2.112711 2.257521 0
M  V30 2 C 2.850711 -2.734581 1.061006 0
M  V30 3 C 3.310914 -4.030942 0.977166 0
M  V30 4 N 3.747926 -4.236785 -0.278543 0
M  V30 5 C 3.592372 -3.125998 -1.021606 0
M  V30 6 N 3.853022 -2.793624 -2.311438 0
M  V30 7 C 3.540711 -1.529246 -2.712632 0
M  V30 8 N 2.996224 -0.632442 -1.879825 0
M  V30 9 C 2.720891 -0.932417 -0.575392 0
M  V30 10 N 2.172660 0.179589 0.127854 0
M  V30 11 C 2.596183 1.083756 1.179805 0
M  V30 12 C 1.703898 2.304604 1.017402 0
M  V30 13 C 0.390384 1.589147 0.659515 0 CFG=2
M  V30 14 N -0.532790 2.547535 0.067834 0
M  V30 15 C -0.190675 1.116264 1.953649 0
M  V30 16 N -1.429028 0.403961 1.835323 0
M  V30 17 C -2.715417 0.721542 1.358640 0
M  V30 18 O -2.894886 1.881500 0.924465 0
M  V30 19 C -3.849729 -0.187517 1.330179 0
M  V30 20 C -5.033190 0.296632 0.828440 0
M  V30 21 C -6.178295 -0.503325 0.760875 0
M  V30 22 C -6.173158 -1.807293 1.191986 0
M  V30 23 F -7.235629 -2.640563 1.159296 0
M  V30 24 C -4.986243 -2.295048 1.695911 0
M  V30 25 C -3.864678 -1.495735 1.756881 0
M  V30 26 C 0.843530 0.557345 -0.285888 0
M  V30 27 C 3.034742 -2.204633 -0.173297 0
M  V30 28 H 1.905764 -2.915480 2.936218 0
M  V30 29 H 3.012444 -1.551463 2.840085 0
M  V30 30 H 1.374868 -1.552088 1.951343 0
M  V30 31 H 3.300942 -4.733983 1.817747 0
M  V30 32 H 4.152586 -5.123515 -0.642833 0
M  V30 33 H 3.769695 -1.316457 -3.754208 0
M  V30 34 H 2.529179 0.704054 2.194346 0
M  V30 35 H 3.633097 1.456120 1.011725 0
M  V30 36 H 2.028835 2.974467 0.207241 0
M  V30 37 H 1.529655 2.815330 1.982310 0
M  V30 38 H -0.549832 2.365440 -0.954125 0
M  V30 39 H -0.297611 3.526785 0.326234 0
M  V30 40 H -0.378100 2.077943 2.546087 0
M  V30 41 H 0.548502 0.592610 2.577723 0
M  V30 42 H -1.391593 -0.603715 2.182341 0
M  V30 43 H -5.161603 1.295464 0.462214 0
M  V30 44 H -7.104665 -0.110675 0.363630 0
M  V30 45 H -4.877228 -3.321132 2.065503 0
M  V30 46 H -2.945377 -1.897766 2.155168 0
M  V30 47 H 0.163844 -0.314058 -0.390950 0
M  V30 48 H 0.948881 1.045892 -1.288201 0
M  V30 END ATOM
M  V30 BEGIN BOND
M  V30 1 1 1 2
M  V30 2 2 2 3
M  V30 3 1 3 4
M  V30 4 1 4 5
M  V30 5 2 5 6
M  V30 6 1 6 7
M  V30 7 2 7 8
M  V30 8 1 8 9
M  V30 9 1 9 10
M  V30 10 1 10 11
M  V30 11 1 11 12
M  V30 12 1 12 13
M  V30 13 1 13 14 CFG=3
M  V30 14 1 13 15
M  V30 15 1 15 16
M  V30 16 1 16 17
M  V30 17 2 17 18
M  V30 18 1 17 19
M  V30 19 2 19 20
M  V30 20 1 20 21
M  V30 21 2 21 22
M  V30 22 1 22 23
M  V30 23 1 22 24
M  V30 24 2 24 25
M  V30 25 1 13 26
M  V30 26 2 9 27
M  V30 27 1 27 2
M  V30 28 1 27 5
M  V30 29 1 26 10
M  V30 30 1 25 19
M  V30 31 1 1 28
M  V30 32 1 1 29
M  V30 33 1 1 30
M  V30 34 1 3 31
M  V30 35 1 4 32
M  V30 36 1 7 33
M  V30 37 1 11 34
M  V30 38 1 11 35
M  V30 39 1 12 36
M  V30 40 1 12 37
M  V30 41 1 14 38
M  V30 42 1 14 39
M  V30 43 1 15 40
M  V30 44 1 15 41
M  V30 45 1 16 42
M  V30 46 1 20 43
M  V30 47 1 21 44
M  V30 48 1 24 45
M  V30 49 1 25 46
M  V30 50 1 26 47
M  V30 51 1 26 48
M  V30 END BOND
M  V30 END CTAB
M  END
>  <Dataset>  (428) 
ChEMBL_Kinases

>  <Ligand_Instance>  (428) 
nan

>  <PDB_ID>  (428) 
nan

>  <Standardized_SMILES>  (428) 
Cc1c[nH]c2ncnc(N3CC[C@](N)(CNC(=O)c4ccc(F)cc4)C3)c12

>  <Name>  (428) 
nan

>  <Pocket>  (428) 
nan

>  <ATP_Site>  (428) 
nan

>  <Peripheral>  (428) 
nan

>  <Num_H_Atoms_ProtBoundConf>  (428) 
nan

>  <Num_Resolved_Atoms>  (428) 
nan

>  <Num_Not_Resolved_Atoms>  (428) 
nan

$$$$
CHEMBL1171612
     RDKit          3D

  0  0  0  0  0  0  0  0  0  0999 V3000
M  V30 BEGIN CTAB
M  V30 COUNTS 39 41 0 0 0
M  V30 BEGIN ATOM
M  V30 1 O 0.733157 1.462640 3.289623 0
M  V30 2 C 0.532238 0.522686 2.482515 0
M  V30 3 N 1.641298 -0.266528 2.090446 0
M  V30 4 C 3.026436 -0.142758 2.494635 0
M  V30 5 C 3.535872 1.214458 2.081754 0
M  V30 6 C 3.746710 1.249054 0.698712 0
M  V30 7 F 3.527391 0.220372 -0.166576 0
M  V30 8 C 4.219964 2.399543 0.089253 0
M  V30 9 C 4.468161 3.492499 0.910424 0
M  V30 10 C 4.262280 3.461248 2.270790 0
M  V30 11 C 3.785059 2.296847 2.876088 0
M  V30 12 F 3.543547 2.123635 4.195685 0
M  V30 13 C -0.815221 0.253733 1.964105 0
M  V30 14 C -1.135421 -0.743419 1.051254 0
M  V30 15 C -2.494623 -0.647986 0.836810 0
M  V30 16 C -3.322599 -1.469038 -0.045759 0
M  V30 17 O -4.491688 -1.054305 -0.339453 0
M  V30 18 C -2.850399 -2.736078 -0.595859 0
M  V30 19 C -3.131947 -2.855478 -1.943330 0
M  V30 20 C -2.793426 -3.958042 -2.719795 0
M  V30 21 C -2.124303 -4.990241 -2.054038 0
M  V30 22 C -1.837679 -4.887210 -0.713343 0
M  V30 23 C -2.188455 -3.773118 0.041298 0
M  V30 24 F -1.963658 -3.557895 1.348762 0
M  V30 25 C -2.937133 0.393864 1.622693 0
M  V30 26 N -1.914139 0.953757 2.317880 0
M  V30 27 H 1.393389 -1.039743 1.412574 0
M  V30 28 H 3.628089 -0.914286 2.022761 0
M  V30 29 H 3.084652 -0.138636 3.602838 0
M  V30 30 H 4.398803 2.467342 -0.990256 0
M  V30 31 H 4.839535 4.421765 0.475815 0
M  V30 32 H 4.446274 4.288219 2.934889 0
M  V30 33 H -0.444424 -1.455608 0.597253 0
M  V30 34 H -3.651800 -2.100377 -2.542198 0
M  V30 35 H -3.008504 -4.057517 -3.765927 0
M  V30 36 H -1.823335 -5.897461 -2.590073 0
M  V30 37 H -1.321650 -5.643693 -0.138313 0
M  V30 38 H -3.990719 0.710067 1.661985 0
M  V30 39 H -1.984767 1.756882 2.980194 0
M  V30 END ATOM
M  V30 BEGIN BOND
M  V30 1 2 1 2
M  V30 2 1 2 3
M  V30 3 1 3 4
M  V30 4 1 4 5
M  V30 5 2 5 6
M  V30 6 1 6 7
M  V30 7 1 6 8
M  V30 8 2 8 9
M  V30 9 1 9 10
M  V30 10 2 10 11
M  V30 11 1 11 12
M  V30 12 1 2 13
M  V30 13 2 13 14
M  V30 14 1 14 15
M  V30 15 1 15 16
M  V30 16 2 16 17
M  V30 17 1 16 18
M  V30 18 2 18 19
M  V30 19 1 19 20
M  V30 20 2 20 21
M  V30 21 1 21 22
M  V30 22 2 22 23
M  V30 23 1 23 24
M  V30 24 2 15 25
M  V30 25 1 25 26
M  V30 26 1 11 5
M  V30 27 1 26 13
M  V30 28 1 23 18
M  V30 29 1 3 27
M  V30 30 1 4 28
M  V30 31 1 4 29
M  V30 32 1 8 30
M  V30 33 1 9 31
M  V30 34 1 10 32
M  V30 35 1 14 33
M  V30 36 1 19 34
M  V30 37 1 20 35
M  V30 38 1 21 36
M  V30 39 1 22 37
M  V30 40 1 25 38
M  V30 41 1 26 39
M  V30 END BOND
M  V30 END CTAB
M  END
>  <Dataset>  (429) 
ChEMBL_Kinases

>  <Ligand_Instance>  (429) 
nan

>  <PDB_ID>  (429) 
nan

>  <Standardized_SMILES>  (429) 
O=C(NCc1c(F)cccc1F)c1cc(C(=O)c2ccccc2F)c[nH]1

>  <Name>  (429) 
nan

>  <Pocket>  (429) 
nan

>  <ATP_Site>  (429) 
nan

>  <Peripheral>  (429) 
nan

>  <Num_H_Atoms_ProtBoundConf>  (429) 
nan

>  <Num_Resolved_Atoms>  (429) 
nan

>  <Num_Not_Resolved_Atoms>  (429) 
nan

$$$$
CHEMBL1171613
     RDKit          3D

  0  0  0  0  0  0  0  0  0  0999 V3000
M  V30 BEGIN CTAB
M  V30 COUNTS 56 59 0 0 0
M  V30 BEGIN ATOM
M  V30 1 C -0.974984 -1.556975 -1.538348 0
M  V30 2 N -0.164002 -2.592021 -2.103021 0
M  V30 3 C 0.559987 -3.390957 -1.178253 0
M  V30 4 C 1.922458 -2.882099 -0.800454 0
M  V30 5 N 2.373672 -1.934697 -1.808548 0
M  V30 6 C 3.077420 -0.821833 -1.205174 0
M  V30 7 C 4.420396 -0.812419 -0.876268 0
M  V30 8 C 4.898913 0.326649 -0.268529 0
M  V30 9 C 4.146132 1.432516 0.026290 0
M  V30 10 C 2.809488 1.456296 -0.288497 0
M  V30 11 C 1.705634 2.457320 -0.045479 0
M  V30 12 N 0.938292 1.963520 1.073179 0
M  V30 13 C 0.991642 1.930932 2.482310 0
M  V30 14 O 2.032280 2.533700 2.928132 0
M  V30 15 C -0.056108 1.268122 3.253451 0
M  V30 16 C -1.090821 0.511042 2.733723 0
M  V30 17 C -1.817236 0.093200 3.825195 0
M  V30 18 C -2.994070 -0.745795 3.776842 0
M  V30 19 O -3.431908 -1.292480 4.841087 0
M  V30 20 C -3.816415 -1.094930 2.641470 0
M  V30 21 C -4.286444 -0.238486 1.639157 0
M  V30 22 C -5.067887 -0.699817 0.603627 0
M  V30 23 C -5.423376 -2.012006 0.500298 0
M  V30 24 C -5.000740 -2.940729 1.453091 0
M  V30 25 C -4.212438 -2.427486 2.482342 0
M  V30 26 F -3.802064 -3.350206 3.411343 0
M  V30 27 C -1.234133 0.586908 4.968017 0
M  V30 28 N -0.159574 1.300753 4.581101 0
M  V30 29 C 2.309187 0.305664 -0.907167 0
M  V30 30 C 1.989518 -2.349828 -3.145497 0
M  V30 31 C 0.487416 -2.270674 -3.326797 0
M  V30 32 H -0.637264 -1.222900 -0.533618 0
M  V30 33 H -2.054793 -1.856505 -1.406811 0
M  V30 34 H -0.973913 -0.616489 -2.152401 0
M  V30 35 H -0.050647 -3.450218 -0.245995 0
M  V30 36 H 0.607205 -4.436865 -1.557053 0
M  V30 37 H 1.899804 -2.466552 0.227982 0
M  V30 38 H 2.603892 -3.754938 -0.782507 0
M  V30 39 H 5.005336 -1.682008 -1.115177 0
M  V30 40 H 5.947013 0.383438 0.009466 0
M  V30 41 H 4.449774 2.352320 0.496195 0
M  V30 42 H 2.176201 3.442211 0.180855 0
M  V30 43 H 1.072434 2.502665 -0.932981 0
M  V30 44 H 0.060541 1.470669 0.701199 0
M  V30 45 H -1.266092 0.310155 1.702907 0
M  V30 46 H -3.973842 0.797009 1.764861 0
M  V30 47 H -5.396528 0.023013 -0.136974 0
M  V30 48 H -6.038823 -2.371290 -0.315502 0
M  V30 49 H -5.250413 -3.973601 1.417140 0
M  V30 50 H -1.598811 0.410364 5.979259 0
M  V30 51 H 0.501636 1.812777 5.214483 0
M  V30 52 H 1.267637 0.231545 -1.197009 0
M  V30 53 H 2.537569 -1.807168 -3.914828 0
M  V30 54 H 2.263220 -3.428308 -3.240041 0
M  V30 55 H 0.196842 -2.968252 -4.130819 0
M  V30 56 H 0.145293 -1.260124 -3.638407 0
M  V30 END ATOM
M  V30 BEGIN BOND
M  V30 1 1 1 2
M  V30 2 1 2 3
M  V30 3 1 3 4
M  V30 4 1 4 5
M  V30 5 1 5 6
M  V30 6 2 6 7
M  V30 7 1 7 8
M  V30 8 2 8 9
M  V30 9 1 9 10
M  V30 10 1 10 11
M  V30 11 1 11 12
M  V30 12 1 12 13
M  V30 13 2 13 14
M  V30 14 1 13 15
M  V30 15 2 15 16
M  V30 16 1 16 17
M  V30 17 1 17 18
M  V30 18 2 18 19
M  V30 19 1 18 20
M  V30 20 2 20 21
M  V30 21 1 21 22
M  V30 22 2 22 23
M  V30 23 1 23 24
M  V30 24 2 24 25
M  V30 25 1 25 26
M  V30 26 2 17 27
M  V30 27 1 27 28
M  V30 28 2 10 29
M  V30 29 1 5 30
M  V30 30 1 30 31
M  V30 31 1 31 2
M  V30 32 1 29 6
M  V30 33 1 28 15
M  V30 34 1 25 20
M  V30 35 1 1 32
M  V30 36 1 1 33
M  V30 37 1 1 34
M  V30 38 1 3 35
M  V30 39 1 3 36
M  V30 40 1 4 37
M  V30 41 1 4 38
M  V30 42 1 7 39
M  V30 43 1 8 40
M  V30 44 1 9 41
M  V30 45 1 11 42
M  V30 46 1 11 43
M  V30 47 1 12 44
M  V30 48 1 16 45
M  V30 49 1 21 46
M  V30 50 1 22 47
M  V30 51 1 23 48
M  V30 52 1 24 49
M  V30 53 1 27 50
M  V30 54 1 28 51
M  V30 55 1 29 52
M  V30 56 1 30 53
M  V30 57 1 30 54
M  V30 58 1 31 55
M  V30 59 1 31 56
M  V30 END BOND
M  V30 END CTAB
M  END
>  <Dataset>  (430) 
ChEMBL_Kinases

>  <Ligand_Instance>  (430) 
nan

>  <PDB_ID>  (430) 
nan

>  <Standardized_SMILES>  (430) 
CN1CCN(c2cccc(CNC(=O)c3cc(C(=O)c4ccccc4F)c[nH]3)c2)CC1

>  <Name>  (430) 
nan

>  <Pocket>  (430) 
nan

>  <ATP_Site>  (430) 
nan

>  <Peripheral>  (430) 
nan

>  <Num_H_Atoms_ProtBoundConf>  (430) 
nan

>  <Num_Resolved_Atoms>  (430) 
nan

>  <Num_Not_Resolved_Atoms>  (430) 
nan

$$$$
CHEMBL1171647
     RDKit          3D

  0  0  0  0  0  0  0  0  0  0999 V3000
M  V30 BEGIN CTAB
M  V30 COUNTS 51 54 0 0 0
M  V30 BEGIN ATOM
M  V30 1 C 3.646312 0.477008 -2.753845 0
M  V30 2 C 3.085175 -0.898448 -2.485664 0
M  V30 3 C 3.639446 -1.536792 -1.267135 0
M  V30 4 C 4.701645 -2.452228 -1.282592 0
M  V30 5 N 4.997500 -2.825142 -0.016960 0
M  V30 6 C 4.178280 -2.199126 0.847178 0
M  V30 7 N 3.961473 -2.147882 2.157090 0
M  V30 8 C 3.007462 -1.392425 2.721442 0
M  V30 9 N 2.210573 -0.635351 1.949602 0
M  V30 10 C 2.362190 -0.625996 0.600187 0
M  V30 11 N 1.419848 0.233120 -0.035386 0
M  V30 12 C 1.158506 1.430714 -0.826029 0
M  V30 13 C 0.174426 2.247227 -0.009799 0
M  V30 14 C -0.751144 1.135219 0.454578 0 CFG=2
M  V30 15 N -1.945733 1.257072 -0.327140 0
M  V30 16 C -0.934947 1.133349 1.933213 0
M  V30 17 N -1.802187 0.074024 2.363050 0
M  V30 18 C -3.151096 -0.249282 2.130709 0
M  V30 19 O -3.733680 0.580394 1.382924 0
M  V30 20 C -3.914561 -1.371472 2.626215 0
M  V30 21 C -5.255642 -1.456055 2.282356 0
M  V30 22 C -6.090933 -2.460133 2.684273 0
M  V30 23 C -5.603253 -3.464457 3.479609 0
M  V30 24 F -6.439667 -4.451893 3.870926 0
M  V30 25 C -4.277185 -3.457625 3.868855 0
M  V30 26 C -3.510014 -2.413787 3.421064 0
M  V30 27 F -2.222132 -2.433076 3.815183 0
M  V30 28 C 0.006428 -0.093188 0.033786 0
M  V30 29 C 3.354260 -1.416625 0.073182 0
M  V30 30 H 4.479332 0.414050 -3.489523 0
M  V30 31 H 4.051813 0.964289 -1.855290 0
M  V30 32 H 2.847014 1.071969 -3.247863 0
M  V30 33 H 3.316434 -1.528561 -3.364179 0
M  V30 34 H 1.962888 -0.886916 -2.460463 0
M  V30 35 H 5.218610 -2.815996 -2.165065 0
M  V30 36 H 5.730390 -3.486473 0.315881 0
M  V30 37 H 2.975722 -1.474445 3.805228 0
M  V30 38 H 2.056387 2.090012 -0.919428 0
M  V30 39 H 0.807670 1.230859 -1.838984 0
M  V30 40 H -0.351971 2.966851 -0.657778 0
M  V30 41 H 0.639325 2.751893 0.835083 0
M  V30 42 H -1.692210 0.887665 -1.293299 0
M  V30 43 H -2.118241 2.287161 -0.511971 0
M  V30 44 H 0.065395 1.081731 2.389758 0
M  V30 45 H -1.366196 2.136578 2.206736 0
M  V30 46 H -1.291841 -0.608724 2.999496 0
M  V30 47 H -5.732962 -0.694728 1.647695 0
M  V30 48 H -7.138096 -2.494707 2.394624 0
M  V30 49 H -3.876547 -4.235038 4.491454 0
M  V30 50 H -0.393656 -0.404002 -0.952737 0
M  V30 51 H -0.212906 -0.967319 0.704410 0
M  V30 END ATOM
M  V30 BEGIN BOND
M  V30 1 1 1 2
M  V30 2 1 2 3
M  V30 3 2 3 4
M  V30 4 1 4 5
M  V30 5 1 5 6
M  V30 6 2 6 7
M  V30 7 1 7 8
M  V30 8 2 8 9
M  V30 9 1 9 10
M  V30 10 1 10 11
M  V30 11 1 11 12
M  V30 12 1 12 13
M  V30 13 1 13 14
M  V30 14 1 14 15 CFG=3
M  V30 15 1 14 16
M  V30 16 1 16 17
M  V30 17 1 17 18
M  V30 18 2 18 19
M  V30 19 1 18 20
M  V30 20 2 20 21
M  V30 21 1 21 22
M  V30 22 2 22 23
M  V30 23 1 23 24
M  V30 24 1 23 25
M  V30 25 2 25 26
M  V30 26 1 26 27
M  V30 27 1 14 28
M  V30 28 2 10 29
M  V30 29 1 29 3
M  V30 30 1 29 6
M  V30 31 1 28 11
M  V30 32 1 26 20
M  V30 33 1 1 30
M  V30 34 1 1 31
M  V30 35 1 1 32
M  V30 36 1 2 33
M  V30 37 1 2 34
M  V30 38 1 4 35
M  V30 39 1 5 36
M  V30 40 1 8 37
M  V30 41 1 12 38
M  V30 42 1 12 39
M  V30 43 1 13 40
M  V30 44 1 13 41
M  V30 45 1 15 42
M  V30 46 1 15 43
M  V30 47 1 16 44
M  V30 48 1 16 45
M  V30 49 1 17 46
M  V30 50 1 21 47
M  V30 51 1 22 48
M  V30 52 1 25 49
M  V30 53 1 28 50
M  V30 54 1 28 51
M  V30 END BOND
M  V30 END CTAB
M  END
>  <Dataset>  (431) 
ChEMBL_Kinases

>  <Ligand_Instance>  (431) 
nan

>  <PDB_ID>  (431) 
nan

>  <Standardized_SMILES>  (431) 
CCc1c[nH]c2ncnc(N3CC[C@](N)(CNC(=O)c4ccc(F)cc4F)C3)c12

>  <Name>  (431) 
nan

>  <Pocket>  (431) 
nan

>  <ATP_Site>  (431) 
nan

>  <Peripheral>  (431) 
nan

>  <Num_H_Atoms_ProtBoundConf>  (431) 
nan

>  <Num_Resolved_Atoms>  (431) 
nan

>  <Num_Not_Resolved_Atoms>  (431) 
nan

$$$$
CHEMBL1171789
     RDKit          3D

  0  0  0  0  0  0  0  0  0  0999 V3000
M  V30 BEGIN CTAB
M  V30 COUNTS 42 43 0 0 0
M  V30 BEGIN ATOM
M  V30 1 C 1.697657 -3.811452 2.334949 0
M  V30 2 C 0.575362 -2.850492 2.657903 0
M  V30 3 N 0.291079 -2.062919 1.458926 0
M  V30 4 C -0.943643 -2.202369 0.781393 0
M  V30 5 O -1.846989 -3.013058 1.182096 0
M  V30 6 C -1.241262 -1.430327 -0.401284 0
M  V30 7 C -0.382134 -0.472752 -0.954717 0
M  V30 8 C -0.998310 0.067097 -2.090057 0
M  V30 9 C -0.500718 1.108375 -3.013525 0
M  V30 10 O -1.032801 1.196619 -4.139821 0
M  V30 11 C 0.594378 1.925208 -2.449362 0
M  V30 12 C 0.434250 2.386872 -1.142553 0
M  V30 13 C 1.353314 3.166462 -0.452492 0
M  V30 14 C 2.509475 3.492562 -1.146318 0
M  V30 15 F 3.409796 4.257803 -0.468765 0
M  V30 16 C 2.693660 3.053113 -2.429087 0
M  V30 17 C 1.764334 2.279788 -3.091327 0
M  V30 18 F 1.907769 1.827782 -4.349083 0
M  V30 19 C -2.228233 -0.580019 -2.201879 0
M  V30 20 N -2.323114 -1.453119 -1.182116 0
M  V30 21 C 0.853169 -1.970176 3.831340 0
M  V30 22 C 0.919347 -2.755874 5.120499 0
M  V30 23 C -0.357381 -1.036184 3.957240 0
M  V30 24 O 1.949963 -1.138792 3.637755 0
M  V30 25 H 2.084170 -4.324644 3.236473 0
M  V30 26 H 1.236569 -4.618900 1.693434 0
M  V30 27 H 2.491243 -3.370777 1.702230 0
M  V30 28 H -0.306326 -3.480549 2.877340 0
M  V30 29 H 1.016089 -1.391455 1.106754 0
M  V30 30 H 0.614065 -0.158064 -0.604521 0
M  V30 31 H -0.486728 2.116234 -0.614345 0
M  V30 32 H 1.101880 3.463414 0.574155 0
M  V30 33 H 3.610912 3.319341 -2.960524 0
M  V30 34 H -2.977324 -0.408181 -2.972357 0
M  V30 35 H -3.180334 -2.064669 -1.055127 0
M  V30 36 H -0.066003 -3.277603 5.220779 0
M  V30 37 H 1.770033 -3.456825 5.149362 0
M  V30 38 H 1.003983 -2.080874 6.008082 0
M  V30 39 H -1.265431 -1.639354 4.232665 0
M  V30 40 H -0.475362 -0.495791 3.019386 0
M  V30 41 H -0.121926 -0.319191 4.769209 0
M  V30 42 H 2.716414 -1.588804 3.199000 0
M  V30 END ATOM
M  V30 BEGIN BOND
M  V30 1 1 1 2
M  V30 2 1 2 3
M  V30 3 1 3 4
M  V30 4 2 4 5
M  V30 5 1 4 6
M  V30 6 2 6 7
M  V30 7 1 7 8
M  V30 8 1 8 9
M  V30 9 2 9 10
M  V30 10 1 9 11
M  V30 11 2 11 12
M  V30 12 1 12 13
M  V30 13 2 13 14
M  V30 14 1 14 15
M  V30 15 1 14 16
M  V30 16 2 16 17
M  V30 17 1 17 18
M  V30 18 2 8 19
M  V30 19 1 19 20
M  V30 20 1 2 21
M  V30 21 1 21 22
M  V30 22 1 21 23
M  V30 23 1 21 24
M  V30 24 1 20 6
M  V30 25 1 17 11
M  V30 26 1 1 25
M  V30 27 1 1 26
M  V30 28 1 1 27
M  V30 29 1 2 28
M  V30 30 1 3 29
M  V30 31 1 7 30
M  V30 32 1 12 31
M  V30 33 1 13 32
M  V30 34 1 16 33
M  V30 35 1 19 34
M  V30 36 1 20 35
M  V30 37 1 22 36
M  V30 38 1 22 37
M  V30 39 1 22 38
M  V30 40 1 23 39
M  V30 41 1 23 40
M  V30 42 1 23 41
M  V30 43 1 24 42
M  V30 END BOND
M  V30 END CTAB
M  END
>  <Dataset>  (432) 
ChEMBL_Kinases

>  <Ligand_Instance>  (432) 
nan

>  <PDB_ID>  (432) 
nan

>  <Standardized_SMILES>  (432) 
CC(NC(=O)c1cc(C(=O)c2ccc(F)cc2F)c[nH]1)C(C)(C)O

>  <Name>  (432) 
nan

>  <Pocket>  (432) 
nan

>  <ATP_Site>  (432) 
nan

>  <Peripheral>  (432) 
nan

>  <Num_H_Atoms_ProtBoundConf>  (432) 
nan

>  <Num_Resolved_Atoms>  (432) 
nan

>  <Num_Not_Resolved_Atoms>  (432) 
nan

$$$$
CHEMBL1171969
     RDKit          3D

  0  0  0  0  0  0  0  0  0  0999 V3000
M  V30 BEGIN CTAB
M  V30 COUNTS 30 31 0 0 0
M  V30 BEGIN ATOM
M  V30 1 O 0.120874 -1.307595 4.559463 0
M  V30 2 S 0.041976 -1.574484 3.083692 0
M  V30 3 O -0.149241 -3.055207 2.906903 0
M  V30 4 N 1.520490 -1.089522 2.376993 0
M  V30 5 C 1.785885 -1.275392 0.983843 0
M  V30 6 C 1.489278 -2.478380 0.332207 0
M  V30 7 C 1.760607 -2.626275 -1.026201 0
M  V30 8 C 2.323955 -1.594259 -1.750037 0
M  V30 9 C 2.625935 -0.398482 -1.132007 0
M  V30 10 C 3.234007 0.753340 -1.853944 0
M  V30 11 F 4.597006 0.654077 -1.965144 0
M  V30 12 F 2.889333 1.958683 -1.256857 0
M  V30 13 F 2.704757 0.814128 -3.132390 0
M  V30 14 C 2.349763 -0.270730 0.214968 0
M  V30 15 C -1.353050 -0.773408 2.439512 0
M  V30 16 C -1.301478 0.173970 1.445602 0
M  V30 17 C -2.385263 0.833339 0.906531 0
M  V30 18 Cl -2.221842 2.027690 -0.359942 0
M  V30 19 C -3.633222 0.501072 1.422826 0
M  V30 20 Cl -5.048950 1.309144 0.774201 0
M  V30 21 C -3.721956 -0.447620 2.423169 0
M  V30 22 C -2.612948 -1.089222 2.940297 0
M  V30 23 Cl -2.818086 -2.279556 4.208265 0
M  V30 24 H 2.351712 -0.631478 2.839870 0
M  V30 25 H 1.048555 -3.280894 0.906109 0
M  V30 26 H 1.515893 -3.565787 -1.480940 0
M  V30 27 H 2.537256 -1.703132 -2.806367 0
M  V30 28 H 2.579677 0.663310 0.722447 0
M  V30 29 H -0.341671 0.443825 1.033607 0
M  V30 30 H -4.686377 -0.708295 2.826228 0
M  V30 END ATOM
M  V30 BEGIN BOND
M  V30 1 2 1 2
M  V30 2 2 2 3
M  V30 3 1 2 4
M  V30 4 1 4 5
M  V30 5 2 5 6
M  V30 6 1 6 7
M  V30 7 2 7 8
M  V30 8 1 8 9
M  V30 9 1 9 10
M  V30 10 1 10 11
M  V30 11 1 10 12
M  V30 12 1 10 13
M  V30 13 2 9 14
M  V30 14 1 2 15
M  V30 15 2 15 16
M  V30 16 1 16 17
M  V30 17 1 17 18
M  V30 18 2 17 19
M  V30 19 1 19 20
M  V30 20 1 19 21
M  V30 21 2 21 22
M  V30 22 1 22 23
M  V30 23 1 14 5
M  V30 24 1 22 15
M  V30 25 1 4 24
M  V30 26 1 6 25
M  V30 27 1 7 26
M  V30 28 1 8 27
M  V30 29 1 14 28
M  V30 30 1 16 29
M  V30 31 1 21 30
M  V30 END BOND
M  V30 END CTAB
M  END
>  <Dataset>  (433) 
ChEMBL_Kinases

>  <Ligand_Instance>  (433) 
nan

>  <PDB_ID>  (433) 
nan

>  <Standardized_SMILES>  (433) 
O=S(=O)(Nc1cccc(C(F)(F)F)c1)c1cc(Cl)c(Cl)cc1Cl

>  <Name>  (433) 
nan

>  <Pocket>  (433) 
nan

>  <ATP_Site>  (433) 
nan

>  <Peripheral>  (433) 
nan

>  <Num_H_Atoms_ProtBoundConf>  (433) 
nan

>  <Num_Resolved_Atoms>  (433) 
nan

>  <Num_Not_Resolved_Atoms>  (433) 
nan

$$$$
CHEMBL1171971
     RDKit          3D

  0  0  0  0  0  0  0  0  0  0999 V3000
M  V30 BEGIN CTAB
M  V30 COUNTS 24 25 0 0 0
M  V30 BEGIN ATOM
M  V30 1 O 3.409170 -1.680047 1.830675 0
M  V30 2 S 2.031966 -1.088776 1.874409 0
M  V30 3 O 1.195085 -1.952925 2.807787 0
M  V30 4 N 1.287694 -1.239693 0.331606 0
M  V30 5 C 0.065002 -1.044227 -0.354052 0
M  V30 6 C -1.030276 -1.616513 0.306969 0
M  V30 7 C -2.326250 -1.574128 -0.163363 0
M  V30 8 C -2.524624 -0.919736 -1.363143 0
M  V30 9 C -1.448129 -0.357160 -2.013259 0
M  V30 10 C -0.152720 -0.394853 -1.551511 0
M  V30 11 C 2.076882 0.554504 2.468000 0
M  V30 12 C 3.229692 1.222543 2.700722 0
M  V30 13 C 3.252216 2.521321 3.160048 0
M  V30 14 Cl 4.557014 3.634342 3.549636 0
M  V30 15 S 1.401461 2.885330 3.294629 0
M  V30 16 C 0.933050 1.318914 2.742289 0
M  V30 17 Cl -0.784812 0.915629 2.616978 0
M  V30 18 H 1.902506 -1.612041 -0.453778 0
M  V30 19 H -0.940748 -2.148599 1.260573 0
M  V30 20 H -3.156703 -2.019775 0.358250 0
M  V30 21 H -3.499261 -0.822528 -1.830385 0
M  V30 22 H -1.594177 0.166411 -2.969322 0
M  V30 23 H 0.730515 0.021099 -2.005836 0
M  V30 24 H 4.237585 0.822655 2.556090 0
M  V30 END ATOM
M  V30 BEGIN BOND
M  V30 1 2 1 2
M  V30 2 2 2 3
M  V30 3 1 2 4
M  V30 4 1 4 5
M  V30 5 2 5 6
M  V30 6 1 6 7
M  V30 7 2 7 8
M  V30 8 1 8 9
M  V30 9 2 9 10
M  V30 10 1 2 11
M  V30 11 1 11 12
M  V30 12 2 12 13
M  V30 13 1 13 14
M  V30 14 1 13 15
M  V30 15 1 15 16
M  V30 16 1 16 17
M  V30 17 1 10 5
M  V30 18 2 16 11
M  V30 19 1 4 18
M  V30 20 1 6 19
M  V30 21 1 7 20
M  V30 22 1 8 21
M  V30 23 1 9 22
M  V30 24 1 10 23
M  V30 25 1 12 24
M  V30 END BOND
M  V30 END CTAB
M  END
>  <Dataset>  (434) 
ChEMBL_Kinases

>  <Ligand_Instance>  (434) 
nan

>  <PDB_ID>  (434) 
nan

>  <Standardized_SMILES>  (434) 
O=S(=O)(Nc1ccccc1)c1cc(Cl)sc1Cl

>  <Name>  (434) 
nan

>  <Pocket>  (434) 
nan

>  <ATP_Site>  (434) 
nan

>  <Peripheral>  (434) 
nan

>  <Num_H_Atoms_ProtBoundConf>  (434) 
nan

>  <Num_Resolved_Atoms>  (434) 
nan

>  <Num_Not_Resolved_Atoms>  (434) 
nan

$$$$
CHEMBL1171972
     RDKit          3D

  0  0  0  0  0  0  0  0  0  0999 V3000
M  V30 BEGIN CTAB
M  V30 COUNTS 27 28 0 0 0
M  V30 BEGIN ATOM
M  V30 1 C -3.292468 -2.140505 1.986380 0
M  V30 2 C -1.844941 -1.939327 1.681814 0
M  V30 3 C -1.035506 -1.435138 2.680691 0
M  V30 4 C 0.310430 -1.252759 2.383551 0
M  V30 5 C 0.815479 -1.566996 1.129797 0
M  V30 6 N 2.213039 -1.313415 1.012950 0
M  V30 7 S 2.763016 -0.508764 -0.421923 0
M  V30 8 O 2.377679 -1.274851 -1.655694 0
M  V30 9 O 4.247195 -0.345230 -0.348297 0
M  V30 10 C 1.982871 1.092319 -0.458811 0
M  V30 11 C 1.175211 1.544625 -1.416750 0
M  V30 12 C 0.662078 2.769465 -1.310061 0
M  V30 13 Cl -0.461378 3.620346 -2.473436 0
M  V30 14 S 1.278754 3.451041 0.204922 0
M  V30 15 C 2.216257 1.918160 0.547861 0
M  V30 16 Cl 3.253523 1.705737 2.059325 0
M  V30 17 C -0.024355 -2.069991 0.153483 0
M  V30 18 C -1.365535 -2.260111 0.424546 0
M  V30 19 H -3.883266 -2.261892 1.035169 0
M  V30 20 H -3.468315 -2.997945 2.634313 0
M  V30 21 H -3.746330 -1.222685 2.451747 0
M  V30 22 H -1.460946 -1.199597 3.649753 0
M  V30 23 H 0.882541 -0.851367 3.223993 0
M  V30 24 H 2.882318 -1.603842 1.768533 0
M  V30 25 H 0.909196 0.942416 -2.305421 0
M  V30 26 H 0.450327 -2.287915 -0.793809 0
M  V30 27 H -1.991213 -2.656141 -0.366392 0
M  V30 END ATOM
M  V30 BEGIN BOND
M  V30 1 1 1 2
M  V30 2 2 2 3
M  V30 3 1 3 4
M  V30 4 2 4 5
M  V30 5 1 5 6
M  V30 6 1 6 7
M  V30 7 2 7 8
M  V30 8 2 7 9
M  V30 9 1 7 10
M  V30 10 1 10 11
M  V30 11 2 11 12
M  V30 12 1 12 13
M  V30 13 1 12 14
M  V30 14 1 14 15
M  V30 15 1 15 16
M  V30 16 1 5 17
M  V30 17 2 17 18
M  V30 18 1 18 2
M  V30 19 2 15 10
M  V30 20 1 1 19
M  V30 21 1 1 20
M  V30 22 1 1 21
M  V30 23 1 3 22
M  V30 24 1 4 23
M  V30 25 1 6 24
M  V30 26 1 11 25
M  V30 27 1 17 26
M  V30 28 1 18 27
M  V30 END BOND
M  V30 END CTAB
M  END
>  <Dataset>  (435) 
ChEMBL_Kinases

>  <Ligand_Instance>  (435) 
nan

>  <PDB_ID>  (435) 
nan

>  <Standardized_SMILES>  (435) 
Cc1ccc(NS(=O)(=O)c2cc(Cl)sc2Cl)cc1

>  <Name>  (435) 
nan

>  <Pocket>  (435) 
nan

>  <ATP_Site>  (435) 
nan

>  <Peripheral>  (435) 
nan

>  <Num_H_Atoms_ProtBoundConf>  (435) 
nan

>  <Num_Resolved_Atoms>  (435) 
nan

>  <Num_Not_Resolved_Atoms>  (435) 
nan

$$$$
CHEMBL1171993
     RDKit          3D

  0  0  0  0  0  0  0  0  0  0999 V3000
M  V30 BEGIN CTAB
M  V30 COUNTS 46 49 0 0 0
M  V30 BEGIN ATOM
M  V30 1 N 3.102753 0.168137 2.607993 0
M  V30 2 C 2.543650 -0.812483 2.863785 0
M  V30 3 C 1.847310 -2.006760 3.198310 0
M  V30 4 C 2.301822 -2.862131 4.209343 0
M  V30 5 N 1.433532 -3.903970 4.296354 0
M  V30 6 C 0.451986 -3.752971 3.392289 0
M  V30 7 N -0.642930 -4.437148 3.030345 0
M  V30 8 C -1.450541 -3.971071 2.032110 0
M  V30 9 N -1.191727 -2.817298 1.370030 0
M  V30 10 C -0.081993 -2.102890 1.720558 0
M  V30 11 N 0.112834 -0.912290 0.964043 0
M  V30 12 C 1.157146 -0.426955 0.042898 0
M  V30 13 C 0.274224 -0.324360 -1.211302 0
M  V30 14 C -1.027652 0.256843 -0.648902 0 CFG=2
M  V30 15 N -2.145747 -0.618447 -0.807422 0
M  V30 16 C -1.237428 1.664293 -1.158230 0
M  V30 17 N -1.304690 1.672984 -2.597690 0
M  V30 18 C -2.192906 1.059979 -3.502355 0
M  V30 19 O -3.118577 0.369608 -3.013094 0
M  V30 20 C -2.091505 1.185993 -4.945649 0
M  V30 21 C -1.158803 1.894990 -5.644033 0
M  V30 22 C -1.085954 1.995896 -7.003891 0
M  V30 23 C -2.003841 1.348987 -7.774796 0
M  V30 24 F -1.953211 1.433355 -9.115549 0
M  V30 25 C -2.982981 0.607347 -7.122262 0
M  V30 26 C -3.016235 0.535118 -5.750532 0
M  V30 27 C -0.740459 0.287400 0.868635 0
M  V30 28 C 0.716440 -2.592150 2.729375 0
M  V30 29 H 3.155411 -2.838401 4.877883 0
M  V30 30 H 1.445940 -4.731252 4.929878 0
M  V30 31 H -2.337125 -4.518097 1.734389 0
M  V30 32 H 1.948480 -1.171365 -0.106556 0
M  V30 33 H 1.491989 0.581104 0.308360 0
M  V30 34 H 0.789733 0.340738 -1.899270 0
M  V30 35 H 0.099306 -1.347751 -1.643510 0
M  V30 36 H -2.703812 -0.725600 0.076032 0
M  V30 37 H -1.912229 -1.599196 -1.097294 0
M  V30 38 H -0.432918 2.324432 -0.789912 0
M  V30 39 H -2.200074 2.072724 -0.768858 0
M  V30 40 H -0.564430 2.233073 -3.084836 0
M  V30 41 H -0.402626 2.430664 -5.088800 0
M  V30 42 H -0.304130 2.586476 -7.485817 0
M  V30 43 H -3.718695 0.088228 -7.731501 0
M  V30 44 H -3.806701 -0.060822 -5.304004 0
M  V30 45 H -1.642631 0.157402 1.466140 0
M  V30 46 H -0.128384 1.179682 1.112762 0
M  V30 END ATOM
M  V30 BEGIN BOND
M  V30 1 3 1 2
M  V30 2 1 2 3
M  V30 3 2 3 4
M  V30 4 1 4 5
M  V30 5 1 5 6
M  V30 6 2 6 7
M  V30 7 1 7 8
M  V30 8 2 8 9
M  V30 9 1 9 10
M  V30 10 1 10 11
M  V30 11 1 11 12
M  V30 12 1 12 13
M  V30 13 1 13 14
M  V30 14 1 14 15 CFG=1
M  V30 15 1 14 16
M  V30 16 1 16 17
M  V30 17 1 17 18
M  V30 18 2 18 19
M  V30 19 1 18 20
M  V30 20 2 20 21
M  V30 21 1 21 22
M  V30 22 2 22 23
M  V30 23 1 23 24
M  V30 24 1 23 25
M  V30 25 2 25 26
M  V30 26 1 14 27
M  V30 27 2 10 28
M  V30 28 1 28 3
M  V30 29 1 28 6
M  V30 30 1 27 11
M  V30 31 1 26 20
M  V30 32 1 4 29
M  V30 33 1 5 30
M  V30 34 1 8 31
M  V30 35 1 12 32
M  V30 36 1 12 33
M  V30 37 1 13 34
M  V30 38 1 13 35
M  V30 39 1 15 36
M  V30 40 1 15 37
M  V30 41 1 16 38
M  V30 42 1 16 39
M  V30 43 1 17 40
M  V30 44 1 21 41
M  V30 45 1 22 42
M  V30 46 1 25 43
M  V30 47 1 26 44
M  V30 48 1 27 45
M  V30 49 1 27 46
M  V30 END BOND
M  V30 END CTAB
M  END
>  <Dataset>  (436) 
ChEMBL_Kinases

>  <Ligand_Instance>  (436) 
nan

>  <PDB_ID>  (436) 
nan

>  <Standardized_SMILES>  (436) 
N#Cc1c[nH]c2ncnc(N3CC[C@](N)(CNC(=O)c4ccc(F)cc4)C3)c12

>  <Name>  (436) 
nan

>  <Pocket>  (436) 
nan

>  <ATP_Site>  (436) 
nan

>  <Peripheral>  (436) 
nan

>  <Num_H_Atoms_ProtBoundConf>  (436) 
nan

>  <Num_Resolved_Atoms>  (436) 
nan

>  <Num_Not_Resolved_Atoms>  (436) 
nan

$$$$
CHEMBL1171611
     RDKit          3D

  0  0  0  0  0  0  0  0  0  0999 V3000
M  V30 BEGIN CTAB
M  V30 COUNTS 42 44 0 0 0
M  V30 BEGIN ATOM
M  V30 1 C 1.453087 -2.266372 -1.364214 0
M  V30 2 C 2.926106 -2.426136 -1.288398 0
M  V30 3 C 3.356419 -3.730608 -1.258264 0
M  V30 4 C 4.718717 -3.925645 -1.213193 0
M  V30 5 F 5.234941 -5.176365 -1.181414 0
M  V30 6 C 5.599258 -2.870208 -1.199290 0
M  V30 7 C 5.067144 -1.598581 -1.231795 0
M  V30 8 C 3.695502 -1.288674 -1.278059 0
M  V30 9 C 3.275265 0.084399 -1.268414 0
M  V30 10 O 3.938422 0.672738 -2.199036 0
M  V30 11 C 2.349365 0.893817 -0.505178 0
M  V30 12 C 2.629078 2.263656 -0.456685 0
M  V30 13 N 1.659039 2.847125 0.308812 0
M  V30 14 C 0.777815 1.961027 0.755935 0
M  V30 15 C -0.388919 2.204079 1.596895 0
M  V30 16 O -0.642375 3.372763 1.984463 0
M  V30 17 N -1.258387 1.161701 1.998704 0
M  V30 18 C -2.404236 1.440850 2.832533 0
M  V30 19 C -3.104759 0.132155 3.062269 0
M  V30 20 C -3.856304 -0.343369 1.991467 0
M  V30 21 F -3.988761 0.291903 0.783262 0
M  V30 22 C -4.553640 -1.547080 2.078814 0
M  V30 23 C -4.507652 -2.300436 3.254291 0
M  V30 24 C -3.757403 -1.807471 4.296943 0
M  V30 25 C -3.063680 -0.625013 4.231018 0
M  V30 26 F -2.315320 -0.099939 5.226204 0
M  V30 27 C 1.215014 0.760370 0.246944 0
M  V30 28 H 0.961448 -2.456000 -0.377696 0
M  V30 29 H 1.142476 -1.293976 -1.797579 0
M  V30 30 H 0.994938 -3.034236 -2.040749 0
M  V30 31 H 2.680907 -4.569873 -1.268184 0
M  V30 32 H 6.671709 -3.000226 -1.165049 0
M  V30 33 H 5.791476 -0.768436 -1.220624 0
M  V30 34 H 3.401039 2.923966 -0.867473 0
M  V30 35 H 1.561886 3.864331 0.554464 0
M  V30 36 H -1.009830 0.196188 1.652212 0
M  V30 37 H -3.123273 2.099466 2.328406 0
M  V30 38 H -2.122631 1.915135 3.795324 0
M  V30 39 H -5.155615 -1.968897 1.280316 0
M  V30 40 H -5.049415 -3.232868 3.319449 0
M  V30 41 H -3.685965 -2.351493 5.233288 0
M  V30 42 H 0.752008 -0.196312 0.400993 0
M  V30 END ATOM
M  V30 BEGIN BOND
M  V30 1 1 1 2
M  V30 2 2 2 3
M  V30 3 1 3 4
M  V30 4 1 4 5
M  V30 5 2 4 6
M  V30 6 1 6 7
M  V30 7 2 7 8
M  V30 8 1 8 9
M  V30 9 2 9 10
M  V30 10 1 9 11
M  V30 11 2 11 12
M  V30 12 1 12 13
M  V30 13 1 13 14
M  V30 14 1 14 15
M  V30 15 2 15 16
M  V30 16 1 15 17
M  V30 17 1 17 18
M  V30 18 1 18 19
M  V30 19 2 19 20
M  V30 20 1 20 21
M  V30 21 1 20 22
M  V30 22 2 22 23
M  V30 23 1 23 24
M  V30 24 2 24 25
M  V30 25 1 25 26
M  V30 26 2 14 27
M  V30 27 1 8 2
M  V30 28 1 27 11
M  V30 29 1 25 19
M  V30 30 1 1 28
M  V30 31 1 1 29
M  V30 32 1 1 30
M  V30 33 1 3 31
M  V30 34 1 6 32
M  V30 35 1 7 33
M  V30 36 1 12 34
M  V30 37 1 13 35
M  V30 38 1 17 36
M  V30 39 1 18 37
M  V30 40 1 18 38
M  V30 41 1 22 39
M  V30 42 1 23 40
M  V30 43 1 24 41
M  V30 44 1 27 42
M  V30 END BOND
M  V30 END CTAB
M  END
>  <Dataset>  (437) 
ChEMBL_Kinases

>  <Ligand_Instance>  (437) 
nan

>  <PDB_ID>  (437) 
nan

>  <Standardized_SMILES>  (437) 
Cc1cc(F)ccc1C(=O)c1c[nH]c(C(=O)NCc2c(F)cccc2F)c1

>  <Name>  (437) 
nan

>  <Pocket>  (437) 
nan

>  <ATP_Site>  (437) 
nan

>  <Peripheral>  (437) 
nan

>  <Num_H_Atoms_ProtBoundConf>  (437) 
nan

>  <Num_Resolved_Atoms>  (437) 
nan

>  <Num_Not_Resolved_Atoms>  (437) 
nan

$$$$
CHEMBL1082236
     RDKit          3D

  0  0  0  0  0  0  0  0  0  0999 V3000
M  V30 BEGIN CTAB
M  V30 COUNTS 40 42 0 0 0
M  V30 BEGIN ATOM
M  V30 1 C 2.815812 -6.056245 3.026318 0
M  V30 2 C 1.953814 -6.192841 1.793763 0
M  V30 3 C 2.335123 -5.226351 0.698412 0
M  V30 4 C 2.222774 -3.818935 1.111946 0
M  V30 5 O 1.826696 -3.724194 2.302969 0
M  V30 6 N 2.556546 -2.808628 0.168904 0
M  V30 7 C 2.481017 -1.412108 0.474225 0
M  V30 8 N 3.431779 -0.610622 0.985959 0
M  V30 9 N 3.019244 0.630477 1.139174 0
M  V30 10 C 1.722667 0.665939 0.707753 0
M  V30 11 C 0.771347 1.691896 0.627216 0
M  V30 12 C -0.494280 1.438388 0.137999 0
M  V30 13 C -1.467365 2.527420 0.066655 0
M  V30 14 C -1.373668 3.504013 1.037896 0
M  V30 15 C -2.227828 4.584435 1.085662 0
M  V30 16 C -3.234367 4.727313 0.133702 0
M  V30 17 O -4.113840 5.818318 0.163107 0
M  V30 18 C -3.329379 3.750949 -0.838834 0
M  V30 19 O -4.308287 3.823817 -1.822979 0
M  V30 20 C -2.473561 2.664065 -0.890331 0
M  V30 21 C -0.852290 0.171659 -0.282583 0
M  V30 22 C 0.079746 -0.863650 -0.210761 0
M  V30 23 C 1.366631 -0.615733 0.284439 0
M  V30 24 H 3.021257 -7.083576 3.421527 0
M  V30 25 H 3.797491 -5.613382 2.780059 0
M  V30 26 H 2.298183 -5.507287 3.844585 0
M  V30 27 H 0.884048 -6.112827 2.073520 0
M  V30 28 H 2.083468 -7.221488 1.401911 0
M  V30 29 H 1.630371 -5.386851 -0.152731 0
M  V30 30 H 3.333574 -5.510414 0.323242 0
M  V30 31 H 2.868260 -3.098968 -0.783275 0
M  V30 32 H 3.558790 1.444589 1.514870 0
M  V30 33 H 1.052605 2.681132 0.955818 0
M  V30 34 H -0.617334 3.470217 1.819009 0
M  V30 35 H -2.191467 5.379546 1.833450 0
M  V30 36 H -4.423526 6.160969 1.085828 0
M  V30 37 H -5.273160 3.922731 -1.474124 0
M  V30 38 H -2.517487 1.884107 -1.633200 0
M  V30 39 H -1.834870 -0.061486 -0.671328 0
M  V30 40 H -0.175052 -1.864838 -0.533944 0
M  V30 END ATOM
M  V30 BEGIN BOND
M  V30 1 1 1 2
M  V30 2 1 2 3
M  V30 3 1 3 4
M  V30 4 2 4 5
M  V30 5 1 4 6
M  V30 6 1 6 7
M  V30 7 2 7 8
M  V30 8 1 8 9
M  V30 9 1 9 10
M  V30 10 2 10 11
M  V30 11 1 11 12
M  V30 12 1 12 13
M  V30 13 2 13 14
M  V30 14 1 14 15
M  V30 15 2 15 16
M  V30 16 1 16 17
M  V30 17 1 16 18
M  V30 18 1 18 19
M  V30 19 2 18 20
M  V30 20 2 12 21
M  V30 21 1 21 22
M  V30 22 2 22 23
M  V30 23 1 23 7
M  V30 24 1 23 10
M  V30 25 1 20 13
M  V30 26 1 1 24
M  V30 27 1 1 25
M  V30 28 1 1 26
M  V30 29 1 2 27
M  V30 30 1 2 28
M  V30 31 1 3 29
M  V30 32 1 3 30
M  V30 33 1 6 31
M  V30 34 1 9 32
M  V30 35 1 11 33
M  V30 36 1 14 34
M  V30 37 1 15 35
M  V30 38 1 17 36
M  V30 39 1 19 37
M  V30 40 1 20 38
M  V30 41 1 21 39
M  V30 42 1 22 40
M  V30 END BOND
M  V30 END CTAB
M  END
>  <Dataset>  (438) 
ChEMBL_Kinases

>  <Ligand_Instance>  (438) 
nan

>  <PDB_ID>  (438) 
nan

>  <Standardized_SMILES>  (438) 
CCCC(=O)Nc1n[nH]c2cc(-c3ccc(O)c(O)c3)ccc12

>  <Name>  (438) 
nan

>  <Pocket>  (438) 
nan

>  <ATP_Site>  (438) 
nan

>  <Peripheral>  (438) 
nan

>  <Num_H_Atoms_ProtBoundConf>  (438) 
nan

>  <Num_Resolved_Atoms>  (438) 
nan

>  <Num_Not_Resolved_Atoms>  (438) 
nan

$$$$
CHEMBL1082235
     RDKit          3D

  0  0  0  0  0  0  0  0  0  0999 V3000
M  V30 BEGIN CTAB
M  V30 COUNTS 28 29 0 0 0
M  V30 BEGIN ATOM
M  V30 1 C -2.428176 -1.906588 3.185266 0
M  V30 2 C -1.125070 -1.668659 3.873948 0
M  V30 3 C 0.032092 -2.369728 3.148555 0
M  V30 4 C 0.077828 -1.820377 1.801419 0
M  V30 5 O -0.789254 -0.928557 1.506592 0
M  V30 6 N 0.974695 -2.151154 0.754473 0
M  V30 7 C 0.688515 -1.383970 -0.423236 0
M  V30 8 N -0.134999 -1.667344 -1.451695 0
M  V30 9 N -0.084682 -0.654756 -2.331925 0
M  V30 10 C 0.764577 0.294653 -1.894023 0
M  V30 11 C 1.212857 1.520209 -2.349259 0
M  V30 12 C 2.126511 2.293584 -1.643100 0
M  V30 13 Cl 2.622926 3.820538 -2.308077 0
M  V30 14 C 2.623742 1.844566 -0.434533 0
M  V30 15 C 2.173627 0.620564 0.016337 0
M  V30 16 C 1.272287 -0.140395 -0.682187 0
M  V30 17 H -2.333039 -2.728081 2.437359 0
M  V30 18 H -2.827522 -1.017286 2.648886 0
M  V30 19 H -3.206485 -2.144128 3.939588 0
M  V30 20 H -0.921793 -0.569307 3.891227 0
M  V30 21 H -1.168184 -2.040204 4.897337 0
M  V30 22 H 0.953801 -2.126761 3.728096 0
M  V30 23 H -0.108194 -3.462445 3.239441 0
M  V30 24 H 1.686990 -2.879477 0.986987 0
M  V30 25 H -0.600306 -0.554697 -3.238797 0
M  V30 26 H 0.841085 1.898246 -3.292972 0
M  V30 27 H 3.332004 2.427506 0.128585 0
M  V30 28 H 2.549770 0.241064 0.968315 0
M  V30 END ATOM
M  V30 BEGIN BOND
M  V30 1 1 1 2
M  V30 2 1 2 3
M  V30 3 1 3 4
M  V30 4 2 4 5
M  V30 5 1 4 6
M  V30 6 1 6 7
M  V30 7 2 7 8
M  V30 8 1 8 9
M  V30 9 1 9 10
M  V30 10 2 10 11
M  V30 11 1 11 12
M  V30 12 1 12 13
M  V30 13 2 12 14
M  V30 14 1 14 15
M  V30 15 2 15 16
M  V30 16 1 16 7
M  V30 17 1 16 10
M  V30 18 1 1 17
M  V30 19 1 1 18
M  V30 20 1 1 19
M  V30 21 1 2 20
M  V30 22 1 2 21
M  V30 23 1 3 22
M  V30 24 1 3 23
M  V30 25 1 6 24
M  V30 26 1 9 25
M  V30 27 1 11 26
M  V30 28 1 14 27
M  V30 29 1 15 28
M  V30 END BOND
M  V30 END CTAB
M  END
>  <Dataset>  (439) 
ChEMBL_Kinases

>  <Ligand_Instance>  (439) 
nan

>  <PDB_ID>  (439) 
nan

>  <Standardized_SMILES>  (439) 
CCCC(=O)Nc1n[nH]c2cc(Cl)ccc12

>  <Name>  (439) 
nan

>  <Pocket>  (439) 
nan

>  <ATP_Site>  (439) 
nan

>  <Peripheral>  (439) 
nan

>  <Num_H_Atoms_ProtBoundConf>  (439) 
nan

>  <Num_Resolved_Atoms>  (439) 
nan

>  <Num_Not_Resolved_Atoms>  (439) 
nan

$$$$
CHEMBL1082206
     RDKit          3D

  0  0  0  0  0  0  0  0  0  0999 V3000
M  V30 BEGIN CTAB
M  V30 COUNTS 49 53 0 0 0
M  V30 BEGIN ATOM
M  V30 1 C -0.751674 -5.367216 2.319001 0
M  V30 2 C -0.022802 -4.235677 1.718657 0
M  V30 3 N 1.298249 -4.080201 1.871743 0
M  V30 4 N 2.015432 -3.095529 1.364742 0
M  V30 5 C 1.408055 -2.129778 0.615164 0
M  V30 6 N 2.181798 -1.069441 0.092756 0
M  V30 7 C 2.036727 0.024698 -0.774736 0
M  V30 8 C 2.192504 1.335421 -0.317613 0
M  V30 9 C 2.080667 2.453061 -1.116828 0
M  V30 10 C 2.232161 3.808258 -0.612411 0
M  V30 11 O 2.130839 4.770632 -1.450338 0
M  V30 12 N 2.481151 4.108850 0.747220 0
M  V30 13 C 2.636339 5.450091 1.301920 0
M  V30 14 C 3.423407 5.574590 2.606828 0
M  V30 15 C 1.938338 5.634185 2.637950 0
M  V30 16 C 1.798188 2.198605 -2.438809 0
M  V30 17 C 1.623967 0.953763 -3.002602 0
M  V30 18 C 1.750377 -0.113541 -2.139619 0
M  V30 19 Cl 1.539560 -1.737782 -2.786412 0
M  V30 20 C 0.049173 -2.250940 0.432662 0
M  V30 21 C -0.869573 -1.492500 -0.227780 0
M  V30 22 N -2.076240 -2.072494 -0.074044 0
M  V30 23 N -1.974083 -3.171231 0.657471 0
M  V30 24 C -3.105727 -3.964151 0.966592 0
M  V30 25 C -3.888929 -3.331306 1.932655 0
M  V30 26 C -5.067779 -3.903878 2.411645 0
M  V30 27 C -5.426204 -5.132122 1.883654 0
M  V30 28 F -6.563834 -5.746707 2.303441 0
M  V30 29 C -4.665281 -5.771826 0.928706 0
M  V30 30 C -3.507611 -5.186514 0.472879 0
M  V30 31 F -2.669295 -5.685935 -0.454470 0
M  V30 32 C -0.674627 -3.290515 0.974116 0
M  V30 33 H -0.093689 -5.793852 3.123655 0
M  V30 34 H -1.707859 -5.027612 2.742430 0
M  V30 35 H -0.913293 -6.130766 1.531026 0
M  V30 36 H 3.190699 -0.999158 0.387954 0
M  V30 37 H 2.413919 1.433901 0.731730 0
M  V30 38 H 2.566225 3.328992 1.436452 0
M  V30 39 H 2.562431 6.324611 0.626460 0
M  V30 40 H 4.005042 6.491254 2.784754 0
M  V30 41 H 3.947893 4.626511 2.913204 0
M  V30 42 H 1.519095 6.644219 2.886662 0
M  V30 43 H 1.426611 4.770386 3.115899 0
M  V30 44 H 1.702841 3.050259 -3.104318 0
M  V30 45 H 1.401504 0.830292 -4.052918 0
M  V30 46 H -0.683968 -0.590809 -0.768327 0
M  V30 47 H -3.695322 -2.363541 2.410345 0
M  V30 48 H -5.705476 -3.455605 3.156313 0
M  V30 49 H -4.897029 -6.729401 0.480136 0
M  V30 END ATOM
M  V30 BEGIN BOND
M  V30 1 1 1 2
M  V30 2 2 2 3
M  V30 3 1 3 4
M  V30 4 2 4 5
M  V30 5 1 5 6
M  V30 6 1 6 7
M  V30 7 2 7 8
M  V30 8 1 8 9
M  V30 9 1 9 10
M  V30 10 2 10 11
M  V30 11 1 10 12
M  V30 12 1 12 13
M  V30 13 1 13 14
M  V30 14 1 14 15
M  V30 15 2 9 16
M  V30 16 1 16 17
M  V30 17 2 17 18
M  V30 18 1 18 19
M  V30 19 1 5 20
M  V30 20 1 20 21
M  V30 21 2 21 22
M  V30 22 1 22 23
M  V30 23 1 23 24
M  V30 24 2 24 25
M  V30 25 1 25 26
M  V30 26 2 26 27
M  V30 27 1 27 28
M  V30 28 1 27 29
M  V30 29 2 29 30
M  V30 30 1 30 31
M  V30 31 1 23 32
M  V30 32 1 32 2
M  V30 33 1 18 7
M  V30 34 2 32 20
M  V30 35 1 15 13
M  V30 36 1 30 24
M  V30 37 1 1 33
M  V30 38 1 1 34
M  V30 39 1 1 35
M  V30 40 1 6 36
M  V30 41 1 8 37
M  V30 42 1 12 38
M  V30 43 1 13 39
M  V30 44 1 14 40
M  V30 45 1 14 41
M  V30 46 1 15 42
M  V30 47 1 15 43
M  V30 48 1 16 44
M  V30 49 1 17 45
M  V30 50 1 21 46
M  V30 51 1 25 47
M  V30 52 1 26 48
M  V30 53 1 29 49
M  V30 END BOND
M  V30 END CTAB
M  END
>  <Dataset>  (440) 
ChEMBL_Kinases

>  <Ligand_Instance>  (440) 
nan

>  <PDB_ID>  (440) 
nan

>  <Standardized_SMILES>  (440) 
Cc1nnc(Nc2cc(C(=O)NC3CC3)ccc2Cl)c2cnn(-c3ccc(F)cc3F)c12

>  <Name>  (440) 
nan

>  <Pocket>  (440) 
nan

>  <ATP_Site>  (440) 
nan

>  <Peripheral>  (440) 
nan

>  <Num_H_Atoms_ProtBoundConf>  (440) 
nan

>  <Num_Resolved_Atoms>  (440) 
nan

>  <Num_Not_Resolved_Atoms>  (440) 
nan

$$$$
CHEMBL1082205
     RDKit          3D

  0  0  0  0  0  0  0  0  0  0999 V3000
M  V30 BEGIN CTAB
M  V30 COUNTS 52 56 0 0 0
M  V30 BEGIN ATOM
M  V30 1 C 1.032354 -0.491674 5.792474 0
M  V30 2 C 1.451249 -0.094173 4.428353 0
M  V30 3 C 2.789945 0.130471 4.108446 0
M  V30 4 F 3.654562 -0.044918 5.132527 0
M  V30 5 C 3.221317 0.507845 2.831786 0
M  V30 6 C 2.287103 0.669655 1.831279 0
M  V30 7 C 2.729249 1.045425 0.493088 0
M  V30 8 O 1.853945 1.293353 -0.376061 0
M  V30 9 N 4.099563 1.136972 0.146774 0
M  V30 10 C 4.562672 1.504416 -1.160059 0
M  V30 11 C 5.969754 1.950801 -1.406349 0
M  V30 12 C 5.616703 0.519445 -1.696160 0
M  V30 13 C 0.950501 0.459673 2.096407 0
M  V30 14 C 0.566684 0.088417 3.365517 0
M  V30 15 N -0.806807 -0.149118 3.614730 0
M  V30 16 C -1.790150 -0.009760 2.598750 0
M  V30 17 N -2.685982 0.958295 2.335649 0
M  V30 18 N -3.513839 0.891705 1.309486 0
M  V30 19 C -3.556693 -0.124668 0.429359 0
M  V30 20 C -4.486846 -0.198362 -0.722150 0
M  V30 21 C -2.635325 -1.149147 0.674978 0
M  V30 22 C -1.757437 -1.112435 1.737284 0
M  V30 23 C -1.035690 -2.301372 1.613589 0
M  V30 24 N -1.489250 -2.966927 0.536798 0
M  V30 25 N -2.466030 -2.268078 -0.040811 0
M  V30 26 C -3.062668 -2.828582 -1.202782 0
M  V30 27 C -4.256067 -3.517067 -1.180671 0
M  V30 28 C -4.744813 -4.032333 -2.388013 0
M  V30 29 C -4.026088 -3.837536 -3.551454 0
M  V30 30 F -4.596397 -4.379804 -4.646725 0
M  V30 31 C -2.831293 -3.140482 -3.533476 0
M  V30 32 C -2.337625 -2.629422 -2.361222 0
M  V30 33 F -1.162887 -1.971990 -2.494237 0
M  V30 34 H 0.929606 -1.602851 5.829458 0
M  V30 35 H 0.066297 -0.018424 6.074985 0
M  V30 36 H 1.862194 -0.233647 6.487127 0
M  V30 37 H 4.282847 0.645954 2.733715 0
M  V30 38 H 4.863215 0.939766 0.827823 0
M  V30 39 H 3.819682 1.827486 -1.922272 0
M  V30 40 H 6.229961 2.593397 -2.242408 0
M  V30 41 H 6.545582 2.162977 -0.459204 0
M  V30 42 H 6.058696 -0.213520 -1.014116 0
M  V30 43 H 5.521416 0.209613 -2.758872 0
M  V30 44 H 0.171707 0.575775 1.332194 0
M  V30 45 H -1.197992 -0.438090 4.531420 0
M  V30 46 H -5.327244 -0.896367 -0.541602 0
M  V30 47 H -4.946553 0.832115 -0.788132 0
M  V30 48 H -3.954411 -0.330563 -1.664277 0
M  V30 49 H -0.256683 -2.586551 2.296144 0
M  V30 50 H -4.780346 -3.642703 -0.243811 0
M  V30 51 H -5.686501 -4.565586 -2.309421 0
M  V30 52 H -2.380847 -3.063949 -4.502164 0
M  V30 END ATOM
M  V30 BEGIN BOND
M  V30 1 1 1 2
M  V30 2 2 2 3
M  V30 3 1 3 4
M  V30 4 1 3 5
M  V30 5 2 5 6
M  V30 6 1 6 7
M  V30 7 2 7 8
M  V30 8 1 7 9
M  V30 9 1 9 10
M  V30 10 1 10 11
M  V30 11 1 11 12
M  V30 12 1 6 13
M  V30 13 2 13 14
M  V30 14 1 14 15
M  V30 15 1 15 16
M  V30 16 2 16 17
M  V30 17 1 17 18
M  V30 18 2 18 19
M  V30 19 1 19 20
M  V30 20 1 19 21
M  V30 21 2 21 22
M  V30 22 1 22 23
M  V30 23 2 23 24
M  V30 24 1 24 25
M  V30 25 1 25 26
M  V30 26 2 26 27
M  V30 27 1 27 28
M  V30 28 2 28 29
M  V30 29 1 29 30
M  V30 30 1 29 31
M  V30 31 2 31 32
M  V30 32 1 32 33
M  V30 33 1 14 2
M  V30 34 1 22 16
M  V30 35 1 32 26
M  V30 36 1 12 10
M  V30 37 1 25 21
M  V30 38 1 1 34
M  V30 39 1 1 35
M  V30 40 1 1 36
M  V30 41 1 5 37
M  V30 42 1 9 38
M  V30 43 1 10 39
M  V30 44 1 11 40
M  V30 45 1 11 41
M  V30 46 1 12 42
M  V30 47 1 12 43
M  V30 48 1 13 44
M  V30 49 1 15 45
M  V30 50 1 20 46
M  V30 51 1 20 47
M  V30 52 1 20 48
M  V30 53 1 23 49
M  V30 54 1 27 50
M  V30 55 1 28 51
M  V30 56 1 31 52
M  V30 END BOND
M  V30 END CTAB
M  END
>  <Dataset>  (441) 
ChEMBL_Kinases

>  <Ligand_Instance>  (441) 
nan

>  <PDB_ID>  (441) 
nan

>  <Standardized_SMILES>  (441) 
Cc1c(F)cc(C(=O)NC2CC2)cc1Nc1nnc(C)c2c1cnn2-c1ccc(F)cc1F

>  <Name>  (441) 
nan

>  <Pocket>  (441) 
nan

>  <ATP_Site>  (441) 
nan

>  <Peripheral>  (441) 
nan

>  <Num_H_Atoms_ProtBoundConf>  (441) 
nan

>  <Num_Resolved_Atoms>  (441) 
nan

>  <Num_Not_Resolved_Atoms>  (441) 
nan

$$$$
CHEMBL1082183
     RDKit          3D

  0  0  0  0  0  0  0  0  0  0999 V3000
M  V30 BEGIN CTAB
M  V30 COUNTS 51 55 0 0 0
M  V30 BEGIN ATOM
M  V30 1 C -0.062079 1.994664 -0.962915 0
M  V30 2 C 1.077035 1.689417 -0.059597 0
M  V30 3 C 2.356249 1.852282 -0.532994 0
M  V30 4 C 3.377869 1.563444 0.346243 0
M  V30 5 C 3.125807 1.134086 1.631941 0
M  V30 6 C 4.200549 0.827571 2.564803 0
M  V30 7 O 3.938577 0.433411 3.743506 0
M  V30 8 N 5.569558 0.943134 2.235525 0
M  V30 9 C 6.638454 0.633624 3.176904 0
M  V30 10 C 7.822147 1.573934 3.117205 0
M  V30 11 C 7.918186 0.151195 2.603258 0
M  V30 12 C 1.807780 0.990448 2.046836 0
M  V30 13 C 0.720985 1.266627 1.204302 0
M  V30 14 O -0.495168 1.078388 1.764008 0
M  V30 15 C -1.531363 0.252362 1.502510 0
M  V30 16 N -2.550342 0.538600 2.370863 0
M  V30 17 N -3.690294 -0.140338 2.318901 0
M  V30 18 C -3.963276 -1.120047 1.469811 0
M  V30 19 C -5.234723 -1.874906 1.413823 0
M  V30 20 C -2.986749 -1.465819 0.565463 0
M  V30 21 C -1.805298 -0.764039 0.617425 0
M  V30 22 C -0.915854 -1.212677 -0.329466 0
M  V30 23 N -1.566203 -2.197999 -0.964547 0
M  V30 24 N -2.791274 -2.345669 -0.433219 0
M  V30 25 C -3.784155 -3.288530 -0.835397 0
M  V30 26 C -4.216004 -4.448326 -0.224175 0
M  V30 27 C -5.205903 -5.190420 -0.833926 0
M  V30 28 C -5.783209 -4.827873 -2.023980 0
M  V30 29 F -6.747104 -5.628342 -2.536036 0
M  V30 30 C -5.362290 -3.680350 -2.637629 0
M  V30 31 C -4.369693 -2.912751 -2.050897 0
M  V30 32 H 0.137621 1.540018 -1.949573 0
M  V30 33 H -1.043667 1.777100 -0.550286 0
M  V30 34 H 0.017619 3.105220 -1.151023 0
M  V30 35 H 2.513491 2.188371 -1.539957 0
M  V30 36 H 4.384132 1.691226 -0.025164 0
M  V30 37 H 5.867086 1.258661 1.293515 0
M  V30 38 H 6.362354 0.291792 4.199522 0
M  V30 39 H 7.838143 2.396293 2.380070 0
M  V30 40 H 8.374659 1.840705 4.043991 0
M  V30 41 H 8.583455 -0.496863 3.214746 0
M  V30 42 H 7.976018 -0.032867 1.508478 0
M  V30 43 H 1.659745 0.650339 3.065975 0
M  V30 44 H -5.638465 -1.997150 0.387902 0
M  V30 45 H -6.030112 -1.266980 1.938278 0
M  V30 46 H -5.173695 -2.833098 1.983536 0
M  V30 47 H 0.075303 -0.889663 -0.545603 0
M  V30 48 H -3.700244 -4.634229 0.694265 0
M  V30 49 H -5.483001 -6.086402 -0.282494 0
M  V30 50 H -5.841704 -3.428822 -3.573861 0
M  V30 51 H -4.123248 -2.025459 -2.636207 0
M  V30 END ATOM
M  V30 BEGIN BOND
M  V30 1 1 1 2
M  V30 2 2 2 3
M  V30 3 1 3 4
M  V30 4 2 4 5
M  V30 5 1 5 6
M  V30 6 2 6 7
M  V30 7 1 6 8
M  V30 8 1 8 9
M  V30 9 1 9 10
M  V30 10 1 10 11
M  V30 11 1 5 12
M  V30 12 2 12 13
M  V30 13 1 13 14
M  V30 14 1 14 15
M  V30 15 2 15 16
M  V30 16 1 16 17
M  V30 17 2 17 18
M  V30 18 1 18 19
M  V30 19 1 18 20
M  V30 20 2 20 21
M  V30 21 1 21 22
M  V30 22 2 22 23
M  V30 23 1 23 24
M  V30 24 1 24 25
M  V30 25 2 25 26
M  V30 26 1 26 27
M  V30 27 2 27 28
M  V30 28 1 28 29
M  V30 29 1 28 30
M  V30 30 2 30 31
M  V30 31 1 13 2
M  V30 32 1 21 15
M  V30 33 1 31 25
M  V30 34 1 11 9
M  V30 35 1 24 20
M  V30 36 1 1 32
M  V30 37 1 1 33
M  V30 38 1 1 34
M  V30 39 1 3 35
M  V30 40 1 4 36
M  V30 41 1 8 37
M  V30 42 1 9 38
M  V30 43 1 10 39
M  V30 44 1 10 40
M  V30 45 1 11 41
M  V30 46 1 11 42
M  V30 47 1 12 43
M  V30 48 1 19 44
M  V30 49 1 19 45
M  V30 50 1 19 46
M  V30 51 1 22 47
M  V30 52 1 26 48
M  V30 53 1 27 49
M  V30 54 1 30 50
M  V30 55 1 31 51
M  V30 END BOND
M  V30 END CTAB
M  END
>  <Dataset>  (442) 
ChEMBL_Kinases

>  <Ligand_Instance>  (442) 
nan

>  <PDB_ID>  (442) 
nan

>  <Standardized_SMILES>  (442) 
Cc1ccc(C(=O)NC2CC2)cc1Oc1nnc(C)c2c1cnn2-c1ccc(F)cc1

>  <Name>  (442) 
nan

>  <Pocket>  (442) 
nan

>  <ATP_Site>  (442) 
nan

>  <Peripheral>  (442) 
nan

>  <Num_H_Atoms_ProtBoundConf>  (442) 
nan

>  <Num_Resolved_Atoms>  (442) 
nan

>  <Num_Not_Resolved_Atoms>  (442) 
nan

$$$$
CHEMBL1082182
     RDKit          3D

  0  0  0  0  0  0  0  0  0  0999 V3000
M  V30 BEGIN CTAB
M  V30 COUNTS 52 56 0 0 0
M  V30 BEGIN ATOM
M  V30 1 C -0.205400 0.112281 -1.717504 0
M  V30 2 C 0.851000 0.725620 -0.877600 0
M  V30 3 C 2.181029 0.785969 -1.226768 0
M  V30 4 C 3.137753 1.373955 -0.425667 0
M  V30 5 C 2.730336 1.920877 0.772386 0
M  V30 6 C 3.722857 2.528933 1.636316 0
M  V30 7 O 3.477220 3.201577 2.692733 0
M  V30 8 N 5.115160 2.453427 1.415698 0
M  V30 9 C 6.123787 3.056244 2.266536 0
M  V30 10 C 7.466070 3.440023 1.735923 0
M  V30 11 C 7.318850 2.275144 2.673671 0
M  V30 12 C 1.392718 1.865905 1.135700 0
M  V30 13 C 0.442699 1.270394 0.319676 0
M  V30 14 N -0.891345 1.300442 0.875430 0
M  V30 15 C -1.313506 -0.072002 1.042324 0
M  V30 16 N -0.487785 -0.860333 1.785971 0
M  V30 17 N -0.753238 -2.146223 2.013896 0
M  V30 18 C -1.867843 -2.741362 1.513045 0
M  V30 19 C -2.128806 -4.155564 1.779341 0
M  V30 20 C -2.729617 -1.982253 0.756022 0
M  V30 21 C -2.449701 -0.652775 0.524416 0
M  V30 22 C -3.434445 -0.091247 -0.250005 0
M  V30 23 N -4.307530 -1.093226 -0.482087 0
M  V30 24 N -3.886424 -2.222512 0.117775 0
M  V30 25 C -4.582991 -3.468774 0.059366 0
M  V30 26 C -3.946052 -4.374204 -0.799435 0
M  V30 27 C -4.495248 -5.644188 -0.977650 0
M  V30 28 C -5.656298 -6.029007 -0.323920 0
M  V30 29 F -6.235694 -7.253900 -0.459245 0
M  V30 30 C -6.254479 -5.105620 0.515164 0
M  V30 31 C -5.741494 -3.830742 0.721099 0
M  V30 32 H -1.116270 0.702492 -1.785744 0
M  V30 33 H 0.183601 0.062127 -2.780913 0
M  V30 34 H -0.396804 -0.961835 -1.462533 0
M  V30 35 H 2.454650 0.346521 -2.171967 0
M  V30 36 H 4.148909 1.361288 -0.801589 0
M  V30 37 H 5.502353 1.940134 0.593958 0
M  V30 38 H 5.718971 3.695872 3.064517 0
M  V30 39 H 7.619218 3.294979 0.665155 0
M  V30 40 H 7.952741 4.380983 2.112429 0
M  V30 41 H 7.467547 1.232966 2.314448 0
M  V30 42 H 7.771169 2.453160 3.669279 0
M  V30 43 H 1.164195 2.319594 2.091714 0
M  V30 44 H -1.394767 2.184954 1.092537 0
M  V30 45 H -1.670752 -4.801809 1.006177 0
M  V30 46 H -1.606161 -4.405064 2.744928 0
M  V30 47 H -3.186445 -4.333471 1.965201 0
M  V30 48 H -3.474232 0.934015 -0.584746 0
M  V30 49 H -3.032660 -4.168354 -1.356440 0
M  V30 50 H -4.018168 -6.370792 -1.640642 0
M  V30 51 H -7.162249 -5.283447 1.080569 0
M  V30 52 H -6.152092 -3.067710 1.354740 0
M  V30 END ATOM
M  V30 BEGIN BOND
M  V30 1 1 1 2
M  V30 2 2 2 3
M  V30 3 1 3 4
M  V30 4 2 4 5
M  V30 5 1 5 6
M  V30 6 2 6 7
M  V30 7 1 6 8
M  V30 8 1 8 9
M  V30 9 1 9 10
M  V30 10 1 10 11
M  V30 11 1 5 12
M  V30 12 2 12 13
M  V30 13 1 13 14
M  V30 14 1 14 15
M  V30 15 2 15 16
M  V30 16 1 16 17
M  V30 17 2 17 18
M  V30 18 1 18 19
M  V30 19 1 18 20
M  V30 20 2 20 21
M  V30 21 1 21 22
M  V30 22 2 22 23
M  V30 23 1 23 24
M  V30 24 1 24 25
M  V30 25 2 25 26
M  V30 26 1 26 27
M  V30 27 2 27 28
M  V30 28 1 28 29
M  V30 29 1 28 30
M  V30 30 2 30 31
M  V30 31 1 13 2
M  V30 32 1 21 15
M  V30 33 1 31 25
M  V30 34 1 11 9
M  V30 35 1 24 20
M  V30 36 1 1 32
M  V30 37 1 1 33
M  V30 38 1 1 34
M  V30 39 1 3 35
M  V30 40 1 4 36
M  V30 41 1 8 37
M  V30 42 1 9 38
M  V30 43 1 10 39
M  V30 44 1 10 40
M  V30 45 1 11 41
M  V30 46 1 11 42
M  V30 47 1 12 43
M  V30 48 1 14 44
M  V30 49 1 19 45
M  V30 50 1 19 46
M  V30 51 1 19 47
M  V30 52 1 22 48
M  V30 53 1 26 49
M  V30 54 1 27 50
M  V30 55 1 30 51
M  V30 56 1 31 52
M  V30 END BOND
M  V30 END CTAB
M  END
>  <Dataset>  (443) 
ChEMBL_Kinases

>  <Ligand_Instance>  (443) 
nan

>  <PDB_ID>  (443) 
nan

>  <Standardized_SMILES>  (443) 
Cc1ccc(C(=O)NC2CC2)cc1Nc1nnc(C)c2c1cnn2-c1ccc(F)cc1

>  <Name>  (443) 
nan

>  <Pocket>  (443) 
nan

>  <ATP_Site>  (443) 
nan

>  <Peripheral>  (443) 
nan

>  <Num_H_Atoms_ProtBoundConf>  (443) 
nan

>  <Num_Resolved_Atoms>  (443) 
nan

>  <Num_Not_Resolved_Atoms>  (443) 
nan

$$$$
CHEMBL1082159
     RDKit          3D

  0  0  0  0  0  0  0  0  0  0999 V3000
M  V30 BEGIN CTAB
M  V30 COUNTS 48 52 0 0 0
M  V30 BEGIN ATOM
M  V30 1 C -1.316732 2.198998 2.680517 0
M  V30 2 C 0.154033 2.010735 2.580035 0
M  V30 3 C 0.971549 3.086613 2.885286 0
M  V30 4 C 2.344619 2.897692 2.791232 0
M  V30 5 C 2.877184 1.670335 2.403920 0
M  V30 6 C 4.322832 1.571088 2.335328 0
M  V30 7 O 5.008404 2.579802 2.624267 0
M  V30 8 N 5.039540 0.424406 1.967180 0
M  V30 9 C 6.483069 0.360204 1.909393 0
M  V30 10 C 7.055470 -0.946559 2.456843 0
M  V30 11 C 7.179689 -0.602888 1.034496 0
M  V30 12 C 2.051104 0.602649 2.101318 0
M  V30 13 C 0.677403 0.793549 2.195928 0
M  V30 14 O -0.113432 -0.302700 1.883866 0
M  V30 15 C -1.006935 -0.178998 0.829946 0
M  V30 16 N -1.238317 0.875582 0.025415 0
M  V30 17 N -2.134909 0.834690 -0.946346 0
M  V30 18 C -2.841723 -0.284785 -1.147205 0
M  V30 19 C -2.681776 -1.412091 -0.383981 0
M  V30 20 C -1.735612 -1.359794 0.636768 0
M  V30 21 C -1.811533 -2.631741 1.214002 0
M  V30 22 N -2.738848 -3.333079 0.551579 0
M  V30 23 N -3.286124 -2.613640 -0.428626 0
M  V30 24 C -4.303292 -3.040869 -1.333189 0
M  V30 25 C -5.543040 -2.422980 -1.380306 0
M  V30 26 F -5.808971 -1.381137 -0.547579 0
M  V30 27 C -6.502084 -2.876797 -2.280479 0
M  V30 28 C -6.176861 -3.940017 -3.103405 0
M  V30 29 C -4.939780 -4.577356 -3.075650 0
M  V30 30 C -4.000499 -4.107868 -2.170835 0
M  V30 31 F -2.798644 -4.753827 -2.168736 0
M  V30 32 H -1.512643 2.682854 3.683328 0
M  V30 33 H -1.868284 1.244520 2.722527 0
M  V30 34 H -1.674077 2.901297 1.901623 0
M  V30 35 H 0.538094 4.028276 3.183117 0
M  V30 36 H 2.946428 3.747633 3.033570 0
M  V30 37 H 4.510280 -0.442418 1.717248 0
M  V30 38 H 7.002806 1.296608 2.180800 0
M  V30 39 H 7.888290 -0.837879 3.185708 0
M  V30 40 H 6.357976 -1.755561 2.723609 0
M  V30 41 H 6.668038 -1.242277 0.302560 0
M  V30 42 H 8.192006 -0.297930 0.678845 0
M  V30 43 H 2.460296 -0.350563 1.800659 0
M  V30 44 H -3.557569 -0.300277 -1.932060 0
M  V30 45 H -1.189281 -2.912551 2.049225 0
M  V30 46 H -7.480469 -2.410662 -2.337605 0
M  V30 47 H -6.951577 -4.255979 -3.783661 0
M  V30 48 H -4.772072 -5.401518 -3.755747 0
M  V30 END ATOM
M  V30 BEGIN BOND
M  V30 1 1 1 2
M  V30 2 2 2 3
M  V30 3 1 3 4
M  V30 4 2 4 5
M  V30 5 1 5 6
M  V30 6 2 6 7
M  V30 7 1 6 8
M  V30 8 1 8 9
M  V30 9 1 9 10
M  V30 10 1 10 11
M  V30 11 1 5 12
M  V30 12 2 12 13
M  V30 13 1 13 14
M  V30 14 1 14 15
M  V30 15 2 15 16
M  V30 16 1 16 17
M  V30 17 2 17 18
M  V30 18 1 18 19
M  V30 19 2 19 20
M  V30 20 1 20 21
M  V30 21 2 21 22
M  V30 22 1 22 23
M  V30 23 1 23 24
M  V30 24 2 24 25
M  V30 25 1 25 26
M  V30 26 1 25 27
M  V30 27 2 27 28
M  V30 28 1 28 29
M  V30 29 2 29 30
M  V30 30 1 30 31
M  V30 31 1 13 2
M  V30 32 1 20 15
M  V30 33 1 30 24
M  V30 34 1 11 9
M  V30 35 1 23 19
M  V30 36 1 1 32
M  V30 37 1 1 33
M  V30 38 1 1 34
M  V30 39 1 3 35
M  V30 40 1 4 36
M  V30 41 1 8 37
M  V30 42 1 9 38
M  V30 43 1 10 39
M  V30 44 1 10 40
M  V30 45 1 11 41
M  V30 46 1 11 42
M  V30 47 1 12 43
M  V30 48 1 18 44
M  V30 49 1 21 45
M  V30 50 1 27 46
M  V30 51 1 28 47
M  V30 52 1 29 48
M  V30 END BOND
M  V30 END CTAB
M  END
>  <Dataset>  (444) 
ChEMBL_Kinases

>  <Ligand_Instance>  (444) 
nan

>  <PDB_ID>  (444) 
nan

>  <Standardized_SMILES>  (444) 
Cc1ccc(C(=O)NC2CC2)cc1Oc1nncc2c1cnn2-c1c(F)cccc1F

>  <Name>  (444) 
nan

>  <Pocket>  (444) 
nan

>  <ATP_Site>  (444) 
nan

>  <Peripheral>  (444) 
nan

>  <Num_H_Atoms_ProtBoundConf>  (444) 
nan

>  <Num_Resolved_Atoms>  (444) 
nan

>  <Num_Not_Resolved_Atoms>  (444) 
nan

$$$$
CHEMBL1082158
     RDKit          3D

  0  0  0  0  0  0  0  0  0  0999 V3000
M  V30 BEGIN CTAB
M  V30 COUNTS 46 50 0 0 0
M  V30 BEGIN ATOM
M  V30 1 O 4.974679 1.049401 -0.544634 0
M  V30 2 C 3.869128 0.960593 -0.003028 0
M  V30 3 N 3.629654 -0.128003 0.909435 0
M  V30 4 C 4.619822 -1.131967 1.229427 0
M  V30 5 C 4.797583 -1.651332 2.589598 0
M  V30 6 C 4.242572 -2.552841 1.478326 0
M  V30 7 C 2.815544 1.931250 -0.270192 0
M  V30 8 C 3.118457 2.985304 -1.114325 0
M  V30 9 C 2.165001 3.937566 -1.405715 0
M  V30 10 C 0.904219 3.846246 -0.858536 0
M  V30 11 Cl -0.316292 5.066726 -1.232097 0
M  V30 12 C 0.554875 2.797240 -0.000322 0
M  V30 13 N -0.749923 2.707329 0.555993 0
M  V30 14 C -1.042322 1.603341 1.402531 0
M  V30 15 N -0.835580 1.464028 2.717030 0
M  V30 16 N -1.179314 0.359079 3.348139 0
M  V30 17 C -1.760046 -0.700918 2.713624 0
M  V30 18 C -1.988230 -0.594931 1.362945 0
M  V30 19 C -1.632292 0.568367 0.670309 0
M  V30 20 C -2.012498 0.303958 -0.638928 0
M  V30 21 N -2.543870 -0.928630 -0.658507 0
M  V30 22 N -2.540729 -1.489989 0.531798 0
M  V30 23 C -3.058541 -2.791281 0.728601 0
M  V30 24 C -4.423080 -2.984136 0.617034 0
M  V30 25 F -5.230247 -1.924108 0.320822 0
M  V30 26 C -4.977568 -4.229213 0.799757 0
M  V30 27 C -4.161482 -5.294279 1.097029 0
M  V30 28 C -2.802843 -5.080353 1.203652 0
M  V30 29 C -2.191359 -3.846881 1.029641 0
M  V30 30 F -0.864722 -3.620187 1.130597 0
M  V30 31 C 1.557055 1.885306 0.244637 0
M  V30 32 H 2.725756 -0.270540 1.405906 0
M  V30 33 H 5.571373 -0.996843 0.672639 0
M  V30 34 H 4.085236 -1.505025 3.409322 0
M  V30 35 H 5.815174 -1.870421 2.972989 0
M  V30 36 H 4.919750 -3.376405 1.153789 0
M  V30 37 H 3.186072 -2.866908 1.516380 0
M  V30 38 H 4.063668 3.164563 -1.601307 0
M  V30 39 H 2.336106 4.788679 -2.058458 0
M  V30 40 H -1.430595 3.459125 0.314687 0
M  V30 41 H -2.026247 -1.585622 3.259926 0
M  V30 42 H -1.870309 1.012599 -1.421684 0
M  V30 43 H -6.041760 -4.424361 0.720670 0
M  V30 44 H -4.575495 -6.296655 1.247762 0
M  V30 45 H -2.099615 -5.872082 1.435858 0
M  V30 46 H 1.291530 1.076742 0.904781 0
M  V30 END ATOM
M  V30 BEGIN BOND
M  V30 1 2 1 2
M  V30 2 1 2 3
M  V30 3 1 3 4
M  V30 4 1 4 5
M  V30 5 1 5 6
M  V30 6 1 2 7
M  V30 7 2 7 8
M  V30 8 1 8 9
M  V30 9 2 9 10
M  V30 10 1 10 11
M  V30 11 1 10 12
M  V30 12 1 12 13
M  V30 13 1 13 14
M  V30 14 2 14 15
M  V30 15 1 15 16
M  V30 16 2 16 17
M  V30 17 1 17 18
M  V30 18 2 18 19
M  V30 19 1 19 20
M  V30 20 2 20 21
M  V30 21 1 21 22
M  V30 22 1 22 23
M  V30 23 2 23 24
M  V30 24 1 24 25
M  V30 25 1 24 26
M  V30 26 2 26 27
M  V30 27 1 27 28
M  V30 28 2 28 29
M  V30 29 1 29 30
M  V30 30 2 12 31
M  V30 31 1 6 4
M  V30 32 1 31 7
M  V30 33 1 19 14
M  V30 34 1 29 23
M  V30 35 1 22 18
M  V30 36 1 3 32
M  V30 37 1 4 33
M  V30 38 1 5 34
M  V30 39 1 5 35
M  V30 40 1 6 36
M  V30 41 1 6 37
M  V30 42 1 8 38
M  V30 43 1 9 39
M  V30 44 1 13 40
M  V30 45 1 17 41
M  V30 46 1 20 42
M  V30 47 1 26 43
M  V30 48 1 27 44
M  V30 49 1 28 45
M  V30 50 1 31 46
M  V30 END BOND
M  V30 END CTAB
M  END
>  <Dataset>  (445) 
ChEMBL_Kinases

>  <Ligand_Instance>  (445) 
nan

>  <PDB_ID>  (445) 
nan

>  <Standardized_SMILES>  (445) 
O=C(NC1CC1)c1ccc(Cl)c(Nc2nncc3c2cnn3-c2c(F)cccc2F)c1

>  <Name>  (445) 
nan

>  <Pocket>  (445) 
nan

>  <ATP_Site>  (445) 
nan

>  <Peripheral>  (445) 
nan

>  <Num_H_Atoms_ProtBoundConf>  (445) 
nan

>  <Num_Resolved_Atoms>  (445) 
nan

>  <Num_Not_Resolved_Atoms>  (445) 
nan

$$$$
CHEMBL1082153
     RDKit          3D

  0  0  0  0  0  0  0  0  0  0999 V3000
M  V30 BEGIN CTAB
M  V30 COUNTS 50 53 0 0 0
M  V30 BEGIN ATOM
M  V30 1 C -3.102502 -1.162013 -3.089421 0
M  V30 2 N -2.329380 -1.691219 -1.965410 0
M  V30 3 C -2.777019 -1.802082 -0.703169 0
M  V30 4 C -1.799217 -2.339279 0.115090 0
M  V30 5 C -1.864512 -2.644365 1.559479 0
M  V30 6 C -1.016273 -2.369248 2.568842 0
M  V30 7 C 0.270995 -1.646180 2.485591 0
M  V30 8 C 1.402476 -2.011626 3.160375 0
M  V30 9 C 2.571610 -1.294962 3.034342 0
M  V30 10 C 2.522483 -0.198698 2.193004 0
M  V30 11 C 1.410985 0.211061 1.494232 0
M  V30 12 N 1.368349 1.337172 0.659352 0
M  V30 13 C 2.231768 2.404623 0.251244 0
M  V30 14 C 2.505649 3.439063 1.284723 0
M  V30 15 O 3.118475 2.910633 2.385426 0
M  V30 16 C 1.235184 4.190020 1.657028 0
M  V30 17 O 0.679632 4.687317 0.493967 0
M  V30 18 C 0.253756 -0.544635 1.652059 0
M  V30 19 C -1.554094 -2.894675 3.801047 0
M  V30 20 O -0.996485 -2.804768 4.947705 0
M  V30 21 N -2.801491 -3.537144 3.587880 0
M  V30 22 C -2.995439 -3.378081 2.174433 0
M  V30 23 O -3.996910 -3.804581 1.528385 0
M  V30 24 C -0.725430 -2.546813 -0.747716 0
M  V30 25 C 0.538806 -3.061179 -0.569027 0
M  V30 26 C 1.484941 -3.198930 -1.564888 0
M  V30 27 Cl 3.085235 -3.863205 -1.258922 0
M  V30 28 C 1.143765 -2.789026 -2.858366 0
M  V30 29 C -0.138141 -2.267285 -3.049999 0
M  V30 30 C -1.054267 -2.145167 -2.033479 0
M  V30 31 H -4.130916 -1.571560 -3.023165 0
M  V30 32 H -2.611977 -1.359697 -4.049747 0
M  V30 33 H -3.184351 -0.059492 -2.905810 0
M  V30 34 H -3.767849 -1.517646 -0.343797 0
M  V30 35 H 1.320730 -2.875768 3.779878 0
M  V30 36 H 3.472897 -1.590704 3.575040 0
M  V30 37 H 3.453719 0.312218 2.116486 0
M  V30 38 H 0.446493 1.506544 0.151607 0
M  V30 39 H 1.934692 2.870459 -0.730822 0
M  V30 40 H 3.226955 1.904021 0.025739 0
M  V30 41 H 3.173010 4.210541 0.801536 0
M  V30 42 H 2.698981 3.114380 3.243967 0
M  V30 43 H 0.498607 3.567183 2.177826 0
M  V30 44 H 1.561443 5.042878 2.310049 0
M  V30 45 H -0.156381 5.156734 0.744712 0
M  V30 46 H -0.669710 -0.272790 1.122654 0
M  V30 47 H -3.414739 -4.003446 4.287895 0
M  V30 48 H 0.875179 -3.405891 0.374974 0
M  V30 49 H 1.882072 -2.892235 -3.642816 0
M  V30 50 H -0.380284 -1.961894 -4.040745 0
M  V30 END ATOM
M  V30 BEGIN BOND
M  V30 1 1 1 2
M  V30 2 1 2 3
M  V30 3 2 3 4
M  V30 4 1 4 5
M  V30 5 2 5 6
M  V30 6 1 6 7
M  V30 7 2 7 8
M  V30 8 1 8 9
M  V30 9 2 9 10
M  V30 10 1 10 11
M  V30 11 1 11 12
M  V30 12 1 12 13
M  V30 13 1 13 14
M  V30 14 1 14 15
M  V30 15 1 14 16
M  V30 16 1 16 17
M  V30 17 2 11 18
M  V30 18 1 6 19
M  V30 19 2 19 20
M  V30 20 1 19 21
M  V30 21 1 21 22
M  V30 22 2 22 23
M  V30 23 1 4 24
M  V30 24 2 24 25
M  V30 25 1 25 26
M  V30 26 1 26 27
M  V30 27 2 26 28
M  V30 28 1 28 29
M  V30 29 2 29 30
M  V30 30 1 30 2
M  V30 31 1 22 5
M  V30 32 1 30 24
M  V30 33 1 18 7
M  V30 34 1 1 31
M  V30 35 1 1 32
M  V30 36 1 1 33
M  V30 37 1 3 34
M  V30 38 1 8 35
M  V30 39 1 9 36
M  V30 40 1 10 37
M  V30 41 1 12 38
M  V30 42 1 13 39
M  V30 43 1 13 40
M  V30 44 1 14 41
M  V30 45 1 15 42
M  V30 46 1 16 43
M  V30 47 1 16 44
M  V30 48 1 17 45
M  V30 49 1 18 46
M  V30 50 1 21 47
M  V30 51 1 25 48
M  V30 52 1 28 49
M  V30 53 1 29 50
M  V30 END BOND
M  V30 END CTAB
M  END
>  <Dataset>  (446) 
ChEMBL_Kinases

>  <Ligand_Instance>  (446) 
nan

>  <PDB_ID>  (446) 
nan

>  <Standardized_SMILES>  (446) 
Cn1cc(C2=C(c3cccc(NCC(O)CO)c3)C(=O)NC2=O)c2cc(Cl)ccc21

>  <Name>  (446) 
nan

>  <Pocket>  (446) 
nan

>  <ATP_Site>  (446) 
nan

>  <Peripheral>  (446) 
nan

>  <Num_H_Atoms_ProtBoundConf>  (446) 
nan

>  <Num_Resolved_Atoms>  (446) 
nan

>  <Num_Not_Resolved_Atoms>  (446) 
nan

$$$$
CHEMBL1082152
     RDKit          3D

  0  0  0  0  0  0  0  0  0  0999 V3000
M  V30 BEGIN CTAB
M  V30 COUNTS 50 53 0 0 0
M  V30 BEGIN ATOM
M  V30 1 C -2.880968 -2.112642 -3.532241 0
M  V30 2 N -2.067334 -2.370279 -2.334776 0
M  V30 3 C -2.578700 -2.346027 -1.093964 0
M  V30 4 C -1.613509 -2.623923 -0.156241 0
M  V30 5 C -1.718289 -2.735225 1.294361 0
M  V30 6 C -1.048057 -2.293738 2.341639 0
M  V30 7 C 0.141559 -1.456399 2.377635 0
M  V30 8 C 1.239800 -1.755619 3.201004 0
M  V30 9 C 2.313114 -0.922191 3.211100 0
M  V30 10 C 2.424839 0.227491 2.464884 0
M  V30 11 C 1.352801 0.553684 1.640046 0
M  V30 12 N 1.289260 1.706606 0.842747 0
M  V30 13 C 2.168362 2.829270 0.690265 0
M  V30 14 C 2.140476 3.815420 1.805553 0
M  V30 15 O 2.481446 3.283983 3.012905 0
M  V30 16 C 0.828672 4.584315 1.847455 0
M  V30 17 O 0.544112 5.095563 0.594806 0
M  V30 18 C 0.281791 -0.305781 1.646805 0
M  V30 19 C -1.646674 -2.754710 3.583042 0
M  V30 20 O -1.243717 -2.507437 4.772055 0
M  V30 21 N -2.792636 -3.552008 3.222755 0
M  V30 22 C -2.837410 -3.539367 1.777827 0
M  V30 23 O -3.809487 -4.212827 1.343259 0
M  V30 24 C -0.450536 -2.826567 -0.892560 0
M  V30 25 C 0.855896 -3.143658 -0.572279 0
M  V30 26 C 1.896926 -3.314040 -1.489100 0
M  V30 27 F 3.154263 -3.625974 -1.115487 0
M  V30 28 C 1.468791 -3.126431 -2.809992 0
M  V30 29 C 0.212555 -2.813507 -3.232629 0
M  V30 30 C -0.752240 -2.665078 -2.243801 0
M  V30 31 H -3.860823 -2.665045 -3.457649 0
M  V30 32 H -2.310904 -2.355813 -4.426439 0
M  V30 33 H -3.158065 -1.030327 -3.447792 0
M  V30 34 H -3.596818 -2.147880 -0.729139 0
M  V30 35 H 1.188513 -2.648589 3.803366 0
M  V30 36 H 3.160726 -1.183755 3.866031 0
M  V30 37 H 3.306920 0.838225 2.501749 0
M  V30 38 H 0.448198 1.820278 0.214493 0
M  V30 39 H 2.036953 3.358369 -0.290126 0
M  V30 40 H 3.212447 2.393791 0.673199 0
M  V30 41 H 2.914816 4.598757 1.539071 0
M  V30 42 H 1.784286 3.209618 3.688491 0
M  V30 43 H -0.017854 4.002219 2.208864 0
M  V30 44 H 1.013732 5.460284 2.535504 0
M  V30 45 H 0.017427 5.934487 0.646684 0
M  V30 46 H -0.600108 -0.104914 1.011026 0
M  V30 47 H -3.373337 -3.984707 4.004003 0
M  V30 48 H 1.164779 -3.290487 0.454863 0
M  V30 49 H 2.255487 -3.251517 -3.570035 0
M  V30 50 H -0.039960 -2.687335 -4.253973 0
M  V30 END ATOM
M  V30 BEGIN BOND
M  V30 1 1 1 2
M  V30 2 1 2 3
M  V30 3 2 3 4
M  V30 4 1 4 5
M  V30 5 2 5 6
M  V30 6 1 6 7
M  V30 7 2 7 8
M  V30 8 1 8 9
M  V30 9 2 9 10
M  V30 10 1 10 11
M  V30 11 1 11 12
M  V30 12 1 12 13
M  V30 13 1 13 14
M  V30 14 1 14 15
M  V30 15 1 14 16
M  V30 16 1 16 17
M  V30 17 2 11 18
M  V30 18 1 6 19
M  V30 19 2 19 20
M  V30 20 1 19 21
M  V30 21 1 21 22
M  V30 22 2 22 23
M  V30 23 1 4 24
M  V30 24 2 24 25
M  V30 25 1 25 26
M  V30 26 1 26 27
M  V30 27 2 26 28
M  V30 28 1 28 29
M  V30 29 2 29 30
M  V30 30 1 30 2
M  V30 31 1 22 5
M  V30 32 1 30 24
M  V30 33 1 18 7
M  V30 34 1 1 31
M  V30 35 1 1 32
M  V30 36 1 1 33
M  V30 37 1 3 34
M  V30 38 1 8 35
M  V30 39 1 9 36
M  V30 40 1 10 37
M  V30 41 1 12 38
M  V30 42 1 13 39
M  V30 43 1 13 40
M  V30 44 1 14 41
M  V30 45 1 15 42
M  V30 46 1 16 43
M  V30 47 1 16 44
M  V30 48 1 17 45
M  V30 49 1 18 46
M  V30 50 1 21 47
M  V30 51 1 25 48
M  V30 52 1 28 49
M  V30 53 1 29 50
M  V30 END BOND
M  V30 END CTAB
M  END
>  <Dataset>  (447) 
ChEMBL_Kinases

>  <Ligand_Instance>  (447) 
nan

>  <PDB_ID>  (447) 
nan

>  <Standardized_SMILES>  (447) 
Cn1cc(C2=C(c3cccc(NCC(O)CO)c3)C(=O)NC2=O)c2cc(F)ccc21

>  <Name>  (447) 
nan

>  <Pocket>  (447) 
nan

>  <ATP_Site>  (447) 
nan

>  <Peripheral>  (447) 
nan

>  <Num_H_Atoms_ProtBoundConf>  (447) 
nan

>  <Num_Resolved_Atoms>  (447) 
nan

>  <Num_Not_Resolved_Atoms>  (447) 
nan

$$$$
CHEMBL1082151
     RDKit          3D

  0  0  0  0  0  0  0  0  0  0999 V3000
M  V30 BEGIN CTAB
M  V30 COUNTS 49 52 0 0 0
M  V30 BEGIN ATOM
M  V30 1 C 0.419952 -2.998021 3.398125 0
M  V30 2 N -0.432446 -2.829914 2.224402 0
M  V30 3 C -1.241414 -1.784324 1.942337 0
M  V30 4 C -1.904071 -1.985420 0.733976 0
M  V30 5 C -2.851407 -1.132405 0.029200 0
M  V30 6 C -2.756292 0.180156 -0.191219 0
M  V30 7 C -1.745493 1.186316 0.163118 0
M  V30 8 C -2.057981 2.479743 0.525488 0
M  V30 9 C -1.119263 3.433214 0.855877 0
M  V30 10 C 0.224710 3.076655 0.824735 0
M  V30 11 C 0.602668 1.780451 0.465062 0
M  V30 12 N 1.976409 1.414157 0.432003 0
M  V30 13 C 2.996873 2.382635 0.776500 0
M  V30 14 C 4.387717 1.749063 0.689993 0
M  V30 15 C 4.439089 0.585507 1.676291 0
M  V30 16 O 5.699461 0.007757 1.599056 0
M  V30 17 C -0.387613 0.868542 0.143736 0
M  V30 18 C -3.939891 0.652324 -0.937906 0
M  V30 19 O -4.231171 1.821537 -1.341496 0
M  V30 20 N -4.794001 -0.459637 -1.174248 0
M  V30 21 C -4.111933 -1.559229 -0.571597 0
M  V30 22 O -4.652673 -2.709343 -0.625599 0
M  V30 23 C -1.438837 -3.215558 0.311868 0
M  V30 24 C -1.647684 -4.021237 -0.770802 0
M  V30 25 C -1.063006 -5.242242 -1.008824 0
M  V30 26 C -0.164605 -5.720824 -0.062504 0
M  V30 27 C 0.102152 -4.956478 1.069924 0
M  V30 28 C -0.540619 -3.728696 1.224746 0
M  V30 29 H -0.147124 -2.798276 4.336637 0
M  V30 30 H 0.744372 -4.057968 3.469136 0
M  V30 31 H 1.343773 -2.393378 3.328924 0
M  V30 32 H -1.384941 -0.895278 2.541029 0
M  V30 33 H -3.124601 2.686939 0.529412 0
M  V30 34 H -1.463631 4.431514 1.129168 0
M  V30 35 H 0.978438 3.807339 1.076136 0
M  V30 36 H 2.213691 0.440197 0.155002 0
M  V30 37 H 3.028476 3.236681 0.037003 0
M  V30 38 H 2.841696 2.850300 1.778549 0
M  V30 39 H 5.158792 2.482376 0.990394 0
M  V30 40 H 4.497907 1.391854 -0.353010 0
M  V30 41 H 4.301198 1.019400 2.689468 0
M  V30 42 H 3.693497 -0.166786 1.402345 0
M  V30 43 H 6.373980 0.721798 1.420046 0
M  V30 44 H -0.056856 -0.112722 -0.126546 0
M  V30 45 H -5.704722 -0.435254 -1.676792 0
M  V30 46 H -2.324762 -3.711327 -1.550785 0
M  V30 47 H -1.257196 -5.851214 -1.889648 0
M  V30 48 H 0.304605 -6.681576 -0.239768 0
M  V30 49 H 0.807681 -5.346800 1.796659 0
M  V30 END ATOM
M  V30 BEGIN BOND
M  V30 1 1 1 2
M  V30 2 1 2 3
M  V30 3 2 3 4
M  V30 4 1 4 5
M  V30 5 2 5 6
M  V30 6 1 6 7
M  V30 7 2 7 8
M  V30 8 1 8 9
M  V30 9 2 9 10
M  V30 10 1 10 11
M  V30 11 1 11 12
M  V30 12 1 12 13
M  V30 13 1 13 14
M  V30 14 1 14 15
M  V30 15 1 15 16
M  V30 16 2 11 17
M  V30 17 1 6 18
M  V30 18 2 18 19
M  V30 19 1 18 20
M  V30 20 1 20 21
M  V30 21 2 21 22
M  V30 22 1 4 23
M  V30 23 2 23 24
M  V30 24 1 24 25
M  V30 25 2 25 26
M  V30 26 1 26 27
M  V30 27 2 27 28
M  V30 28 1 28 2
M  V30 29 1 21 5
M  V30 30 1 28 23
M  V30 31 1 17 7
M  V30 32 1 1 29
M  V30 33 1 1 30
M  V30 34 1 1 31
M  V30 35 1 3 32
M  V30 36 1 8 33
M  V30 37 1 9 34
M  V30 38 1 10 35
M  V30 39 1 12 36
M  V30 40 1 13 37
M  V30 41 1 13 38
M  V30 42 1 14 39
M  V30 43 1 14 40
M  V30 44 1 15 41
M  V30 45 1 15 42
M  V30 46 1 16 43
M  V30 47 1 17 44
M  V30 48 1 20 45
M  V30 49 1 24 46
M  V30 50 1 25 47
M  V30 51 1 26 48
M  V30 52 1 27 49
M  V30 END BOND
M  V30 END CTAB
M  END
>  <Dataset>  (448) 
ChEMBL_Kinases

>  <Ligand_Instance>  (448) 
nan

>  <PDB_ID>  (448) 
nan

>  <Standardized_SMILES>  (448) 
Cn1cc(C2=C(c3cccc(NCCCO)c3)C(=O)NC2=O)c2ccccc21

>  <Name>  (448) 
nan

>  <Pocket>  (448) 
nan

>  <ATP_Site>  (448) 
nan

>  <Peripheral>  (448) 
nan

>  <Num_H_Atoms_ProtBoundConf>  (448) 
nan

>  <Num_Resolved_Atoms>  (448) 
nan

>  <Num_Not_Resolved_Atoms>  (448) 
nan

$$$$
CHEMBL1082016
     RDKit          3D

  0  0  0  0  0  0  0  0  0  0999 V3000
M  V30 BEGIN CTAB
M  V30 COUNTS 51 54 0 0 0
M  V30 BEGIN ATOM
M  V30 1 C -0.937064 -0.743693 6.832344 0
M  V30 2 N 0.465442 -1.139440 6.675704 0
M  V30 3 C 1.220857 -1.792721 7.574767 0
M  V30 4 O 0.791604 -2.150168 8.701461 0
M  V30 5 N 2.423310 -1.951538 7.026741 0
M  V30 6 C 2.471376 -1.414131 5.782634 0
M  V30 7 C 3.417829 -1.282492 4.768727 0
M  V30 8 C 3.065796 -0.637449 3.579175 0
M  V30 9 C 1.811214 -0.118719 3.357539 0
M  V30 10 C 1.362526 0.544860 2.165018 0
M  V30 11 C 0.194867 1.135862 1.853832 0
M  V30 12 N 0.150878 1.657860 0.646180 0
M  V30 13 C 0.896326 1.712689 -0.190261 0
M  V30 14 N 0.762218 2.314602 -1.482804 0
M  V30 15 C 0.108787 1.564062 -2.564114 0
M  V30 16 C -1.293945 1.335163 -2.105593 0 CFG=1
M  V30 17 N -1.929582 2.619832 -1.889756 0
M  V30 18 C -2.148149 0.551282 -3.072180 0
M  V30 19 C -1.589200 -0.806222 -3.323264 0
M  V30 20 C -2.076770 -1.793148 -2.462108 0
M  V30 21 C -1.642012 -3.096802 -2.570826 0
M  V30 22 C -0.713571 -3.378957 -3.558717 0
M  V30 23 C -0.263230 -4.792042 -3.647292 0
M  V30 24 F 0.846538 -5.013653 -2.842815 0
M  V30 25 F -1.298919 -5.621231 -3.236272 0
M  V30 26 F 0.078156 -5.165118 -4.926129 0
M  V30 27 C -0.242724 -2.403138 -4.398123 0
M  V30 28 C -0.665975 -1.088010 -4.305604 0
M  V30 29 S 2.339297 0.781012 0.675955 0
M  V30 30 C 0.886539 -0.256335 4.368952 0
M  V30 31 C 1.210662 -0.891554 5.557699 0
M  V30 32 H -1.382377 -0.494271 5.841367 0
M  V30 33 H -1.472667 -1.620573 7.253273 0
M  V30 34 H -1.006054 0.068467 7.576162 0
M  V30 35 H 3.250918 -2.428460 7.473227 0
M  V30 36 H 4.395359 -1.683878 4.936261 0
M  V30 37 H 3.798677 -0.527802 2.778448 0
M  V30 38 H -0.615467 1.145071 2.602063 0
M  V30 39 H 1.174252 3.269366 -1.485907 0
M  V30 40 H 0.626946 0.585177 -2.614469 0
M  V30 41 H 0.181671 2.116202 -3.517108 0
M  V30 42 H -1.216067 0.786316 -1.128225 0
M  V30 43 H -2.284968 3.046457 -2.754607 0
M  V30 44 H -2.700835 2.510772 -1.181996 0
M  V30 45 H -3.163424 0.488066 -2.633233 0
M  V30 46 H -2.235773 1.124600 -4.023361 0
M  V30 47 H -2.816186 -1.569820 -1.675495 0
M  V30 48 H -2.043287 -3.830630 -1.886084 0
M  V30 49 H 0.482452 -2.635733 -5.162906 0
M  V30 50 H -0.329311 -0.273446 -4.939852 0
M  V30 51 H -0.099237 0.116751 4.276231 0
M  V30 END ATOM
M  V30 BEGIN BOND
M  V30 1 1 1 2
M  V30 2 1 2 3
M  V30 3 2 3 4
M  V30 4 1 3 5
M  V30 5 1 5 6
M  V30 6 2 6 7
M  V30 7 1 7 8
M  V30 8 2 8 9
M  V30 9 1 9 10
M  V30 10 2 10 11
M  V30 11 1 11 12
M  V30 12 2 12 13
M  V30 13 1 13 14
M  V30 14 1 14 15
M  V30 15 1 15 16
M  V30 16 1 16 17
M  V30 17 1 16 18
M  V30 18 1 18 19
M  V30 19 2 19 20
M  V30 20 1 20 21
M  V30 21 2 21 22
M  V30 22 1 22 23
M  V30 23 1 23 24
M  V30 24 1 23 25
M  V30 25 1 23 26
M  V30 26 1 22 27
M  V30 27 2 27 28
M  V30 28 1 13 29
M  V30 29 1 9 30
M  V30 30 2 30 31
M  V30 31 1 31 2
M  V30 32 1 31 6
M  V30 33 1 29 10
M  V30 34 1 28 19
M  V30 35 1 1 32
M  V30 36 1 1 33
M  V30 37 1 1 34
M  V30 38 1 5 35
M  V30 39 1 7 36
M  V30 40 1 8 37
M  V30 41 1 11 38
M  V30 42 1 14 39
M  V30 43 1 15 40
M  V30 44 1 15 41
M  V30 45 1 16 42 CFG=1
M  V30 46 1 17 43
M  V30 47 1 17 44
M  V30 48 1 18 45
M  V30 49 1 18 46
M  V30 50 1 20 47
M  V30 51 1 21 48
M  V30 52 1 27 49
M  V30 53 1 28 50
M  V30 54 1 30 51
M  V30 END BOND
M  V30 END CTAB
M  END
>  <Dataset>  (449) 
ChEMBL_Kinases

>  <Ligand_Instance>  (449) 
nan

>  <PDB_ID>  (449) 
nan

>  <Standardized_SMILES>  (449) 
Cn1c(=O)[nH]c2ccc(-c3cnc(NC[C@@H](N)Cc4ccc(C(F)(F)F)cc4)s3)cc21

>  <Name>  (449) 
nan

>  <Pocket>  (449) 
nan

>  <ATP_Site>  (449) 
nan

>  <Peripheral>  (449) 
nan

>  <Num_H_Atoms_ProtBoundConf>  (449) 
nan

>  <Num_Resolved_Atoms>  (449) 
nan

>  <Num_Not_Resolved_Atoms>  (449) 
nan

$$$$
CHEMBL1081991
     RDKit          3D

  0  0  0  0  0  0  0  0  0  0999 V3000
M  V30 BEGIN CTAB
M  V30 COUNTS 49 53 0 0 0
M  V30 BEGIN ATOM
M  V30 1 C -0.739157 0.834426 -1.085808 0
M  V30 2 C 0.588051 1.026820 -0.479297 0
M  V30 3 C 1.752293 1.295671 -1.144055 0
M  V30 4 C 2.955246 1.469482 -0.488546 0
M  V30 5 C 2.967954 1.365263 0.886989 0
M  V30 6 C 4.214613 1.528232 1.620788 0
M  V30 7 O 4.217104 1.544330 2.900752 0
M  V30 8 N 5.466369 1.673592 0.978386 0
M  V30 9 C 6.677828 1.832854 1.760666 0
M  V30 10 C 7.752278 0.817920 1.365358 0
M  V30 11 C 7.949962 2.277358 1.132475 0
M  V30 12 C 1.778338 1.089167 1.575564 0
M  V30 13 C 0.563491 0.914646 0.891459 0
M  V30 14 N -0.490635 0.629793 1.822990 0
M  V30 15 C -1.164727 -0.617361 1.679941 0
M  V30 16 N -0.433561 -1.722951 1.966769 0
M  V30 17 N -0.946593 -2.934871 1.879004 0
M  V30 18 C -2.203522 -3.221583 1.511304 0
M  V30 19 C -2.970522 -2.115351 1.214215 0
M  V30 20 C -2.480329 -0.829826 1.290639 0
M  V30 21 C -3.440021 0.063059 0.952027 0
M  V30 22 N -4.533925 -0.678486 0.662353 0
M  V30 23 N -4.252781 -1.972599 0.818482 0
M  V30 24 C -5.112140 -3.105825 0.619472 0
M  V30 25 C -6.202079 -3.533215 1.345100 0
M  V30 26 F -6.481058 -2.744587 2.392023 0
M  V30 27 C -6.868363 -4.674026 0.942542 0
M  V30 28 C -6.466363 -5.377973 -0.154429 0
M  V30 29 C -5.393860 -4.980413 -0.890489 0
M  V30 30 C -4.717457 -3.844512 -0.503294 0
M  V30 31 F -3.651086 -3.526667 -1.309466 0
M  V30 32 H -0.983642 -0.231360 -1.107555 0
M  V30 33 H -0.627014 1.128039 -2.170306 0
M  V30 34 H -1.503376 1.470878 -0.632930 0
M  V30 35 H 1.597994 1.352227 -2.230911 0
M  V30 36 H 3.817618 1.677005 -1.080067 0
M  V30 37 H 5.558399 1.670087 -0.041753 0
M  V30 38 H 6.557008 1.882520 2.863941 0
M  V30 39 H 8.389069 0.369474 2.158292 0
M  V30 40 H 7.560714 0.114752 0.538864 0
M  V30 41 H 7.863728 2.601759 0.058802 0
M  V30 42 H 8.688694 2.850573 1.713226 0
M  V30 43 H 1.900987 1.029594 2.655217 0
M  V30 44 H -0.746200 1.310075 2.566107 0
M  V30 45 H -2.631031 -4.209492 1.434206 0
M  V30 46 H -3.308915 1.152301 0.932528 0
M  V30 47 H -7.707347 -4.931133 1.569491 0
M  V30 48 H -7.063428 -6.258443 -0.378336 0
M  V30 49 H -5.105705 -5.568673 -1.757132 0
M  V30 END ATOM
M  V30 BEGIN BOND
M  V30 1 1 1 2
M  V30 2 2 2 3
M  V30 3 1 3 4
M  V30 4 2 4 5
M  V30 5 1 5 6
M  V30 6 2 6 7
M  V30 7 1 6 8
M  V30 8 1 8 9
M  V30 9 1 9 10
M  V30 10 1 10 11
M  V30 11 1 5 12
M  V30 12 2 12 13
M  V30 13 1 13 14
M  V30 14 1 14 15
M  V30 15 2 15 16
M  V30 16 1 16 17
M  V30 17 2 17 18
M  V30 18 1 18 19
M  V30 19 2 19 20
M  V30 20 1 20 21
M  V30 21 2 21 22
M  V30 22 1 22 23
M  V30 23 1 23 24
M  V30 24 2 24 25
M  V30 25 1 25 26
M  V30 26 1 25 27
M  V30 27 2 27 28
M  V30 28 1 28 29
M  V30 29 2 29 30
M  V30 30 1 30 31
M  V30 31 1 13 2
M  V30 32 1 20 15
M  V30 33 1 30 24
M  V30 34 1 11 9
M  V30 35 1 23 19
M  V30 36 1 1 32
M  V30 37 1 1 33
M  V30 38 1 1 34
M  V30 39 1 3 35
M  V30 40 1 4 36
M  V30 41 1 8 37
M  V30 42 1 9 38
M  V30 43 1 10 39
M  V30 44 1 10 40
M  V30 45 1 11 41
M  V30 46 1 11 42
M  V30 47 1 12 43
M  V30 48 1 14 44
M  V30 49 1 18 45
M  V30 50 1 21 46
M  V30 51 1 27 47
M  V30 52 1 28 48
M  V30 53 1 29 49
M  V30 END BOND
M  V30 END CTAB
M  END
>  <Dataset>  (450) 
ChEMBL_Kinases

>  <Ligand_Instance>  (450) 
nan

>  <PDB_ID>  (450) 
nan

>  <Standardized_SMILES>  (450) 
Cc1ccc(C(=O)NC2CC2)cc1Nc1nncc2c1cnn2-c1c(F)cccc1F

>  <Name>  (450) 
nan

>  <Pocket>  (450) 
nan

>  <ATP_Site>  (450) 
nan

>  <Peripheral>  (450) 
nan

>  <Num_H_Atoms_ProtBoundConf>  (450) 
nan

>  <Num_Resolved_Atoms>  (450) 
nan

>  <Num_Not_Resolved_Atoms>  (450) 
nan

$$$$
CHEMBL1081990
     RDKit          3D

  0  0  0  0  0  0  0  0  0  0999 V3000
M  V30 BEGIN CTAB
M  V30 COUNTS 46 50 0 0 0
M  V30 BEGIN ATOM
M  V30 1 O 3.040121 2.130394 4.273634 0
M  V30 2 C 2.550476 1.665910 3.226178 0
M  V30 3 N 2.637049 0.271310 3.042547 0
M  V30 4 C 3.214986 -0.762138 3.878091 0
M  V30 5 C 2.875647 -2.197991 3.642992 0
M  V30 6 C 4.163450 -1.659972 3.118965 0
M  V30 7 C 1.924431 2.551036 2.249383 0
M  V30 8 C 1.956350 3.910440 2.430072 0
M  V30 9 C 1.383051 4.802489 1.522020 0
M  V30 10 C 0.762922 4.287980 0.405372 0
M  V30 11 Cl 0.030578 5.415543 -0.748863 0
M  V30 12 C 0.704843 2.918962 0.180445 0
M  V30 13 N 0.036442 2.398095 -0.995196 0
M  V30 14 C 0.013259 0.952967 -1.037648 0
M  V30 15 N 1.155765 0.268158 -1.351737 0
M  V30 16 N 1.185822 -1.056611 -1.401217 0
M  V30 17 C 0.069007 -1.748732 -1.137639 0
M  V30 18 C -1.148534 -1.147550 -0.808886 0
M  V30 19 C -1.133884 0.237003 -0.767993 0
M  V30 20 C -2.405418 0.611428 -0.440100 0
M  V30 21 N -3.126830 -0.514065 -0.299023 0
M  V30 22 N -2.402045 -1.587691 -0.513769 0
M  V30 23 C -2.695697 -2.979761 -0.502943 0
M  V30 24 C -3.207041 -3.798336 0.474461 0
M  V30 25 C -3.410207 -5.141900 0.270618 0
M  V30 26 F -3.928740 -5.850846 1.308838 0
M  V30 27 C -3.108916 -5.729031 -0.926780 0
M  V30 28 C -2.593086 -4.957203 -1.947160 0
M  V30 29 C -2.396338 -3.607887 -1.725183 0
M  V30 30 F -1.897608 -2.970088 -2.818994 0
M  V30 31 C 1.289664 2.072358 1.111495 0
M  V30 32 H 2.224944 -0.123454 2.164436 0
M  V30 33 H 3.617567 -0.473822 4.885036 0
M  V30 34 H 2.976047 -2.923014 4.460450 0
M  V30 35 H 2.066813 -2.459273 2.917244 0
M  V30 36 H 4.204866 -1.561152 2.000557 0
M  V30 37 H 5.127201 -1.968973 3.561549 0
M  V30 38 H 2.437510 4.359171 3.300545 0
M  V30 39 H 1.436481 5.886274 1.713151 0
M  V30 40 H -0.345873 3.090769 -1.670192 0
M  V30 41 H 0.166789 -2.823765 -1.180198 0
M  V30 42 H -2.732946 1.628593 -0.322925 0
M  V30 43 H -3.421318 -3.231324 1.394070 0
M  V30 44 H -3.270529 -6.791680 -1.088576 0
M  V30 45 H -2.369279 -5.462607 -2.875123 0
M  V30 46 H 1.230505 1.023514 0.915896 0
M  V30 END ATOM
M  V30 BEGIN BOND
M  V30 1 2 1 2
M  V30 2 1 2 3
M  V30 3 1 3 4
M  V30 4 1 4 5
M  V30 5 1 5 6
M  V30 6 1 2 7
M  V30 7 2 7 8
M  V30 8 1 8 9
M  V30 9 2 9 10
M  V30 10 1 10 11
M  V30 11 1 10 12
M  V30 12 1 12 13
M  V30 13 1 13 14
M  V30 14 2 14 15
M  V30 15 1 15 16
M  V30 16 2 16 17
M  V30 17 1 17 18
M  V30 18 2 18 19
M  V30 19 1 19 20
M  V30 20 2 20 21
M  V30 21 1 21 22
M  V30 22 1 22 23
M  V30 23 2 23 24
M  V30 24 1 24 25
M  V30 25 1 25 26
M  V30 26 2 25 27
M  V30 27 1 27 28
M  V30 28 2 28 29
M  V30 29 1 29 30
M  V30 30 2 12 31
M  V30 31 1 6 4
M  V30 32 1 31 7
M  V30 33 1 19 14
M  V30 34 1 29 23
M  V30 35 1 22 18
M  V30 36 1 3 32
M  V30 37 1 4 33
M  V30 38 1 5 34
M  V30 39 1 5 35
M  V30 40 1 6 36
M  V30 41 1 6 37
M  V30 42 1 8 38
M  V30 43 1 9 39
M  V30 44 1 13 40
M  V30 45 1 17 41
M  V30 46 1 20 42
M  V30 47 1 24 43
M  V30 48 1 27 44
M  V30 49 1 28 45
M  V30 50 1 31 46
M  V30 END BOND
M  V30 END CTAB
M  END
>  <Dataset>  (451) 
ChEMBL_Kinases

>  <Ligand_Instance>  (451) 
nan

>  <PDB_ID>  (451) 
nan

>  <Standardized_SMILES>  (451) 
O=C(NC1CC1)c1ccc(Cl)c(Nc2nncc3c2cnn3-c2cc(F)ccc2F)c1

>  <Name>  (451) 
nan

>  <Pocket>  (451) 
nan

>  <ATP_Site>  (451) 
nan

>  <Peripheral>  (451) 
nan

>  <Num_H_Atoms_ProtBoundConf>  (451) 
nan

>  <Num_Resolved_Atoms>  (451) 
nan

>  <Num_Not_Resolved_Atoms>  (451) 
nan

$$$$
CHEMBL1081973
     RDKit          3D

  0  0  0  0  0  0  0  0  0  0999 V3000
M  V30 BEGIN CTAB
M  V30 COUNTS 48 51 0 0 0
M  V30 BEGIN ATOM
M  V30 1 C -0.772593 -1.943104 4.209103 0
M  V30 2 N -1.081812 -2.021388 2.796595 0
M  V30 3 C -1.259032 -1.033590 1.904717 0
M  V30 4 C -1.541553 -1.497655 0.638749 0
M  V30 5 C -1.774317 -0.822510 -0.625527 0
M  V30 6 C -1.185768 0.092312 -1.372543 0
M  V30 7 C 0.037632 0.835625 -1.181533 0
M  V30 8 C 0.904969 0.909821 -2.278841 0
M  V30 9 C 2.091984 1.604349 -2.216061 0
M  V30 10 C 2.466866 2.254756 -1.058451 0
M  V30 11 C 1.652719 2.220119 0.062619 0
M  V30 12 C 1.982387 2.893363 1.323507 0
M  V30 13 C 2.779513 2.091088 2.294284 0
M  V30 14 O 4.007919 1.710635 1.766804 0
M  V30 15 C 2.031981 0.911146 2.876360 0
M  V30 16 O 1.816936 -0.046818 1.880089 0
M  V30 17 C 0.480684 1.509309 -0.066558 0
M  V30 18 C -2.000331 0.348030 -2.573583 0
M  V30 19 O -1.765011 1.158820 -3.527986 0
M  V30 20 N -3.158981 -0.481243 -2.526094 0
M  V30 21 C -3.026112 -1.213766 -1.314795 0
M  V30 22 O -3.977469 -2.034559 -1.066354 0
M  V30 23 C -1.521852 -2.887971 0.833660 0
M  V30 24 C -1.740479 -3.882144 -0.112214 0
M  V30 25 C -1.659358 -5.200766 0.352659 0
M  V30 26 F -1.857873 -6.250850 -0.502648 0
M  V30 27 C -1.381777 -5.555443 1.663238 0
M  V30 28 C -1.178002 -4.505447 2.534932 0
M  V30 29 C -1.242403 -3.185172 2.145654 0
M  V30 30 H -1.170943 -2.837545 4.754798 0
M  V30 31 H -1.258304 -1.063718 4.674869 0
M  V30 32 H 0.318239 -1.845526 4.391349 0
M  V30 33 H -1.180800 -0.026825 2.221671 0
M  V30 34 H 0.673025 0.429736 -3.198684 0
M  V30 35 H 2.743386 1.648795 -3.072219 0
M  V30 36 H 3.391465 2.805833 -0.984527 0
M  V30 37 H 1.036287 3.217515 1.848351 0
M  V30 38 H 2.532505 3.850575 1.168210 0
M  V30 39 H 3.006578 2.755934 3.155609 0
M  V30 40 H 4.431695 2.537970 1.391550 0
M  V30 41 H 1.095490 1.256669 3.331854 0
M  V30 42 H 2.629338 0.417712 3.665064 0
M  V30 43 H 2.675808 -0.180563 1.393234 0
M  V30 44 H -0.163645 1.481487 0.774962 0
M  V30 45 H -3.905634 -0.483494 -3.278173 0
M  V30 46 H -1.953640 -3.794697 -1.161047 0
M  V30 47 H -1.331453 -6.592562 1.966111 0
M  V30 48 H -0.954238 -4.721455 3.591961 0
M  V30 END ATOM
M  V30 BEGIN BOND
M  V30 1 1 1 2
M  V30 2 1 2 3
M  V30 3 2 3 4
M  V30 4 1 4 5
M  V30 5 2 5 6
M  V30 6 1 6 7
M  V30 7 2 7 8
M  V30 8 1 8 9
M  V30 9 2 9 10
M  V30 10 1 10 11
M  V30 11 1 11 12
M  V30 12 1 12 13
M  V30 13 1 13 14
M  V30 14 1 13 15
M  V30 15 1 15 16
M  V30 16 2 11 17
M  V30 17 1 6 18
M  V30 18 2 18 19
M  V30 19 1 18 20
M  V30 20 1 20 21
M  V30 21 2 21 22
M  V30 22 1 4 23
M  V30 23 2 23 24
M  V30 24 1 24 25
M  V30 25 1 25 26
M  V30 26 2 25 27
M  V30 27 1 27 28
M  V30 28 2 28 29
M  V30 29 1 29 2
M  V30 30 1 21 5
M  V30 31 1 29 23
M  V30 32 1 17 7
M  V30 33 1 1 30
M  V30 34 1 1 31
M  V30 35 1 1 32
M  V30 36 1 3 33
M  V30 37 1 8 34
M  V30 38 1 9 35
M  V30 39 1 10 36
M  V30 40 1 12 37
M  V30 41 1 12 38
M  V30 42 1 13 39
M  V30 43 1 14 40
M  V30 44 1 15 41
M  V30 45 1 15 42
M  V30 46 1 16 43
M  V30 47 1 17 44
M  V30 48 1 20 45
M  V30 49 1 24 46
M  V30 50 1 27 47
M  V30 51 1 28 48
M  V30 END BOND
M  V30 END CTAB
M  END
>  <Dataset>  (452) 
ChEMBL_Kinases

>  <Ligand_Instance>  (452) 
nan

>  <PDB_ID>  (452) 
nan

>  <Standardized_SMILES>  (452) 
Cn1cc(C2=C(c3cccc(CC(O)CO)c3)C(=O)NC2=O)c2cc(F)ccc21

>  <Name>  (452) 
nan

>  <Pocket>  (452) 
nan

>  <ATP_Site>  (452) 
nan

>  <Peripheral>  (452) 
nan

>  <Num_H_Atoms_ProtBoundConf>  (452) 
nan

>  <Num_Resolved_Atoms>  (452) 
nan

>  <Num_Not_Resolved_Atoms>  (452) 
nan

$$$$
CHEMBL1091930
     RDKit          3D

  0  0  0  0  0  0  0  0  0  0999 V3000
M  V30 BEGIN CTAB
M  V30 COUNTS 45 48 0 0 0
M  V30 BEGIN ATOM
M  V30 1 C 3.039075 -1.274034 -1.323806 0
M  V30 2 C 2.622393 0.126806 -1.636462 0
M  V30 3 C 3.130085 0.742266 -2.759275 0
M  V30 4 C 2.796950 2.043887 -3.123655 0
M  V30 5 C 1.917850 2.628551 -2.244316 0
M  V30 6 C 1.506331 3.994820 -2.534555 0
M  V30 7 N 1.787547 4.935808 -3.555625 0
M  V30 8 O 0.828211 4.990348 -2.195901 0
M  V30 9 C 1.360643 2.100170 -1.107045 0
M  V30 10 C 1.742819 0.788626 -0.806862 0
M  V30 11 C 1.199587 0.151253 0.376065 0
M  V30 12 C 1.732506 0.160342 1.658929 0
M  V30 13 C 1.081275 -0.503483 2.680913 0
M  V30 14 C 1.400602 -0.640776 4.016158 0
M  V30 15 N 0.404023 -1.392663 4.535377 0
M  V30 16 N -0.484499 -1.707028 3.584071 0
M  V30 17 C -1.642893 -2.501384 3.870508 0
M  V30 18 C -1.729679 -3.830354 3.458109 0
M  V30 19 F -0.675475 -4.358117 2.767363 0
M  V30 20 C -2.842631 -4.593713 3.735682 0
M  V30 21 C -3.907047 -4.057088 4.434429 0
M  V30 22 C -3.842791 -2.741582 4.853301 0
M  V30 23 C -2.726628 -1.970848 4.576647 0
M  V30 24 F -2.682393 -0.670966 5.000225 0
M  V30 25 C -0.103810 -1.172719 2.404373 0
M  V30 26 N -0.652844 -1.207016 1.181441 0
M  V30 27 C -1.882058 -1.910102 0.928983 0
M  V30 28 C 0.011330 -0.545479 0.200004 0
M  V30 29 O -0.539557 -0.604081 -0.930098 0
M  V30 30 H 4.138589 -1.410976 -1.394382 0
M  V30 31 H 2.762202 -1.567284 -0.295130 0
M  V30 32 H 2.601947 -1.949922 -2.107560 0
M  V30 33 H 3.831498 0.207086 -3.415924 0
M  V30 34 H 3.166211 2.568519 -3.991424 0
M  V30 35 H 2.433171 4.833657 -4.390244 0
M  V30 36 H 2.448155 4.710400 -4.329224 0
M  V30 37 H 0.673993 2.640393 -0.475667 0
M  V30 38 H 2.653449 0.707771 1.766451 0
M  V30 39 H 2.270736 -0.225314 4.518806 0
M  V30 40 H -2.862070 -5.633225 3.388526 0
M  V30 41 H -4.769398 -4.712572 4.626765 0
M  V30 42 H -4.702264 -2.362438 5.398733 0
M  V30 43 H -2.632594 -1.712912 1.699620 0
M  V30 44 H -1.730378 -2.988304 0.694003 0
M  V30 45 H -2.303337 -1.459325 -0.018181 0
M  V30 END ATOM
M  V30 BEGIN BOND
M  V30 1 1 1 2
M  V30 2 2 2 3
M  V30 3 1 3 4
M  V30 4 2 4 5
M  V30 5 1 5 6
M  V30 6 1 6 7
M  V30 7 2 6 8
M  V30 8 1 5 9
M  V30 9 2 9 10
M  V30 10 1 10 11
M  V30 11 2 11 12
M  V30 12 1 12 13
M  V30 13 1 13 14
M  V30 14 2 14 15
M  V30 15 1 15 16
M  V30 16 1 16 17
M  V30 17 2 17 18
M  V30 18 1 18 19
M  V30 19 1 18 20
M  V30 20 2 20 21
M  V30 21 1 21 22
M  V30 22 2 22 23
M  V30 23 1 23 24
M  V30 24 1 16 25
M  V30 25 1 25 26
M  V30 26 1 26 27
M  V30 27 1 26 28
M  V30 28 2 28 29
M  V30 29 1 10 2
M  V30 30 1 28 11
M  V30 31 2 25 13
M  V30 32 1 23 17
M  V30 33 1 1 30
M  V30 34 1 1 31
M  V30 35 1 1 32
M  V30 36 1 3 33
M  V30 37 1 4 34
M  V30 38 1 7 35
M  V30 39 1 7 36
M  V30 40 1 9 37
M  V30 41 1 12 38
M  V30 42 1 14 39
M  V30 43 1 20 40
M  V30 44 1 21 41
M  V30 45 1 22 42
M  V30 46 1 27 43
M  V30 47 1 27 44
M  V30 48 1 27 45
M  V30 END BOND
M  V30 END CTAB
M  END
>  <Dataset>  (453) 
ChEMBL_Kinases

>  <Ligand_Instance>  (453) 
nan

>  <PDB_ID>  (453) 
nan

>  <Standardized_SMILES>  (453) 
Cc1ccc(C(N)=O)cc1-c1cc2cnn(-c3c(F)cccc3F)c2n(C)c1=O

>  <Name>  (453) 
nan

>  <Pocket>  (453) 
nan

>  <ATP_Site>  (453) 
nan

>  <Peripheral>  (453) 
nan

>  <Num_H_Atoms_ProtBoundConf>  (453) 
nan

>  <Num_Resolved_Atoms>  (453) 
nan

>  <Num_Not_Resolved_Atoms>  (453) 
nan

$$$$
CHEMBL1081208
     RDKit          3D

  0  0  0  0  0  0  0  0  0  0999 V3000
M  V30 BEGIN CTAB
M  V30 COUNTS 49 53 0 0 0
M  V30 BEGIN ATOM
M  V30 1 C -0.753212 -3.650970 3.293604 0
M  V30 2 C -0.087536 -3.033603 2.126439 0
M  V30 3 N 1.199294 -2.658493 2.045028 0
M  V30 4 N 1.741472 -2.112697 0.973735 0
M  V30 5 C 1.069317 -1.868332 -0.161043 0
M  V30 6 N 1.562636 -1.311979 -1.365422 0
M  V30 7 C 1.982625 -0.032600 -1.785925 0
M  V30 8 C 2.035884 1.069235 -0.974312 0
M  V30 9 C 2.441279 2.299175 -1.438244 0
M  V30 10 C 2.550785 3.511050 -0.640038 0
M  V30 11 O 2.854745 4.630119 -1.131246 0
M  V30 12 N 2.326105 3.521013 0.753381 0
M  V30 13 C 2.414812 4.669252 1.654848 0
M  V30 14 C 3.017688 4.325937 3.058760 0
M  V30 15 C 1.563862 4.610049 2.921997 0
M  V30 16 C 2.806430 2.421363 -2.777262 0
M  V30 17 C 2.748955 1.309415 -3.582187 0
M  V30 18 C 2.343140 0.085381 -3.109377 0
M  V30 19 Cl 2.293990 -1.289618 -4.193305 0
M  V30 20 C -0.270731 -2.236225 -0.135381 0
M  V30 21 C -1.293690 -2.161236 -1.079236 0
M  V30 22 N -2.390860 -2.678632 -0.490421 0
M  V30 23 N -2.107166 -3.061616 0.739708 0
M  V30 24 C -3.191878 -3.627923 1.451781 0
M  V30 25 C -4.065395 -3.087659 2.359073 0
M  V30 26 F -3.806240 -1.792260 2.614650 0
M  V30 27 C -5.081018 -3.825919 2.921071 0
M  V30 28 C -5.272763 -5.165902 2.593005 0
M  V30 29 C -4.408333 -5.727885 1.685550 0
M  V30 30 C -3.375417 -4.977836 1.114422 0
M  V30 31 F -2.615510 -5.700074 0.230172 0
M  V30 32 C -0.818822 -2.806113 0.994500 0
M  V30 33 H -1.543898 -3.042187 3.736679 0
M  V30 34 H -1.109212 -4.659995 3.007457 0
M  V30 35 H -0.011683 -3.844080 4.109528 0
M  V30 36 H 1.580957 -2.132170 -2.016910 0
M  V30 37 H 1.756512 0.985140 0.067132 0
M  V30 38 H 2.067966 2.627296 1.221006 0
M  V30 39 H 2.693682 5.641813 1.256450 0
M  V30 40 H 3.720637 5.049877 3.492198 0
M  V30 41 H 3.344964 3.253631 3.183611 0
M  V30 42 H 0.893400 3.726093 3.032028 0
M  V30 43 H 1.198505 5.551379 3.354611 0
M  V30 44 H 3.135145 3.324085 -3.243579 0
M  V30 45 H 3.032715 1.372495 -4.642195 0
M  V30 46 H -1.202998 -1.759345 -2.090681 0
M  V30 47 H -5.726783 -3.326454 3.627771 0
M  V30 48 H -6.069175 -5.751274 3.033597 0
M  V30 49 H -4.582279 -6.768173 1.448572 0
M  V30 END ATOM
M  V30 BEGIN BOND
M  V30 1 1 1 2
M  V30 2 2 2 3
M  V30 3 1 3 4
M  V30 4 2 4 5
M  V30 5 1 5 6
M  V30 6 1 6 7
M  V30 7 2 7 8
M  V30 8 1 8 9
M  V30 9 1 9 10
M  V30 10 2 10 11
M  V30 11 1 10 12
M  V30 12 1 12 13
M  V30 13 1 13 14
M  V30 14 1 14 15
M  V30 15 2 9 16
M  V30 16 1 16 17
M  V30 17 2 17 18
M  V30 18 1 18 19
M  V30 19 1 5 20
M  V30 20 1 20 21
M  V30 21 2 21 22
M  V30 22 1 22 23
M  V30 23 1 23 24
M  V30 24 2 24 25
M  V30 25 1 25 26
M  V30 26 1 25 27
M  V30 27 2 27 28
M  V30 28 1 28 29
M  V30 29 2 29 30
M  V30 30 1 30 31
M  V30 31 1 23 32
M  V30 32 1 32 2
M  V30 33 1 18 7
M  V30 34 2 32 20
M  V30 35 1 15 13
M  V30 36 1 30 24
M  V30 37 1 1 33
M  V30 38 1 1 34
M  V30 39 1 1 35
M  V30 40 1 6 36
M  V30 41 1 8 37
M  V30 42 1 12 38
M  V30 43 1 13 39
M  V30 44 1 14 40
M  V30 45 1 14 41
M  V30 46 1 15 42
M  V30 47 1 15 43
M  V30 48 1 16 44
M  V30 49 1 17 45
M  V30 50 1 21 46
M  V30 51 1 27 47
M  V30 52 1 28 48
M  V30 53 1 29 49
M  V30 END BOND
M  V30 END CTAB
M  END
>  <Dataset>  (454) 
ChEMBL_Kinases

>  <Ligand_Instance>  (454) 
nan

>  <PDB_ID>  (454) 
nan

>  <Standardized_SMILES>  (454) 
Cc1nnc(Nc2cc(C(=O)NC3CC3)ccc2Cl)c2cnn(-c3c(F)cccc3F)c12

>  <Name>  (454) 
nan

>  <Pocket>  (454) 
nan

>  <ATP_Site>  (454) 
nan

>  <Peripheral>  (454) 
nan

>  <Num_H_Atoms_ProtBoundConf>  (454) 
nan

>  <Num_Resolved_Atoms>  (454) 
nan

>  <Num_Not_Resolved_Atoms>  (454) 
nan

$$$$
CHEMBL1081260
     RDKit          3D

  0  0  0  0  0  0  0  0  0  0999 V3000
M  V30 BEGIN CTAB
M  V30 COUNTS 38 41 0 0 0
M  V30 BEGIN ATOM
M  V30 1 C -0.523919 -4.469973 1.996234 0
M  V30 2 N -0.341056 -3.013467 1.956438 0
M  V30 3 C 0.831097 -2.350472 2.065589 0
M  V30 4 C 0.631762 -0.988509 1.985126 0
M  V30 5 C 1.762716 -0.074546 2.082764 0
M  V30 6 C 1.946390 1.011089 1.350917 0
M  V30 7 O 1.351652 1.740162 0.333430 0
M  V30 8 C 0.969436 1.274244 -0.887602 0
M  V30 9 C 1.059963 0.013762 -1.429196 0
M  V30 10 C 0.599781 -0.232015 -2.707978 0
M  V30 11 C 0.038522 0.750565 -3.490758 0
M  V30 12 C -0.061047 2.026215 -2.961833 0
M  V30 13 C 0.401998 2.271520 -1.676035 0
M  V30 14 C 3.215871 1.635257 1.783238 0
M  V30 15 O 3.905495 2.662193 1.469001 0
M  V30 16 N 3.791092 0.839635 2.839822 0
M  V30 17 C 2.887427 -0.231470 3.032256 0
M  V30 18 O 2.967634 -1.183893 3.850749 0
M  V30 19 C -0.730171 -0.859502 1.820865 0
M  V30 20 C -1.430531 0.320435 1.692768 0
M  V30 21 C -2.807841 0.210343 1.538675 0
M  V30 22 C -3.407528 -1.027531 1.519941 0
M  V30 23 C -2.696323 -2.202640 1.649608 0
M  V30 24 C -1.311339 -2.108323 1.805103 0
M  V30 25 H -0.388894 -4.861670 3.038272 0
M  V30 26 H -1.522802 -4.704292 1.604234 0
M  V30 27 H 0.226186 -4.931928 1.320080 0
M  V30 28 H 1.772976 -2.900362 2.198773 0
M  V30 29 H 1.510824 -0.709530 -0.762113 0
M  V30 30 H 0.698901 -1.236701 -3.073857 0
M  V30 31 H -0.319968 0.551652 -4.492735 0
M  V30 32 H -0.504095 2.780736 -3.593057 0
M  V30 33 H 0.264687 3.313698 -1.381889 0
M  V30 34 H 4.650302 0.908903 3.414462 0
M  V30 35 H -0.948288 1.285451 1.712371 0
M  V30 36 H -3.439520 1.071164 1.431047 0
M  V30 37 H -4.470237 -1.197100 1.404351 0
M  V30 38 H -3.106432 -3.204232 1.643116 0
M  V30 END ATOM
M  V30 BEGIN BOND
M  V30 1 1 1 2
M  V30 2 1 2 3
M  V30 3 2 3 4
M  V30 4 1 4 5
M  V30 5 2 5 6
M  V30 6 1 6 7
M  V30 7 1 7 8
M  V30 8 2 8 9
M  V30 9 1 9 10
M  V30 10 2 10 11
M  V30 11 1 11 12
M  V30 12 2 12 13
M  V30 13 1 6 14
M  V30 14 2 14 15
M  V30 15 1 14 16
M  V30 16 1 16 17
M  V30 17 2 17 18
M  V30 18 1 4 19
M  V30 19 2 19 20
M  V30 20 1 20 21
M  V30 21 2 21 22
M  V30 22 1 22 23
M  V30 23 2 23 24
M  V30 24 1 24 2
M  V30 25 1 17 5
M  V30 26 1 24 19
M  V30 27 1 13 8
M  V30 28 1 1 25
M  V30 29 1 1 26
M  V30 30 1 1 27
M  V30 31 1 3 28
M  V30 32 1 9 29
M  V30 33 1 10 30
M  V30 34 1 11 31
M  V30 35 1 12 32
M  V30 36 1 13 33
M  V30 37 1 16 34
M  V30 38 1 20 35
M  V30 39 1 21 36
M  V30 40 1 22 37
M  V30 41 1 23 38
M  V30 END BOND
M  V30 END CTAB
M  END
>  <Dataset>  (455) 
ChEMBL_Kinases

>  <Ligand_Instance>  (455) 
nan

>  <PDB_ID>  (455) 
nan

>  <Standardized_SMILES>  (455) 
Cn1cc(C2=C(Oc3ccccc3)C(=O)NC2=O)c2ccccc21

>  <Name>  (455) 
nan

>  <Pocket>  (455) 
nan

>  <ATP_Site>  (455) 
nan

>  <Peripheral>  (455) 
nan

>  <Num_H_Atoms_ProtBoundConf>  (455) 
nan

>  <Num_Resolved_Atoms>  (455) 
nan

>  <Num_Not_Resolved_Atoms>  (455) 
nan

$$$$
CHEMBL1081261
     RDKit          3D

  0  0  0  0  0  0  0  0  0  0999 V3000
M  V30 BEGIN CTAB
M  V30 COUNTS 54 57 0 0 0
M  V30 BEGIN ATOM
M  V30 1 C -1.704534 -3.173044 -3.284318 0
M  V30 2 N -1.146830 -3.460748 -1.973972 0
M  V30 3 C -0.179193 -2.689597 -1.474242 0
M  V30 4 C 0.253446 -3.075390 -0.224465 0
M  V30 5 C 1.239202 -2.527482 0.686620 0
M  V30 6 C 1.313284 -1.279679 1.054336 0
M  V30 7 N 0.552962 -0.122100 0.747114 0
M  V30 8 C 0.721092 1.202757 1.201604 0
M  V30 9 O -0.141322 2.013513 0.781253 0
M  V30 10 O 1.598108 1.868197 2.002304 0
M  V30 11 C 1.562642 3.223377 2.314673 0
M  V30 12 C 2.754029 3.485375 3.234615 0
M  V30 13 C 1.711036 4.139763 1.122787 0
M  V30 14 C 0.336362 3.623020 3.106969 0
M  V30 15 C -0.582245 0.203184 -0.025223 0
M  V30 16 C -1.814358 -0.017554 0.608710 0
M  V30 17 C -3.075639 0.235055 0.053933 0
M  V30 18 C -3.097230 0.743265 -1.221636 0
M  V30 19 C -1.923460 0.980341 -1.892669 0
M  V30 20 C -0.707773 0.722397 -1.321049 0
M  V30 21 C 2.431617 -1.095572 1.970523 0
M  V30 22 O 3.015018 -0.200529 2.647599 0
M  V30 23 N 3.015893 -2.383088 2.103778 0
M  V30 24 C 2.289530 -3.310894 1.307170 0
M  V30 25 O 2.503782 -4.553054 1.162510 0
M  V30 26 C -0.543250 -4.197396 0.046284 0
M  V30 27 C -0.662227 -5.087705 1.108504 0
M  V30 28 C -1.581614 -6.129174 1.072997 0
M  V30 29 C -2.387862 -6.282753 -0.030790 0
M  V30 30 C -2.300752 -5.421535 -1.103881 0
M  V30 31 C -1.388855 -4.403997 -1.046428 0
M  V30 32 H -0.924933 -3.390282 -4.049592 0
M  V30 33 H -2.622038 -3.763078 -3.430680 0
M  V30 34 H -2.004054 -2.107110 -3.394033 0
M  V30 35 H 0.306638 -1.832399 -1.915467 0
M  V30 36 H 3.572667 2.755225 2.974639 0
M  V30 37 H 2.425797 3.218187 4.257523 0
M  V30 38 H 3.116544 4.530427 3.145261 0
M  V30 39 H 0.742237 4.430192 0.666442 0
M  V30 40 H 2.427259 3.719525 0.414214 0
M  V30 41 H 2.162910 5.087996 1.520880 0
M  V30 42 H 0.598915 4.334114 3.911803 0
M  V30 43 H -0.142947 2.744246 3.578513 0
M  V30 44 H -0.404183 4.140421 2.459562 0
M  V30 45 H -1.853241 -0.422251 1.625519 0
M  V30 46 H -3.971363 0.036023 0.609187 0
M  V30 47 H -4.066893 0.936662 -1.646548 0
M  V30 48 H -1.917834 1.374806 -2.884203 0
M  V30 49 H 0.274859 0.875996 -1.764520 0
M  V30 50 H 3.843048 -2.748001 2.657521 0
M  V30 51 H -0.050403 -4.978977 1.969427 0
M  V30 52 H -1.655919 -6.819539 1.925548 0
M  V30 53 H -3.086858 -7.113882 -0.004179 0
M  V30 54 H -2.940112 -5.560708 -1.953731 0
M  V30 END ATOM
M  V30 BEGIN BOND
M  V30 1 1 1 2
M  V30 2 1 2 3
M  V30 3 2 3 4
M  V30 4 1 4 5
M  V30 5 2 5 6
M  V30 6 1 6 7
M  V30 7 1 7 8
M  V30 8 2 8 9
M  V30 9 1 8 10
M  V30 10 1 10 11
M  V30 11 1 11 12
M  V30 12 1 11 13
M  V30 13 1 11 14
M  V30 14 1 7 15
M  V30 15 2 15 16
M  V30 16 1 16 17
M  V30 17 2 17 18
M  V30 18 1 18 19
M  V30 19 2 19 20
M  V30 20 1 6 21
M  V30 21 2 21 22
M  V30 22 1 21 23
M  V30 23 1 23 24
M  V30 24 2 24 25
M  V30 25 1 4 26
M  V30 26 2 26 27
M  V30 27 1 27 28
M  V30 28 2 28 29
M  V30 29 1 29 30
M  V30 30 2 30 31
M  V30 31 1 31 2
M  V30 32 1 24 5
M  V30 33 1 31 26
M  V30 34 1 20 15
M  V30 35 1 1 32
M  V30 36 1 1 33
M  V30 37 1 1 34
M  V30 38 1 3 35
M  V30 39 1 12 36
M  V30 40 1 12 37
M  V30 41 1 12 38
M  V30 42 1 13 39
M  V30 43 1 13 40
M  V30 44 1 13 41
M  V30 45 1 14 42
M  V30 46 1 14 43
M  V30 47 1 14 44
M  V30 48 1 16 45
M  V30 49 1 17 46
M  V30 50 1 18 47
M  V30 51 1 19 48
M  V30 52 1 20 49
M  V30 53 1 23 50
M  V30 54 1 27 51
M  V30 55 1 28 52
M  V30 56 1 29 53
M  V30 57 1 30 54
M  V30 END BOND
M  V30 END CTAB
M  END
>  <Dataset>  (456) 
ChEMBL_Kinases

>  <Ligand_Instance>  (456) 
nan

>  <PDB_ID>  (456) 
nan

>  <Standardized_SMILES>  (456) 
Cn1cc(C2=C(N(C(=O)OC(C)(C)C)c3ccccc3)C(=O)NC2=O)c2ccccc21

>  <Name>  (456) 
nan

>  <Pocket>  (456) 
nan

>  <ATP_Site>  (456) 
nan

>  <Peripheral>  (456) 
nan

>  <Num_H_Atoms_ProtBoundConf>  (456) 
nan

>  <Num_Resolved_Atoms>  (456) 
nan

>  <Num_Not_Resolved_Atoms>  (456) 
nan

$$$$
CHEMBL1081263
     RDKit          3D

  0  0  0  0  0  0  0  0  0  0999 V3000
M  V30 BEGIN CTAB
M  V30 COUNTS 49 52 0 0 0
M  V30 BEGIN ATOM
M  V30 1 N -0.545920 -1.556455 -3.622299 0
M  V30 2 C -0.860550 -1.939837 -2.251562 0 CFG=2
M  V30 3 C 0.055386 -3.001834 -1.739974 0
M  V30 4 N 1.438356 -2.652414 -1.717693 0
M  V30 5 C 2.039819 -1.567263 -0.942699 0
M  V30 6 N 2.997856 -1.028042 -0.696421 0
M  V30 7 C 3.218862 -0.018561 0.103112 0
M  V30 8 C 2.162870 0.477058 0.746137 0
M  V30 9 C 2.034080 1.616200 1.729770 0
M  V30 10 C 0.802519 1.919037 2.250309 0
M  V30 11 C 0.800912 2.991063 3.149887 0
M  V30 12 C 1.985506 3.650470 3.446666 0
M  V30 13 C 2.021492 4.722771 4.338351 0
M  V30 14 N 3.151610 5.383377 4.647971 0
M  V30 15 C 4.327373 5.004721 4.075951 0
M  V30 16 C 4.374474 3.944094 3.176063 0
M  V30 17 C 3.194021 3.298547 2.889976 0
M  V30 18 C 3.214477 2.243857 2.000889 0
M  V30 19 S 0.868775 -0.555226 0.158460 0
M  V30 20 C -2.302728 -2.434013 -2.297259 0
M  V30 21 C -2.778851 -2.866191 -0.965660 0
M  V30 22 C -3.403351 -2.054629 -0.030569 0
M  V30 23 C -3.821033 -2.522852 1.189091 0
M  V30 24 C -3.616283 -3.865946 1.515564 0
M  V30 25 C -4.041517 -4.458342 2.824926 0
M  V30 26 F -5.320294 -4.967184 2.742865 0
M  V30 27 F -3.159934 -5.471064 3.176929 0
M  V30 28 F -3.955919 -3.475056 3.815780 0
M  V30 29 C -3.001746 -4.736737 0.637870 0
M  V30 30 C -2.606767 -4.197703 -0.572098 0
M  V30 31 H -0.131952 -2.311541 -4.185929 0
M  V30 32 H -1.353854 -1.069472 -4.063039 0
M  V30 33 H -0.860812 -1.026238 -1.629647 0
M  V30 34 H -0.240666 -3.177604 -0.663956 0
M  V30 35 H -0.069939 -3.921126 -2.334852 0
M  V30 36 H 2.203296 -3.119842 -2.247051 0
M  V30 37 H 4.240173 0.382256 0.219562 0
M  V30 38 H -0.093608 1.377413 1.989892 0
M  V30 39 H -0.137306 3.304112 3.615434 0
M  V30 40 H 1.111442 5.061392 4.819460 0
M  V30 41 H 5.273918 5.486097 4.275039 0
M  V30 42 H 5.319797 3.652253 2.726728 0
M  V30 43 H 4.159224 1.950052 1.549938 0
M  V30 44 H -2.363829 -3.338724 -2.968030 0
M  V30 45 H -2.952598 -1.676839 -2.780672 0
M  V30 46 H -3.541651 -1.022411 -0.324452 0
M  V30 47 H -4.304436 -1.883911 1.906390 0
M  V30 48 H -2.820722 -5.779844 0.841479 0
M  V30 49 H -2.117072 -4.875321 -1.281028 0
M  V30 END ATOM
M  V30 BEGIN BOND
M  V30 1 1 1 2
M  V30 2 1 2 3
M  V30 3 1 3 4
M  V30 4 1 4 5
M  V30 5 2 5 6
M  V30 6 1 6 7
M  V30 7 2 7 8
M  V30 8 1 8 9
M  V30 9 2 9 10
M  V30 10 1 10 11
M  V30 11 2 11 12
M  V30 12 1 12 13
M  V30 13 2 13 14
M  V30 14 1 14 15
M  V30 15 2 15 16
M  V30 16 1 16 17
M  V30 17 2 17 18
M  V30 18 1 8 19
M  V30 19 1 2 20
M  V30 20 1 20 21
M  V30 21 2 21 22
M  V30 22 1 22 23
M  V30 23 2 23 24
M  V30 24 1 24 25
M  V30 25 1 25 26
M  V30 26 1 25 27
M  V30 27 1 25 28
M  V30 28 1 24 29
M  V30 29 2 29 30
M  V30 30 1 19 5
M  V30 31 1 30 21
M  V30 32 1 18 9
M  V30 33 1 17 12
M  V30 34 1 1 31
M  V30 35 1 1 32
M  V30 36 1 2 33 CFG=1
M  V30 37 1 3 34
M  V30 38 1 3 35
M  V30 39 1 4 36
M  V30 40 1 7 37
M  V30 41 1 10 38
M  V30 42 1 11 39
M  V30 43 1 13 40
M  V30 44 1 15 41
M  V30 45 1 16 42
M  V30 46 1 18 43
M  V30 47 1 20 44
M  V30 48 1 20 45
M  V30 49 1 22 46
M  V30 50 1 23 47
M  V30 51 1 29 48
M  V30 52 1 30 49
M  V30 END BOND
M  V30 END CTAB
M  END
>  <Dataset>  (457) 
ChEMBL_Kinases

>  <Ligand_Instance>  (457) 
nan

>  <PDB_ID>  (457) 
nan

>  <Standardized_SMILES>  (457) 
N[C@H](CNc1ncc(-c2ccc3cnccc3c2)s1)Cc1ccc(C(F)(F)F)cc1

>  <Name>  (457) 
nan

>  <Pocket>  (457) 
nan

>  <ATP_Site>  (457) 
nan

>  <Peripheral>  (457) 
nan

>  <Num_H_Atoms_ProtBoundConf>  (457) 
nan

>  <Num_Resolved_Atoms>  (457) 
nan

>  <Num_Not_Resolved_Atoms>  (457) 
nan

$$$$
CHEMBL1081293
     RDKit          3D

  0  0  0  0  0  0  0  0  0  0999 V3000
M  V30 BEGIN CTAB
M  V30 COUNTS 45 48 0 0 0
M  V30 BEGIN ATOM
M  V30 1 C 1.326384 -5.048403 3.373282 0
M  V30 2 O 0.320534 -4.411568 2.586525 0
M  V30 3 C 0.664954 -3.494921 1.594454 0
M  V30 4 C 2.018298 -3.281414 1.462002 0
M  V30 5 C 2.438903 -2.379381 0.492259 0
M  V30 6 C 1.454003 -1.760994 -0.270382 0
M  V30 7 C 0.086074 -2.003462 -0.106657 0
M  V30 8 C -0.783344 -1.223907 -1.018190 0
M  V30 9 C -0.807858 0.070696 -1.397757 0
M  V30 10 C 0.202816 0.966024 -0.828085 0
M  V30 11 C 1.305011 1.710777 -1.253447 0
M  V30 12 N 1.789350 2.378698 -0.197961 0
M  V30 13 C 2.953695 3.245716 -0.313212 0
M  V30 14 C 1.079502 2.133324 0.918678 0
M  V30 15 C 1.276035 2.650487 2.168279 0
M  V30 16 C 0.412417 2.277113 3.165541 0
M  V30 17 C -0.607042 1.402445 2.855469 0
M  V30 18 C -0.783708 0.894553 1.586199 0
M  V30 19 O -1.820963 0.021060 1.308277 0
M  V30 20 C -2.699454 -0.341876 2.349081 0
M  V30 21 C 0.081851 1.252118 0.542232 0
M  V30 22 C -1.909081 0.239326 -2.327335 0
M  V30 23 O -2.091298 1.399361 -2.796735 0
M  V30 24 N -2.587384 -0.992234 -2.530312 0
M  V30 25 C -1.873258 -1.945698 -1.691729 0
M  V30 26 O -2.338954 -3.105439 -1.743895 0
M  V30 27 C -0.323680 -2.893269 0.850060 0
M  V30 28 H 2.055886 -5.575831 2.719117 0
M  V30 29 H 0.827917 -5.840341 3.960212 0
M  V30 30 H 1.851853 -4.327432 4.049713 0
M  V30 31 H 2.766676 -3.772938 2.067289 0
M  V30 32 H 3.496153 -2.205488 0.381512 0
M  V30 33 H 1.908465 -1.078339 -1.004384 0
M  V30 34 H 1.550271 1.617988 -2.283650 0
M  V30 35 H 2.656012 4.262329 -0.554919 0
M  V30 36 H 3.457813 3.236023 0.678402 0
M  V30 37 H 3.708355 2.845587 -1.025897 0
M  V30 38 H 2.070447 3.332935 2.413040 0
M  V30 39 H 0.470703 2.622539 4.189280 0
M  V30 40 H -1.305106 1.096774 3.637919 0
M  V30 41 H -3.516100 -1.003591 1.958937 0
M  V30 42 H -3.110324 0.538398 2.867209 0
M  V30 43 H -2.082686 -0.865474 3.110246 0
M  V30 44 H -3.383141 -0.945391 -3.182597 0
M  V30 45 H -1.378163 -3.069885 0.962076 0
M  V30 END ATOM
M  V30 BEGIN BOND
M  V30 1 1 1 2
M  V30 2 1 2 3
M  V30 3 2 3 4
M  V30 4 1 4 5
M  V30 5 2 5 6
M  V30 6 1 6 7
M  V30 7 1 7 8
M  V30 8 2 8 9
M  V30 9 1 9 10
M  V30 10 2 10 11
M  V30 11 1 11 12
M  V30 12 1 12 13
M  V30 13 1 12 14
M  V30 14 2 14 15
M  V30 15 1 15 16
M  V30 16 2 16 17
M  V30 17 1 17 18
M  V30 18 1 18 19
M  V30 19 1 19 20
M  V30 20 2 18 21
M  V30 21 1 9 22
M  V30 22 2 22 23
M  V30 23 1 22 24
M  V30 24 1 24 25
M  V30 25 2 25 26
M  V30 26 2 7 27
M  V30 27 1 27 3
M  V30 28 1 25 8
M  V30 29 1 21 10
M  V30 30 1 21 14
M  V30 31 1 1 28
M  V30 32 1 1 29
M  V30 33 1 1 30
M  V30 34 1 4 31
M  V30 35 1 5 32
M  V30 36 1 6 33
M  V30 37 1 11 34
M  V30 38 1 13 35
M  V30 39 1 13 36
M  V30 40 1 13 37
M  V30 41 1 15 38
M  V30 42 1 16 39
M  V30 43 1 17 40
M  V30 44 1 20 41
M  V30 45 1 20 42
M  V30 46 1 20 43
M  V30 47 1 24 44
M  V30 48 1 27 45
M  V30 END BOND
M  V30 END CTAB
M  END
>  <Dataset>  (458) 
ChEMBL_Kinases

>  <Ligand_Instance>  (458) 
nan

>  <PDB_ID>  (458) 
nan

>  <Standardized_SMILES>  (458) 
COc1cccc(C2=C(c3cn(C)c4cccc(OC)c34)C(=O)NC2=O)c1

>  <Name>  (458) 
nan

>  <Pocket>  (458) 
nan

>  <ATP_Site>  (458) 
nan

>  <Peripheral>  (458) 
nan

>  <Num_H_Atoms_ProtBoundConf>  (458) 
nan

>  <Num_Resolved_Atoms>  (458) 
nan

>  <Num_Not_Resolved_Atoms>  (458) 
nan

$$$$
CHEMBL1081294
     RDKit          3D

  0  0  0  0  0  0  0  0  0  0999 V3000
M  V30 BEGIN CTAB
M  V30 COUNTS 48 51 0 0 0
M  V30 BEGIN ATOM
M  V30 1 C -0.731759 -1.649462 3.939305 0
M  V30 2 N -1.217672 -1.781262 2.578369 0
M  V30 3 C -1.494589 -0.771019 1.710726 0
M  V30 4 C -1.950010 -1.278726 0.488686 0
M  V30 5 C -2.327672 -0.470858 -0.664897 0
M  V30 6 C -1.689780 0.569375 -1.180555 0
M  V30 7 C -0.459532 1.278656 -0.848316 0
M  V30 8 C -0.327077 2.650137 -0.967011 0
M  V30 9 C 0.785418 3.380735 -0.686067 0
M  V30 10 C 1.878110 2.670115 -0.240708 0
M  V30 11 C 1.826088 1.293699 -0.094570 0
M  V30 12 C 3.086765 0.704775 0.386520 0
M  V30 13 C 3.125262 0.661363 1.891258 0 CFG=1
M  V30 14 O 2.078788 -0.102303 2.387884 0
M  V30 15 C 4.443370 0.137738 2.378682 0
M  V30 16 O 5.445971 0.963077 1.828161 0
M  V30 17 C 0.671985 0.602573 -0.393977 0
M  V30 18 C -2.455636 1.075746 -2.340018 0
M  V30 19 O -2.215317 2.052501 -3.127924 0
M  V30 20 N -3.628680 0.272837 -2.514871 0
M  V30 21 C -3.539154 -0.700290 -1.452468 0
M  V30 22 O -4.466931 -1.551671 -1.368045 0
M  V30 23 C -1.920263 -2.644284 0.697277 0
M  V30 24 C -2.255258 -3.666030 -0.162274 0
M  V30 25 C -2.174710 -5.005555 0.170330 0
M  V30 26 C -1.729663 -5.296188 1.442431 0
M  V30 27 C -1.384173 -4.300475 2.331403 0
M  V30 28 C -1.476628 -2.951905 1.964326 0
M  V30 29 H -0.961054 -2.587801 4.504768 0
M  V30 30 H 0.345767 -1.476131 4.005194 0
M  V30 31 H -1.294320 -0.804234 4.433065 0
M  V30 32 H -1.354025 0.266817 2.004764 0
M  V30 33 H -1.207478 3.178151 -1.319681 0
M  V30 34 H 0.815150 4.445862 -0.802093 0
M  V30 35 H 2.770967 3.276945 -0.017697 0
M  V30 36 H 3.977649 1.243718 0.004954 0
M  V30 37 H 3.122311 -0.341470 0.009675 0
M  V30 38 H 3.059581 1.715490 2.292765 0
M  V30 39 H 1.826714 0.268973 3.288343 0
M  V30 40 H 4.603819 -0.924193 2.198173 0
M  V30 41 H 4.459872 0.324296 3.493539 0
M  V30 42 H 6.082076 0.369501 1.347255 0
M  V30 43 H 0.677502 -0.458391 -0.265783 0
M  V30 44 H -4.357640 0.394185 -3.252305 0
M  V30 45 H -2.600219 -3.484684 -1.169970 0
M  V30 46 H -2.429396 -5.823052 -0.479483 0
M  V30 47 H -1.653164 -6.343981 1.741130 0
M  V30 48 H -1.037343 -4.550513 3.324453 0
M  V30 END ATOM
M  V30 BEGIN BOND
M  V30 1 1 1 2
M  V30 2 1 2 3
M  V30 3 2 3 4
M  V30 4 1 4 5
M  V30 5 2 5 6
M  V30 6 1 6 7
M  V30 7 2 7 8
M  V30 8 1 8 9
M  V30 9 2 9 10
M  V30 10 1 10 11
M  V30 11 1 11 12
M  V30 12 1 12 13
M  V30 13 1 13 14
M  V30 14 1 13 15
M  V30 15 1 15 16
M  V30 16 2 11 17
M  V30 17 1 6 18
M  V30 18 2 18 19
M  V30 19 1 18 20
M  V30 20 1 20 21
M  V30 21 2 21 22
M  V30 22 1 4 23
M  V30 23 2 23 24
M  V30 24 1 24 25
M  V30 25 2 25 26
M  V30 26 1 26 27
M  V30 27 2 27 28
M  V30 28 1 28 2
M  V30 29 1 21 5
M  V30 30 1 28 23
M  V30 31 1 17 7
M  V30 32 1 1 29
M  V30 33 1 1 30
M  V30 34 1 1 31
M  V30 35 1 3 32
M  V30 36 1 8 33
M  V30 37 1 9 34
M  V30 38 1 10 35
M  V30 39 1 12 36
M  V30 40 1 12 37
M  V30 41 1 13 38 CFG=1
M  V30 42 1 14 39
M  V30 43 1 15 40
M  V30 44 1 15 41
M  V30 45 1 16 42
M  V30 46 1 17 43
M  V30 47 1 20 44
M  V30 48 1 24 45
M  V30 49 1 25 46
M  V30 50 1 26 47
M  V30 51 1 27 48
M  V30 END BOND
M  V30 END CTAB
M  END
>  <Dataset>  (459) 
ChEMBL_Kinases

>  <Ligand_Instance>  (459) 
nan

>  <PDB_ID>  (459) 
nan

>  <Standardized_SMILES>  (459) 
Cn1cc(C2=C(c3cccc(C[C@@H](O)CO)c3)C(=O)NC2=O)c2ccccc21

>  <Name>  (459) 
nan

>  <Pocket>  (459) 
nan

>  <ATP_Site>  (459) 
nan

>  <Peripheral>  (459) 
nan

>  <Num_H_Atoms_ProtBoundConf>  (459) 
nan

>  <Num_Resolved_Atoms>  (459) 
nan

>  <Num_Not_Resolved_Atoms>  (459) 
nan

$$$$
CHEMBL1081295
     RDKit          3D

  0  0  0  0  0  0  0  0  0  0999 V3000
M  V30 BEGIN CTAB
M  V30 COUNTS 51 54 0 0 0
M  V30 BEGIN ATOM
M  V30 1 N 1.580064 -4.336795 6.271059 0
M  V30 2 C 2.127464 -4.447060 4.966721 0
M  V30 3 C 1.968295 -3.359241 4.116346 0
M  V30 4 C 2.502664 -3.457962 2.832012 0
M  V30 5 C 2.342891 -2.366572 1.978547 0
M  V30 6 C 2.901173 -2.557456 0.738425 0
M  V30 7 C 2.787390 -1.435100 -0.272574 0
M  V30 8 C 3.151584 -1.179587 -1.527995 0
M  V30 9 N 2.823224 -0.012045 -2.029522 0
M  V30 10 C 2.263372 0.853626 -1.570037 0
M  V30 11 N 1.757804 2.207854 -1.809992 0
M  V30 12 C 1.016683 3.013214 -0.864601 0
M  V30 13 C -0.293823 2.436485 -0.440063 0 CFG=1
M  V30 14 N -0.972955 3.325297 0.517943 0
M  V30 15 C -1.265025 2.254397 -1.578478 0
M  V30 16 C -2.560684 1.672921 -1.091116 0
M  V30 17 C -3.612216 2.462525 -0.670875 0
M  V30 18 C -4.774239 1.838681 -0.235545 0
M  V30 19 C -4.890578 0.447954 -0.217760 0
M  V30 20 C -6.130963 -0.245642 0.246360 0
M  V30 21 F -7.224511 0.522482 -0.078809 0
M  V30 22 F -6.094785 -0.448012 1.617693 0
M  V30 23 F -6.226243 -1.440677 -0.446352 0
M  V30 24 C -3.830340 -0.353375 -0.641577 0
M  V30 25 C -2.696299 0.300270 -1.065555 0
M  V30 26 S 1.923256 0.137856 0.160059 0
M  V30 27 C 3.571962 -3.636135 0.238273 0
M  V30 28 C 3.686669 -4.684393 1.159604 0
M  V30 29 C 3.167511 -4.612673 2.436129 0
M  V30 30 C 3.276970 -5.638791 3.344774 0
M  V30 31 N 2.774442 -5.579241 4.591390 0
M  V30 32 H 1.841067 -4.888306 7.114073 0
M  V30 33 H 0.825574 -3.646728 6.488677 0
M  V30 34 H 1.444173 -2.463214 4.445338 0
M  V30 35 H 1.833199 -1.455021 2.251517 0
M  V30 36 H 3.695221 -1.989192 -2.010451 0
M  V30 37 H 2.017847 2.489243 -2.761216 0
M  V30 38 H 1.650530 3.049931 0.067879 0
M  V30 39 H 0.929143 4.002330 -1.308285 0
M  V30 40 H -0.224064 1.470650 0.074139 0
M  V30 41 H -0.584010 3.213867 1.472661 0
M  V30 42 H -0.971688 4.302491 0.169328 0
M  V30 43 H -1.497098 3.176836 -2.134138 0
M  V30 44 H -0.781547 1.551340 -2.300790 0
M  V30 45 H -3.524403 3.530571 -0.683938 0
M  V30 46 H -5.634576 2.399135 0.106665 0
M  V30 47 H -3.926767 -1.417036 -0.625098 0
M  V30 48 H -1.887230 -0.337039 -1.389454 0
M  V30 49 H 3.978006 -3.694365 -0.757726 0
M  V30 50 H 4.206135 -5.599960 0.866087 0
M  V30 51 H 3.807432 -6.505045 2.964906 0
M  V30 END ATOM
M  V30 BEGIN BOND
M  V30 1 1 1 2
M  V30 2 2 2 3
M  V30 3 1 3 4
M  V30 4 2 4 5
M  V30 5 1 5 6
M  V30 6 1 6 7
M  V30 7 2 7 8
M  V30 8 1 8 9
M  V30 9 2 9 10
M  V30 10 1 10 11
M  V30 11 1 11 12
M  V30 12 1 12 13
M  V30 13 1 13 14
M  V30 14 1 13 15
M  V30 15 1 15 16
M  V30 16 2 16 17
M  V30 17 1 17 18
M  V30 18 2 18 19
M  V30 19 1 19 20
M  V30 20 1 20 21
M  V30 21 1 20 22
M  V30 22 1 20 23
M  V30 23 1 19 24
M  V30 24 2 24 25
M  V30 25 1 10 26
M  V30 26 2 6 27
M  V30 27 1 27 28
M  V30 28 2 28 29
M  V30 29 1 29 30
M  V30 30 2 30 31
M  V30 31 1 31 2
M  V30 32 1 29 4
M  V30 33 1 26 7
M  V30 34 1 25 16
M  V30 35 1 1 32
M  V30 36 1 1 33
M  V30 37 1 3 34
M  V30 38 1 5 35
M  V30 39 1 8 36
M  V30 40 1 11 37
M  V30 41 1 12 38
M  V30 42 1 12 39
M  V30 43 1 13 40 CFG=1
M  V30 44 1 14 41
M  V30 45 1 14 42
M  V30 46 1 15 43
M  V30 47 1 15 44
M  V30 48 1 17 45
M  V30 49 1 18 46
M  V30 50 1 24 47
M  V30 51 1 25 48
M  V30 52 1 27 49
M  V30 53 1 28 50
M  V30 54 1 30 51
M  V30 END BOND
M  V30 END CTAB
M  END
>  <Dataset>  (460) 
ChEMBL_Kinases

>  <Ligand_Instance>  (460) 
nan

>  <PDB_ID>  (460) 
nan

>  <Standardized_SMILES>  (460) 
Nc1cc2cc(-c3cnc(NC[C@@H](N)Cc4ccc(C(F)(F)F)cc4)s3)ccc2cn1

>  <Name>  (460) 
nan

>  <Pocket>  (460) 
nan

>  <ATP_Site>  (460) 
nan

>  <Peripheral>  (460) 
nan

>  <Num_H_Atoms_ProtBoundConf>  (460) 
nan

>  <Num_Resolved_Atoms>  (460) 
nan

>  <Num_Not_Resolved_Atoms>  (460) 
nan

$$$$
CHEMBL1081972
     RDKit          3D

  0  0  0  0  0  0  0  0  0  0999 V3000
M  V30 BEGIN CTAB
M  V30 COUNTS 48 51 0 0 0
M  V30 BEGIN ATOM
M  V30 1 C -0.360198 -3.742771 3.212633 0
M  V30 2 N -1.044154 -3.179502 2.058887 0
M  V30 3 C -1.116363 -1.875504 1.756495 0
M  V30 4 C -1.824141 -1.604349 0.607310 0
M  V30 5 C -2.148552 -0.402591 -0.139638 0
M  V30 6 C -1.490989 0.648039 -0.638575 0
M  V30 7 C -0.077854 0.990261 -0.606673 0
M  V30 8 C 0.448949 1.428202 -1.831037 0
M  V30 9 C 1.772178 1.792186 -1.953584 0
M  V30 10 C 2.633400 1.743522 -0.886142 0
M  V30 11 C 2.136719 1.316663 0.327228 0
M  V30 12 C 3.010272 1.246996 1.489766 0
M  V30 13 C 3.103030 2.475744 2.338768 0 CFG=2
M  V30 14 O 3.577007 3.570303 1.622631 0
M  V30 15 C 4.169614 2.167175 3.395315 0
M  V30 16 O 3.766572 1.059520 4.175193 0
M  V30 17 C 0.829642 0.965058 0.416491 0
M  V30 18 C -2.461397 1.553303 -1.292479 0
M  V30 19 O -2.202066 2.650308 -1.876607 0
M  V30 20 N -3.770053 1.012050 -1.175460 0
M  V30 21 C -3.579538 -0.195105 -0.463820 0
M  V30 22 O -4.622952 -0.889650 -0.219014 0
M  V30 23 C -2.200564 -2.893190 0.203771 0
M  V30 24 C -2.908795 -3.456252 -0.836145 0
M  V30 25 C -3.132534 -4.787715 -1.002515 0
M  V30 26 C -2.622436 -5.657553 -0.074300 0
M  V30 27 C -1.899975 -5.188545 1.000247 0
M  V30 28 C -1.717794 -3.825846 1.096296 0
M  V30 29 H -0.802358 -4.738881 3.459904 0
M  V30 30 H 0.715346 -3.882202 3.028496 0
M  V30 31 H -0.598980 -3.087818 4.081086 0
M  V30 32 H -0.663905 -1.116848 2.372158 0
M  V30 33 H -0.139873 1.502365 -2.723853 0
M  V30 34 H 2.192548 2.136293 -2.912308 0
M  V30 35 H 3.676329 2.021208 -0.943028 0
M  V30 36 H 4.035759 1.030627 1.114614 0
M  V30 37 H 2.719269 0.343445 2.067414 0
M  V30 38 H 2.208499 2.778925 2.866143 0
M  V30 39 H 2.978850 4.342495 1.657481 0
M  V30 40 H 4.340569 3.007077 4.068044 0
M  V30 41 H 5.105939 1.830592 2.883589 0
M  V30 42 H 4.209933 0.219935 3.877154 0
M  V30 43 H 0.437840 0.643846 1.352538 0
M  V30 44 H -4.625907 1.470047 -1.559249 0
M  V30 45 H -3.322768 -2.812903 -1.597841 0
M  V30 46 H -3.694633 -5.175065 -1.834870 0
M  V30 47 H -2.793762 -6.719078 -0.195882 0
M  V30 48 H -1.501700 -5.882029 1.728096 0
M  V30 END ATOM
M  V30 BEGIN BOND
M  V30 1 1 1 2
M  V30 2 1 2 3
M  V30 3 2 3 4
M  V30 4 1 4 5
M  V30 5 2 5 6
M  V30 6 1 6 7
M  V30 7 2 7 8
M  V30 8 1 8 9
M  V30 9 2 9 10
M  V30 10 1 10 11
M  V30 11 1 11 12
M  V30 12 1 12 13
M  V30 13 1 13 14
M  V30 14 1 13 15
M  V30 15 1 15 16
M  V30 16 2 11 17
M  V30 17 1 6 18
M  V30 18 2 18 19
M  V30 19 1 18 20
M  V30 20 1 20 21
M  V30 21 2 21 22
M  V30 22 1 4 23
M  V30 23 2 23 24
M  V30 24 1 24 25
M  V30 25 2 25 26
M  V30 26 1 26 27
M  V30 27 2 27 28
M  V30 28 1 28 2
M  V30 29 1 21 5
M  V30 30 1 28 23
M  V30 31 1 17 7
M  V30 32 1 1 29
M  V30 33 1 1 30
M  V30 34 1 1 31
M  V30 35 1 3 32
M  V30 36 1 8 33
M  V30 37 1 9 34
M  V30 38 1 10 35
M  V30 39 1 12 36
M  V30 40 1 12 37
M  V30 41 1 13 38 CFG=1
M  V30 42 1 14 39
M  V30 43 1 15 40
M  V30 44 1 15 41
M  V30 45 1 16 42
M  V30 46 1 17 43
M  V30 47 1 20 44
M  V30 48 1 24 45
M  V30 49 1 25 46
M  V30 50 1 26 47
M  V30 51 1 27 48
M  V30 END BOND
M  V30 END CTAB
M  END
>  <Dataset>  (461) 
ChEMBL_Kinases

>  <Ligand_Instance>  (461) 
nan

>  <PDB_ID>  (461) 
nan

>  <Standardized_SMILES>  (461) 
Cn1cc(C2=C(c3cccc(C[C@H](O)CO)c3)C(=O)NC2=O)c2ccccc21

>  <Name>  (461) 
nan

>  <Pocket>  (461) 
nan

>  <ATP_Site>  (461) 
nan

>  <Peripheral>  (461) 
nan

>  <Num_H_Atoms_ProtBoundConf>  (461) 
nan

>  <Num_Resolved_Atoms>  (461) 
nan

>  <Num_Not_Resolved_Atoms>  (461) 
nan

$$$$
CHEMBL1081537
     RDKit          3D

  0  0  0  0  0  0  0  0  0  0999 V3000
M  V30 BEGIN CTAB
M  V30 COUNTS 31 33 0 0 0
M  V30 BEGIN ATOM
M  V30 1 C -2.891316 -3.419238 3.147055 0
M  V30 2 C -1.724408 -2.991450 2.302027 0
M  V30 3 C -0.523450 -3.614633 2.561573 0
M  V30 4 C 0.605203 -3.281033 1.830171 0
M  V30 5 C 0.439818 -2.307818 0.852094 0
M  V30 6 C -0.759086 -1.677409 0.582578 0
M  V30 7 N -0.794218 -0.690092 -0.457652 0
M  V30 8 C 0.429862 -0.316020 -1.066569 0
M  V30 9 N 1.073408 -0.940189 -2.085484 0
M  V30 10 C 2.243352 -0.419337 -2.540634 0
M  V30 11 N 2.765635 0.706367 -1.992009 0
M  V30 12 C 2.161676 1.367682 -0.973083 0
M  V30 13 C 2.779728 2.505729 -0.494718 0
M  V30 14 C 2.119028 3.155455 0.549841 0
M  V30 15 C 0.925802 2.690119 1.070387 0
M  V30 16 Br 0.015305 3.572462 2.499299 0
M  V30 17 C 0.390026 1.542539 0.521271 0
M  V30 18 C 0.972862 0.828549 -0.517940 0
M  V30 19 C -1.872596 -2.029037 1.329121 0
M  V30 20 H -3.814832 -3.166638 2.599929 0
M  V30 21 H -2.877218 -2.748225 4.040859 0
M  V30 22 H -2.839322 -4.470177 3.449579 0
M  V30 23 H -0.442162 -4.365997 3.333985 0
M  V30 24 H 1.566455 -3.738739 1.996871 0
M  V30 25 H 1.340673 -2.058470 0.285224 0
M  V30 26 H -1.755403 -0.300543 -0.704454 0
M  V30 27 H 2.733417 -0.942916 -3.353373 0
M  V30 28 H 3.704592 2.871041 -0.891580 0
M  V30 29 H 2.548839 4.069288 0.983821 0
M  V30 30 H -0.539573 1.186131 0.930464 0
M  V30 31 H -2.827459 -1.541713 1.126811 0
M  V30 END ATOM
M  V30 BEGIN BOND
M  V30 1 1 1 2
M  V30 2 2 2 3
M  V30 3 1 3 4
M  V30 4 2 4 5
M  V30 5 1 5 6
M  V30 6 1 6 7
M  V30 7 1 7 8
M  V30 8 2 8 9
M  V30 9 1 9 10
M  V30 10 2 10 11
M  V30 11 1 11 12
M  V30 12 2 12 13
M  V30 13 1 13 14
M  V30 14 2 14 15
M  V30 15 1 15 16
M  V30 16 1 15 17
M  V30 17 2 17 18
M  V30 18 2 6 19
M  V30 19 1 19 2
M  V30 20 1 18 8
M  V30 21 1 18 12
M  V30 22 1 1 20
M  V30 23 1 1 21
M  V30 24 1 1 22
M  V30 25 1 3 23
M  V30 26 1 4 24
M  V30 27 1 5 25
M  V30 28 1 7 26
M  V30 29 1 10 27
M  V30 30 1 13 28
M  V30 31 1 14 29
M  V30 32 1 17 30
M  V30 33 1 19 31
M  V30 END BOND
M  V30 END CTAB
M  END
>  <Dataset>  (462) 
ChEMBL_Kinases

>  <Ligand_Instance>  (462) 
nan

>  <PDB_ID>  (462) 
nan

>  <Standardized_SMILES>  (462) 
Cc1cccc(Nc2ncnc3ccc(Br)cc23)c1

>  <Name>  (462) 
nan

>  <Pocket>  (462) 
nan

>  <ATP_Site>  (462) 
nan

>  <Peripheral>  (462) 
nan

>  <Num_H_Atoms_ProtBoundConf>  (462) 
nan

>  <Num_Resolved_Atoms>  (462) 
nan

>  <Num_Not_Resolved_Atoms>  (462) 
nan

$$$$
CHEMBL1081616
     RDKit          3D

  0  0  0  0  0  0  0  0  0  0999 V3000
M  V30 BEGIN CTAB
M  V30 COUNTS 41 44 0 0 0
M  V30 BEGIN ATOM
M  V30 1 C 1.540661 -5.565469 3.295333 0
M  V30 2 O 2.291568 -5.190096 2.179622 0
M  V30 3 C 1.869848 -4.235290 1.280556 0
M  V30 4 C 2.802245 -4.054737 0.272346 0
M  V30 5 C 2.601416 -3.153939 -0.737767 0
M  V30 6 C 1.424817 -2.395879 -0.754173 0
M  V30 7 C 0.472324 -2.547449 0.231816 0
M  V30 8 C -0.773028 -1.781060 0.315755 0
M  V30 9 C -1.114653 -0.480165 0.270785 0
M  V30 10 C -0.347687 0.726640 0.115646 0
M  V30 11 C 0.640360 1.164678 -0.737661 0
M  V30 12 N 1.095830 2.398649 -0.462406 0
M  V30 13 C 2.129255 3.121771 -1.174473 0
M  V30 14 C 0.396765 2.808358 0.607248 0
M  V30 15 C 0.529280 4.031143 1.251011 0
M  V30 16 C -0.272523 4.280309 2.340884 0
M  V30 17 F -0.176889 5.468352 3.005154 0
M  V30 18 C -1.174018 3.327217 2.762875 0
M  V30 19 C -1.242920 2.134889 2.065962 0
M  V30 20 C -0.484103 1.809491 0.974408 0
M  V30 21 C -2.589408 -0.409909 0.388299 0
M  V30 22 O -3.382280 0.576852 0.394122 0
M  V30 23 N -3.148426 -1.719786 0.509362 0
M  V30 24 C -2.006660 -2.584743 0.464915 0
M  V30 25 O -2.170552 -3.840970 0.550901 0
M  V30 26 C 0.729939 -3.466323 1.219916 0
M  V30 27 H 1.912352 -5.002579 4.200083 0
M  V30 28 H 1.554909 -6.664817 3.488639 0
M  V30 29 H 0.482589 -5.284017 3.148692 0
M  V30 30 H 3.748095 -4.570547 0.160644 0
M  V30 31 H 3.287459 -2.956070 -1.564347 0
M  V30 32 H 1.249613 -1.697467 -1.547588 0
M  V30 33 H 1.026150 0.596132 -1.558732 0
M  V30 34 H 1.716381 4.024287 -1.636184 0
M  V30 35 H 2.966593 3.406442 -0.473973 0
M  V30 36 H 2.595349 2.501863 -1.968837 0
M  V30 37 H 1.231119 4.790318 0.934222 0
M  V30 38 H -1.789738 3.550423 3.619270 0
M  V30 39 H -1.962969 1.450546 2.475421 0
M  V30 40 H -4.157579 -2.001886 0.609892 0
M  V30 41 H 0.051354 -3.661211 2.037442 0
M  V30 END ATOM
M  V30 BEGIN BOND
M  V30 1 1 1 2
M  V30 2 1 2 3
M  V30 3 2 3 4
M  V30 4 1 4 5
M  V30 5 2 5 6
M  V30 6 1 6 7
M  V30 7 1 7 8
M  V30 8 2 8 9
M  V30 9 1 9 10
M  V30 10 2 10 11
M  V30 11 1 11 12
M  V30 12 1 12 13
M  V30 13 1 12 14
M  V30 14 2 14 15
M  V30 15 1 15 16
M  V30 16 1 16 17
M  V30 17 2 16 18
M  V30 18 1 18 19
M  V30 19 2 19 20
M  V30 20 1 9 21
M  V30 21 2 21 22
M  V30 22 1 21 23
M  V30 23 1 23 24
M  V30 24 2 24 25
M  V30 25 2 7 26
M  V30 26 1 26 3
M  V30 27 1 24 8
M  V30 28 1 20 10
M  V30 29 1 20 14
M  V30 30 1 1 27
M  V30 31 1 1 28
M  V30 32 1 1 29
M  V30 33 1 4 30
M  V30 34 1 5 31
M  V30 35 1 6 32
M  V30 36 1 11 33
M  V30 37 1 13 34
M  V30 38 1 13 35
M  V30 39 1 13 36
M  V30 40 1 15 37
M  V30 41 1 18 38
M  V30 42 1 19 39
M  V30 43 1 23 40
M  V30 44 1 26 41
M  V30 END BOND
M  V30 END CTAB
M  END
>  <Dataset>  (463) 
ChEMBL_Kinases

>  <Ligand_Instance>  (463) 
nan

>  <PDB_ID>  (463) 
nan

>  <Standardized_SMILES>  (463) 
COc1cccc(C2=C(c3cn(C)c4cc(F)ccc34)C(=O)NC2=O)c1

>  <Name>  (463) 
nan

>  <Pocket>  (463) 
nan

>  <ATP_Site>  (463) 
nan

>  <Peripheral>  (463) 
nan

>  <Num_H_Atoms_ProtBoundConf>  (463) 
nan

>  <Num_Resolved_Atoms>  (463) 
nan

>  <Num_Not_Resolved_Atoms>  (463) 
nan

$$$$
CHEMBL1081617
     RDKit          3D

  0  0  0  0  0  0  0  0  0  0999 V3000
M  V30 BEGIN CTAB
M  V30 COUNTS 41 44 0 0 0
M  V30 BEGIN ATOM
M  V30 1 C 0.896228 -4.569688 4.101353 0
M  V30 2 O 1.836636 -4.016362 3.217598 0
M  V30 3 C 1.421698 -3.287058 2.126846 0
M  V30 4 C 2.519863 -2.836871 1.398048 0
M  V30 5 C 2.393680 -2.070286 0.237273 0
M  V30 6 C 1.090836 -1.769837 -0.168155 0
M  V30 7 C -0.000692 -2.216952 0.555683 0
M  V30 8 C -1.327756 -1.840841 0.086938 0
M  V30 9 C -1.502037 -0.557088 -0.296196 0
M  V30 10 C -0.588225 0.585128 -0.332796 0
M  V30 11 C -0.336116 1.445470 -1.407794 0
M  V30 12 N 0.568728 2.382989 -1.018444 0
M  V30 13 C 1.085376 3.445793 -1.857723 0
M  V30 14 C 0.909905 2.163019 0.264630 0
M  V30 15 C 1.774840 2.821761 1.125731 0
M  V30 16 C 1.971828 2.422975 2.433327 0
M  V30 17 C 1.273774 1.323284 2.890257 0
M  V30 18 Cl 1.482091 0.769715 4.543146 0
M  V30 19 C 0.425827 0.692321 2.011196 0
M  V30 20 C 0.200599 1.053678 0.702149 0
M  V30 21 C -2.889659 -0.371423 -0.737022 0
M  V30 22 O -3.485737 0.649254 -1.170488 0
M  V30 23 N -3.556807 -1.639707 -0.596813 0
M  V30 24 C -2.587444 -2.557419 -0.084181 0
M  V30 25 O -2.630425 -3.778665 0.220684 0
M  V30 26 C 0.157754 -2.970415 1.694967 0
M  V30 27 H 0.811103 -3.896825 4.990113 0
M  V30 28 H 1.241214 -5.561370 4.488761 0
M  V30 29 H -0.093444 -4.700233 3.626887 0
M  V30 30 H 3.569777 -3.012348 1.621247 0
M  V30 31 H 3.221177 -1.705540 -0.350542 0
M  V30 32 H 0.953469 -1.179036 -1.064889 0
M  V30 33 H -0.808194 1.348793 -2.384212 0
M  V30 34 H 0.518322 4.388360 -1.729829 0
M  V30 35 H 2.150768 3.609642 -1.518959 0
M  V30 36 H 1.185252 3.132794 -2.923360 0
M  V30 37 H 2.354304 3.695355 0.823198 0
M  V30 38 H 2.643013 2.927134 3.115403 0
M  V30 39 H -0.100762 -0.149919 2.432833 0
M  V30 40 H -4.539677 -1.928725 -0.801690 0
M  V30 41 H -0.658250 -3.336903 2.289906 0
M  V30 END ATOM
M  V30 BEGIN BOND
M  V30 1 1 1 2
M  V30 2 1 2 3
M  V30 3 2 3 4
M  V30 4 1 4 5
M  V30 5 2 5 6
M  V30 6 1 6 7
M  V30 7 1 7 8
M  V30 8 2 8 9
M  V30 9 1 9 10
M  V30 10 2 10 11
M  V30 11 1 11 12
M  V30 12 1 12 13
M  V30 13 1 12 14
M  V30 14 2 14 15
M  V30 15 1 15 16
M  V30 16 2 16 17
M  V30 17 1 17 18
M  V30 18 1 17 19
M  V30 19 2 19 20
M  V30 20 1 9 21
M  V30 21 2 21 22
M  V30 22 1 21 23
M  V30 23 1 23 24
M  V30 24 2 24 25
M  V30 25 2 7 26
M  V30 26 1 26 3
M  V30 27 1 24 8
M  V30 28 1 20 10
M  V30 29 1 20 14
M  V30 30 1 1 27
M  V30 31 1 1 28
M  V30 32 1 1 29
M  V30 33 1 4 30
M  V30 34 1 5 31
M  V30 35 1 6 32
M  V30 36 1 11 33
M  V30 37 1 13 34
M  V30 38 1 13 35
M  V30 39 1 13 36
M  V30 40 1 15 37
M  V30 41 1 16 38
M  V30 42 1 19 39
M  V30 43 1 23 40
M  V30 44 1 26 41
M  V30 END BOND
M  V30 END CTAB
M  END
>  <Dataset>  (464) 
ChEMBL_Kinases

>  <Ligand_Instance>  (464) 
nan

>  <PDB_ID>  (464) 
nan

>  <Standardized_SMILES>  (464) 
COc1cccc(C2=C(c3cn(C)c4ccc(Cl)cc34)C(=O)NC2=O)c1

>  <Name>  (464) 
nan

>  <Pocket>  (464) 
nan

>  <ATP_Site>  (464) 
nan

>  <Peripheral>  (464) 
nan

>  <Num_H_Atoms_ProtBoundConf>  (464) 
nan

>  <Num_Resolved_Atoms>  (464) 
nan

>  <Num_Not_Resolved_Atoms>  (464) 
nan

$$$$
CHEMBL1081628
     RDKit          3D

  0  0  0  0  0  0  0  0  0  0999 V3000
M  V30 BEGIN CTAB
M  V30 COUNTS 46 49 0 0 0
M  V30 BEGIN ATOM
M  V30 1 N -0.242132 -1.007025 2.449065 0
M  V30 2 C -0.062029 -2.312864 2.982237 0 CFG=2
M  V30 3 C 1.281667 -2.468940 3.695012 0
M  V30 4 N 2.400805 -2.226181 2.806340 0
M  V30 5 C 2.529493 -0.907499 2.153287 0
M  V30 6 N 3.079590 0.031638 2.534482 0
M  V30 7 N 3.190511 1.185681 1.958914 0
M  V30 8 C 2.700225 1.426462 0.890235 0
M  V30 9 C 2.548485 2.529329 -0.136123 0
M  V30 10 C 1.870253 2.402473 -1.303432 0
M  V30 11 C 1.830041 3.513958 -2.129750 0
M  V30 12 C 2.458930 4.701304 -1.771126 0
M  V30 13 N 2.576923 5.906497 -2.368539 0
M  V30 14 N 3.294959 6.690593 -1.572387 0
M  V30 15 C 3.660840 6.038095 -0.454881 0
M  V30 16 C 3.142435 4.765493 -0.551669 0
M  V30 17 C 3.201673 3.660845 0.305180 0
M  V30 18 S 1.892441 -0.187334 0.489242 0
M  V30 19 C -0.165149 -3.419569 2.004418 0
M  V30 20 C -1.434371 -3.553688 1.291097 0
M  V30 21 C -1.819622 -2.986089 0.093945 0
M  V30 22 C -3.062286 -3.203898 -0.464378 0
M  V30 23 C -3.982645 -4.025294 0.186420 0
M  V30 24 C -5.272970 -4.187553 -0.496498 0
M  V30 25 F -6.051318 -5.059229 0.268004 0
M  V30 26 F -5.989076 -3.030021 -0.606808 0
M  V30 27 F -5.102076 -4.823886 -1.732391 0
M  V30 28 C -3.606507 -4.597617 1.384508 0
M  V30 29 C -2.369971 -4.374634 1.929993 0
M  V30 30 H -0.794069 -0.970223 1.567656 0
M  V30 31 H -0.538740 -0.293118 3.147235 0
M  V30 32 H -0.841094 -2.470659 3.755802 0
M  V30 33 H 1.325187 -1.786867 4.585401 0
M  V30 34 H 1.388913 -3.502188 4.053966 0
M  V30 35 H 3.139448 -2.919739 2.584173 0
M  V30 36 H 1.407341 1.450292 -1.514461 0
M  V30 37 H 1.297737 3.437674 -3.061690 0
M  V30 38 H 2.134427 6.070531 -3.297089 0
M  V30 39 H 4.256680 6.454840 0.364059 0
M  V30 40 H 3.742706 3.794566 1.214383 0
M  V30 41 H 0.117349 -4.377177 2.494269 0
M  V30 42 H 0.631015 -3.249140 1.224179 0
M  V30 43 H -1.072265 -2.363332 -0.363985 0
M  V30 44 H -3.274686 -2.712561 -1.412066 0
M  V30 45 H -4.359494 -5.216807 1.831704 0
M  V30 46 H -2.171279 -4.873610 2.879969 0
M  V30 END ATOM
M  V30 BEGIN BOND
M  V30 1 1 1 2
M  V30 2 1 2 3
M  V30 3 1 3 4
M  V30 4 1 4 5
M  V30 5 2 5 6
M  V30 6 1 6 7
M  V30 7 2 7 8
M  V30 8 1 8 9
M  V30 9 2 9 10
M  V30 10 1 10 11
M  V30 11 2 11 12
M  V30 12 1 12 13
M  V30 13 1 13 14
M  V30 14 2 14 15
M  V30 15 1 15 16
M  V30 16 2 16 17
M  V30 17 1 8 18
M  V30 18 1 2 19
M  V30 19 1 19 20
M  V30 20 2 20 21
M  V30 21 1 21 22
M  V30 22 2 22 23
M  V30 23 1 23 24
M  V30 24 1 24 25
M  V30 25 1 24 26
M  V30 26 1 24 27
M  V30 27 1 23 28
M  V30 28 2 28 29
M  V30 29 1 18 5
M  V30 30 1 29 20
M  V30 31 1 17 9
M  V30 32 1 16 12
M  V30 33 1 1 30
M  V30 34 1 1 31
M  V30 35 1 2 32 CFG=1
M  V30 36 1 3 33
M  V30 37 1 3 34
M  V30 38 1 4 35
M  V30 39 1 10 36
M  V30 40 1 11 37
M  V30 41 1 13 38
M  V30 42 1 15 39
M  V30 43 1 17 40
M  V30 44 1 19 41
M  V30 45 1 19 42
M  V30 46 1 21 43
M  V30 47 1 22 44
M  V30 48 1 28 45
M  V30 49 1 29 46
M  V30 END BOND
M  V30 END CTAB
M  END
>  <Dataset>  (465) 
ChEMBL_Kinases

>  <Ligand_Instance>  (465) 
nan

>  <PDB_ID>  (465) 
nan

>  <Standardized_SMILES>  (465) 
N[C@H](CNc1nnc(-c2ccc3[nH]ncc3c2)s1)Cc1ccc(C(F)(F)F)cc1

>  <Name>  (465) 
nan

>  <Pocket>  (465) 
nan

>  <ATP_Site>  (465) 
nan

>  <Peripheral>  (465) 
nan

>  <Num_H_Atoms_ProtBoundConf>  (465) 
nan

>  <Num_Resolved_Atoms>  (465) 
nan

>  <Num_Not_Resolved_Atoms>  (465) 
nan

$$$$
CHEMBL1081829
     RDKit          3D

  0  0  0  0  0  0  0  0  0  0999 V3000
M  V30 BEGIN CTAB
M  V30 COUNTS 47 50 0 0 0
M  V30 BEGIN ATOM
M  V30 1 N 1.026599 -1.492587 -0.254163 0
M  V30 2 C 2.231468 -0.757089 -0.029327 0 CFG=2
M  V30 3 C 1.844195 0.639630 0.364366 0
M  V30 4 N 1.035609 1.324511 -0.636889 0
M  V30 5 C -0.156500 0.594562 -0.882993 0
M  V30 6 N -0.694377 -0.091711 -1.764173 0
M  V30 7 C -1.860581 -0.663084 -1.609998 0
M  V30 8 C -2.593257 -0.557490 -0.467343 0
M  V30 9 C -3.886142 -1.065134 0.036848 0
M  V30 10 C -4.649548 -1.847773 -0.811928 0
M  V30 11 C -5.852356 -2.333901 -0.330747 0
M  V30 12 C -6.223286 -2.014736 0.958821 0
M  V30 13 N -7.303820 -2.328507 1.697824 0
M  V30 14 N -7.230929 -1.788887 2.916947 0
M  V30 15 C -6.072924 -1.082644 3.027168 0
M  V30 16 C -5.445883 -1.233682 1.784389 0
M  V30 17 C -4.226219 -0.736007 1.309196 0
M  V30 18 S -1.461431 0.500391 0.512321 0
M  V30 19 C 3.294422 -0.857233 -1.045840 0
M  V30 20 C 3.015411 -0.401973 -2.399463 0
M  V30 21 C 2.466342 -1.093998 -3.467294 0
M  V30 22 C 2.340369 -0.422520 -4.690288 0
M  V30 23 C 2.729917 0.872338 -4.881085 0
M  V30 24 C 2.600785 1.582496 -6.175429 0
M  V30 25 F 1.320252 2.066382 -6.338603 0
M  V30 26 F 2.993133 0.731178 -7.182404 0
M  V30 27 F 3.447808 2.686247 -6.202046 0
M  V30 28 C 3.283667 1.586417 -3.819222 0
M  V30 29 C 3.406593 0.924978 -2.617234 0
M  V30 30 H 0.586505 -1.844500 0.626257 0
M  V30 31 H 1.043411 -2.163401 -1.036966 0
M  V30 32 H 2.673013 -1.220488 0.919093 0
M  V30 33 H 1.254876 0.564250 1.303036 0
M  V30 34 H 2.794243 1.186501 0.545085 0
M  V30 35 H 1.320931 2.238592 -1.097811 0
M  V30 36 H -2.303765 -1.266408 -2.415455 0
M  V30 37 H -4.281372 -2.037822 -1.797550 0
M  V30 38 H -6.474413 -2.948958 -0.964618 0
M  V30 39 H -8.123597 -2.926471 1.379065 0
M  V30 40 H -5.689984 -0.523514 3.865010 0
M  V30 41 H -3.617740 -0.126554 1.960724 0
M  V30 42 H 4.212294 -0.370965 -0.605192 0
M  V30 43 H 3.608125 -1.947626 -1.108042 0
M  V30 44 H 2.185236 -2.099564 -3.249810 0
M  V30 45 H 1.911457 -0.991111 -5.498519 0
M  V30 46 H 3.596178 2.614084 -3.956038 0
M  V30 47 H 3.853449 1.559113 -1.830270 0
M  V30 END ATOM
M  V30 BEGIN BOND
M  V30 1 1 1 2
M  V30 2 1 2 3
M  V30 3 1 3 4
M  V30 4 1 4 5
M  V30 5 2 5 6
M  V30 6 1 6 7
M  V30 7 2 7 8
M  V30 8 1 8 9
M  V30 9 2 9 10
M  V30 10 1 10 11
M  V30 11 2 11 12
M  V30 12 1 12 13
M  V30 13 1 13 14
M  V30 14 2 14 15
M  V30 15 1 15 16
M  V30 16 2 16 17
M  V30 17 1 8 18
M  V30 18 1 2 19
M  V30 19 1 19 20
M  V30 20 2 20 21
M  V30 21 1 21 22
M  V30 22 2 22 23
M  V30 23 1 23 24
M  V30 24 1 24 25
M  V30 25 1 24 26
M  V30 26 1 24 27
M  V30 27 1 23 28
M  V30 28 2 28 29
M  V30 29 1 18 5
M  V30 30 1 29 20
M  V30 31 1 17 9
M  V30 32 1 16 12
M  V30 33 1 1 30
M  V30 34 1 1 31
M  V30 35 1 2 32 CFG=1
M  V30 36 1 3 33
M  V30 37 1 3 34
M  V30 38 1 4 35
M  V30 39 1 7 36
M  V30 40 1 10 37
M  V30 41 1 11 38
M  V30 42 1 13 39
M  V30 43 1 15 40
M  V30 44 1 17 41
M  V30 45 1 19 42
M  V30 46 1 19 43
M  V30 47 1 21 44
M  V30 48 1 22 45
M  V30 49 1 28 46
M  V30 50 1 29 47
M  V30 END BOND
M  V30 END CTAB
M  END
>  <Dataset>  (466) 
ChEMBL_Kinases

>  <Ligand_Instance>  (466) 
nan

>  <PDB_ID>  (466) 
nan

>  <Standardized_SMILES>  (466) 
N[C@H](CNc1ncc(-c2ccc3[nH]ncc3c2)s1)Cc1ccc(C(F)(F)F)cc1

>  <Name>  (466) 
nan

>  <Pocket>  (466) 
nan

>  <ATP_Site>  (466) 
nan

>  <Peripheral>  (466) 
nan

>  <Num_H_Atoms_ProtBoundConf>  (466) 
nan

>  <Num_Resolved_Atoms>  (466) 
nan

>  <Num_Not_Resolved_Atoms>  (466) 
nan

$$$$
CHEMBL1081831
     RDKit          3D

  0  0  0  0  0  0  0  0  0  0999 V3000
M  V30 BEGIN CTAB
M  V30 COUNTS 49 52 0 0 0
M  V30 BEGIN ATOM
M  V30 1 N -1.477547 -1.840446 -1.230731 0
M  V30 2 C -1.234450 -1.915539 0.177823 0 CFG=2
M  V30 3 C -0.128286 -2.924845 0.460121 0
M  V30 4 N 1.065518 -2.473831 -0.230316 0
M  V30 5 C 1.509450 -1.170869 0.200667 0
M  V30 6 N 2.255814 -0.917935 1.066009 0
M  V30 7 C 2.663661 0.267207 1.462822 0
M  V30 8 C 2.174832 1.335378 0.806441 0
M  V30 9 C 2.375686 2.810146 0.937048 0
M  V30 10 C 1.713983 3.640694 0.093146 0
M  V30 11 C 1.976170 4.980556 0.306085 0
M  V30 12 C 2.848854 5.421809 1.307251 0
M  V30 13 C 3.487665 4.487724 2.131584 0
M  V30 14 C 3.252099 3.122367 1.952020 0
M  V30 15 C 4.360422 5.186140 3.114091 0
M  V30 16 C 4.141888 6.611774 2.751672 0
M  V30 17 O 4.765337 7.450775 3.428850 0
M  V30 18 N 3.231736 6.744856 1.664339 0
M  V30 19 S 1.086233 0.595996 -0.428777 0
M  V30 20 C -2.503727 -2.297996 0.910593 0
M  V30 21 C -3.024286 -3.606177 0.477097 0
M  V30 22 C -2.583291 -4.730405 1.155930 0
M  V30 23 C -2.956346 -6.039578 0.897146 0
M  V30 24 C -3.862796 -6.200239 -0.153220 0
M  V30 25 C -4.279341 -7.599526 -0.450920 0
M  V30 26 F -5.441535 -7.675913 -1.171348 0
M  V30 27 F -3.296754 -8.266634 -1.183856 0
M  V30 28 F -4.393192 -8.260924 0.754043 0
M  V30 29 C -4.323842 -5.101620 -0.852208 0
M  V30 30 C -3.922236 -3.812601 -0.556817 0
M  V30 31 H -0.838917 -2.473519 -1.737808 0
M  V30 32 H -1.341202 -0.870326 -1.592732 0
M  V30 33 H -0.900491 -0.939117 0.567827 0
M  V30 34 H 0.054585 -2.921097 1.558719 0
M  V30 35 H -0.380349 -3.922344 0.074009 0
M  V30 36 H 1.746985 -2.766071 -0.957438 0
M  V30 37 H 3.372583 0.420636 2.291065 0
M  V30 38 H 1.047744 3.286356 -0.669903 0
M  V30 39 H 1.495313 5.742098 -0.318679 0
M  V30 40 H 3.743438 2.410458 2.585582 0
M  V30 41 H 5.446658 4.986657 2.910763 0
M  V30 42 H 4.098817 4.971032 4.168243 0
M  V30 43 H 2.963325 7.659072 1.280017 0
M  V30 44 H -2.381247 -2.281406 1.997547 0
M  V30 45 H -3.270729 -1.542131 0.599419 0
M  V30 46 H -1.875035 -4.615228 1.978060 0
M  V30 47 H -2.573102 -6.854328 1.464433 0
M  V30 48 H -5.030479 -5.271745 -1.664769 0
M  V30 49 H -4.266713 -2.946789 -1.085341 0
M  V30 END ATOM
M  V30 BEGIN BOND
M  V30 1 1 1 2
M  V30 2 1 2 3
M  V30 3 1 3 4
M  V30 4 1 4 5
M  V30 5 2 5 6
M  V30 6 1 6 7
M  V30 7 2 7 8
M  V30 8 1 8 9
M  V30 9 2 9 10
M  V30 10 1 10 11
M  V30 11 2 11 12
M  V30 12 1 12 13
M  V30 13 2 13 14
M  V30 14 1 13 15
M  V30 15 1 15 16
M  V30 16 2 16 17
M  V30 17 1 16 18
M  V30 18 1 8 19
M  V30 19 1 2 20
M  V30 20 1 20 21
M  V30 21 2 21 22
M  V30 22 1 22 23
M  V30 23 2 23 24
M  V30 24 1 24 25
M  V30 25 1 25 26
M  V30 26 1 25 27
M  V30 27 1 25 28
M  V30 28 1 24 29
M  V30 29 2 29 30
M  V30 30 1 19 5
M  V30 31 1 30 21
M  V30 32 1 14 9
M  V30 33 1 18 12
M  V30 34 1 1 31
M  V30 35 1 1 32
M  V30 36 1 2 33 CFG=1
M  V30 37 1 3 34
M  V30 38 1 3 35
M  V30 39 1 4 36
M  V30 40 1 7 37
M  V30 41 1 10 38
M  V30 42 1 11 39
M  V30 43 1 14 40
M  V30 44 1 15 41
M  V30 45 1 15 42
M  V30 46 1 18 43
M  V30 47 1 20 44
M  V30 48 1 20 45
M  V30 49 1 22 46
M  V30 50 1 23 47
M  V30 51 1 29 48
M  V30 52 1 30 49
M  V30 END BOND
M  V30 END CTAB
M  END
>  <Dataset>  (467) 
ChEMBL_Kinases

>  <Ligand_Instance>  (467) 
nan

>  <PDB_ID>  (467) 
nan

>  <Standardized_SMILES>  (467) 
N[C@H](CNc1ncc(-c2ccc3c(c2)CC(=O)N3)s1)Cc1ccc(C(F)(F)F)cc1

>  <Name>  (467) 
nan

>  <Pocket>  (467) 
nan

>  <ATP_Site>  (467) 
nan

>  <Peripheral>  (467) 
nan

>  <Num_H_Atoms_ProtBoundConf>  (467) 
nan

>  <Num_Resolved_Atoms>  (467) 
nan

>  <Num_Not_Resolved_Atoms>  (467) 
nan

$$$$
CHEMBL1081852
     RDKit          3D

  0  0  0  0  0  0  0  0  0  0999 V3000
M  V30 BEGIN CTAB
M  V30 COUNTS 47 50 0 0 0
M  V30 BEGIN ATOM
M  V30 1 N 1.275868 0.284429 -3.320019 0
M  V30 2 C 0.188378 0.958577 -2.604753 0 CFG=2
M  V30 3 C 0.450193 0.860131 -1.151308 0
M  V30 4 N 0.558740 -0.454404 -0.606178 0
M  V30 5 C 0.765026 -0.547931 0.859304 0
M  V30 6 N 0.893098 -1.376633 1.635787 0
M  V30 7 C 1.071841 -1.320782 2.929920 0
M  V30 8 C 1.117575 -0.080208 3.473880 0
M  V30 9 C 1.283985 0.624797 4.792000 0
M  V30 10 C 1.254193 1.977330 4.812965 0
M  V30 11 C 1.420846 2.504024 6.101654 0
M  V30 12 C 1.595538 1.669013 7.211472 0
M  V30 13 N 1.770307 1.989831 8.522671 0
M  V30 14 C 1.887941 0.792102 9.159578 0
M  V30 15 O 2.064309 0.650677 10.401932 0
M  V30 16 O 1.788480 -0.195440 8.273499 0
M  V30 17 C 1.609886 0.297428 7.076231 0
M  V30 18 C 1.447621 -0.279196 5.810423 0
M  V30 19 S 0.876026 0.971508 1.920619 0
M  V30 20 C -1.169315 0.613362 -3.085241 0
M  V30 21 C -1.508277 -0.819945 -2.980760 0
M  V30 22 C -1.119436 -1.551088 -4.099021 0
M  V30 23 C -1.352984 -2.911319 -4.216675 0
M  V30 24 C -1.986249 -3.569852 -3.206671 0
M  V30 25 C -2.248202 -5.025527 -3.307911 0
M  V30 26 F -3.511418 -5.197271 -3.841227 0
M  V30 27 F -1.335072 -5.629567 -4.157473 0
M  V30 28 F -2.231328 -5.628407 -2.058957 0
M  V30 29 C -2.378557 -2.866284 -2.093397 0
M  V30 30 C -2.145384 -1.516716 -1.979655 0
M  V30 31 H 2.152390 0.842697 -3.294257 0
M  V30 32 H 1.498076 -0.644188 -2.892802 0
M  V30 33 H 0.341612 2.053544 -2.916600 0
M  V30 34 H 1.333174 1.510765 -0.881972 0
M  V30 35 H -0.404235 1.382545 -0.627997 0
M  V30 36 H 0.531172 -1.383115 -1.024262 0
M  V30 37 H 1.193486 -2.100983 3.668753 0
M  V30 38 H 1.119979 2.608335 3.958401 0
M  V30 39 H 1.411951 3.598766 6.227985 0
M  V30 40 H 1.810413 2.930391 8.974182 0
M  V30 41 H 1.457543 -1.350467 5.695571 0
M  V30 42 H -1.334514 0.988091 -4.132976 0
M  V30 43 H -1.890051 1.217165 -2.462025 0
M  V30 44 H -0.607035 -1.130676 -4.965576 0
M  V30 45 H -1.052762 -3.488269 -5.085545 0
M  V30 46 H -2.886933 -3.333662 -1.255708 0
M  V30 47 H -2.417807 -0.867850 -1.136262 0
M  V30 END ATOM
M  V30 BEGIN BOND
M  V30 1 1 1 2
M  V30 2 1 2 3
M  V30 3 1 3 4
M  V30 4 1 4 5
M  V30 5 2 5 6
M  V30 6 1 6 7
M  V30 7 2 7 8
M  V30 8 1 8 9
M  V30 9 2 9 10
M  V30 10 1 10 11
M  V30 11 2 11 12
M  V30 12 1 12 13
M  V30 13 1 13 14
M  V30 14 2 14 15
M  V30 15 1 14 16
M  V30 16 1 16 17
M  V30 17 2 17 18
M  V30 18 1 8 19
M  V30 19 1 2 20
M  V30 20 1 20 21
M  V30 21 2 21 22
M  V30 22 1 22 23
M  V30 23 2 23 24
M  V30 24 1 24 25
M  V30 25 1 25 26
M  V30 26 1 25 27
M  V30 27 1 25 28
M  V30 28 1 24 29
M  V30 29 2 29 30
M  V30 30 1 19 5
M  V30 31 1 30 21
M  V30 32 1 18 9
M  V30 33 1 17 12
M  V30 34 1 1 31
M  V30 35 1 1 32
M  V30 36 1 2 33 CFG=3
M  V30 37 1 3 34
M  V30 38 1 3 35
M  V30 39 1 4 36
M  V30 40 1 7 37
M  V30 41 1 10 38
M  V30 42 1 11 39
M  V30 43 1 13 40
M  V30 44 1 18 41
M  V30 45 1 20 42
M  V30 46 1 20 43
M  V30 47 1 22 44
M  V30 48 1 23 45
M  V30 49 1 29 46
M  V30 50 1 30 47
M  V30 END BOND
M  V30 END CTAB
M  END
>  <Dataset>  (468) 
ChEMBL_Kinases

>  <Ligand_Instance>  (468) 
nan

>  <PDB_ID>  (468) 
nan

>  <Standardized_SMILES>  (468) 
N[C@H](CNc1ncc(-c2ccc3[nH]c(=O)oc3c2)s1)Cc1ccc(C(F)(F)F)cc1

>  <Name>  (468) 
nan

>  <Pocket>  (468) 
nan

>  <ATP_Site>  (468) 
nan

>  <Peripheral>  (468) 
nan

>  <Num_H_Atoms_ProtBoundConf>  (468) 
nan

>  <Num_Resolved_Atoms>  (468) 
nan

>  <Num_Not_Resolved_Atoms>  (468) 
nan

$$$$
CHEMBL1081853
     RDKit          3D

  0  0  0  0  0  0  0  0  0  0999 V3000
M  V30 BEGIN CTAB
M  V30 COUNTS 47 50 0 0 0
M  V30 BEGIN ATOM
M  V30 1 N -0.562171 -0.261495 0.152675 0
M  V30 2 C -1.068536 -1.604374 0.363353 0 CFG=2
M  V30 3 C 0.069566 -2.620817 0.358465 0
M  V30 4 N 1.026761 -2.343310 1.399046 0
M  V30 5 C 1.738577 -1.063359 1.420739 0
M  V30 6 N 2.717054 -0.763940 0.947567 0
M  V30 7 C 3.399689 0.357889 0.931955 0
M  V30 8 C 2.852090 1.378382 1.606035 0
M  V30 9 C 3.151467 2.799761 1.919315 0
M  V30 10 C 4.282358 3.419842 1.466681 0
M  V30 11 C 4.595395 4.727060 1.732547 0
M  V30 12 C 3.737573 5.487359 2.499790 0
M  V30 13 N 3.993248 6.757284 2.786595 0
M  V30 14 C 3.046903 7.409432 3.568741 0
M  V30 15 O 3.077612 8.655602 3.979900 0
M  V30 16 S 1.747138 6.055178 3.867974 0
M  V30 17 C 2.619843 4.898162 2.955310 0
M  V30 18 C 2.302679 3.538164 2.673697 0
M  V30 19 S 1.267794 0.598126 2.270392 0
M  V30 20 C -2.006358 -1.900761 -0.805295 0
M  V30 21 C -2.607498 -3.236461 -0.738598 0
M  V30 22 C -2.094461 -4.397484 -1.279073 0
M  V30 23 C -2.771250 -5.597970 -1.140259 0
M  V30 24 C -3.978573 -5.653713 -0.454278 0
M  V30 25 C -4.769439 -6.896696 -0.258479 0
M  V30 26 F -5.941710 -6.877633 -0.989576 0
M  V30 27 F -4.047733 -8.008017 -0.669998 0
M  V30 28 F -5.043590 -7.027824 1.087416 0
M  V30 29 C -4.518777 -4.494930 0.101426 0
M  V30 30 C -3.822352 -3.311308 -0.052279 0
M  V30 31 H -1.188309 0.463196 0.552427 0
M  V30 32 H -0.331183 -0.070581 -0.834566 0
M  V30 33 H -1.568835 -1.676967 1.337942 0
M  V30 34 H -0.301840 -3.630928 0.518658 0
M  V30 35 H 0.564733 -2.506027 -0.640643 0
M  V30 36 H 1.420500 -2.821366 2.241987 0
M  V30 37 H 4.346956 0.593569 0.455213 0
M  V30 38 H 4.920591 2.777191 0.869329 0
M  V30 39 H 5.540570 5.046606 1.285798 0
M  V30 40 H 4.793330 7.373098 2.527366 0
M  V30 41 H 1.396424 3.169272 3.080515 0
M  V30 42 H -2.750016 -1.090404 -0.933343 0
M  V30 43 H -1.357405 -1.823894 -1.724846 0
M  V30 44 H -1.165162 -4.315171 -1.798800 0
M  V30 45 H -2.383230 -6.508634 -1.555868 0
M  V30 46 H -5.459725 -4.515513 0.640857 0
M  V30 47 H -4.280609 -2.429867 0.397787 0
M  V30 END ATOM
M  V30 BEGIN BOND
M  V30 1 1 1 2
M  V30 2 1 2 3
M  V30 3 1 3 4
M  V30 4 1 4 5
M  V30 5 2 5 6
M  V30 6 1 6 7
M  V30 7 2 7 8
M  V30 8 1 8 9
M  V30 9 2 9 10
M  V30 10 1 10 11
M  V30 11 2 11 12
M  V30 12 1 12 13
M  V30 13 1 13 14
M  V30 14 2 14 15
M  V30 15 1 14 16
M  V30 16 1 16 17
M  V30 17 2 17 18
M  V30 18 1 8 19
M  V30 19 1 2 20
M  V30 20 1 20 21
M  V30 21 2 21 22
M  V30 22 1 22 23
M  V30 23 2 23 24
M  V30 24 1 24 25
M  V30 25 1 25 26
M  V30 26 1 25 27
M  V30 27 1 25 28
M  V30 28 1 24 29
M  V30 29 2 29 30
M  V30 30 1 19 5
M  V30 31 1 30 21
M  V30 32 1 18 9
M  V30 33 1 17 12
M  V30 34 1 1 31
M  V30 35 1 1 32
M  V30 36 1 2 33 CFG=1
M  V30 37 1 3 34
M  V30 38 1 3 35
M  V30 39 1 4 36
M  V30 40 1 7 37
M  V30 41 1 10 38
M  V30 42 1 11 39
M  V30 43 1 13 40
M  V30 44 1 18 41
M  V30 45 1 20 42
M  V30 46 1 20 43
M  V30 47 1 22 44
M  V30 48 1 23 45
M  V30 49 1 29 46
M  V30 50 1 30 47
M  V30 END BOND
M  V30 END CTAB
M  END
>  <Dataset>  (469) 
ChEMBL_Kinases

>  <Ligand_Instance>  (469) 
nan

>  <PDB_ID>  (469) 
nan

>  <Standardized_SMILES>  (469) 
N[C@H](CNc1ncc(-c2ccc3[nH]c(=O)sc3c2)s1)Cc1ccc(C(F)(F)F)cc1

>  <Name>  (469) 
nan

>  <Pocket>  (469) 
nan

>  <ATP_Site>  (469) 
nan

>  <Peripheral>  (469) 
nan

>  <Num_H_Atoms_ProtBoundConf>  (469) 
nan

>  <Num_Resolved_Atoms>  (469) 
nan

>  <Num_Not_Resolved_Atoms>  (469) 
nan

$$$$
CHEMBL1081296
     RDKit          3D

  0  0  0  0  0  0  0  0  0  0999 V3000
M  V30 BEGIN CTAB
M  V30 COUNTS 48 51 0 0 0
M  V30 BEGIN ATOM
M  V30 1 N -1.062324 -3.400890 2.861055 0
M  V30 2 C -1.332778 -2.008011 2.481319 0 CFG=2
M  V30 3 C -0.685419 -1.053925 3.464147 0
M  V30 4 N 0.758622 -1.250279 3.490806 0
M  V30 5 C 1.329273 -0.967256 2.158273 0
M  V30 6 N 1.658532 -1.138723 1.091898 0
M  V30 7 C 2.237964 -0.342700 0.221399 0
M  V30 8 C 2.504242 0.908941 0.634776 0
M  V30 9 C 3.141951 2.108379 -0.027923 0
M  V30 10 C 3.548547 1.911332 -1.332567 0
M  V30 11 C 4.137717 2.991807 -1.956280 0
M  V30 12 C 4.273153 4.168810 -1.238987 0
M  V30 13 C 4.862186 5.284463 -1.825097 0
M  V30 14 N 5.029007 6.454535 -1.197032 0
M  V30 15 C 4.610078 6.585747 0.080244 0
M  V30 16 N 4.030399 5.520303 0.687600 0
M  V30 17 C 3.860718 4.343197 0.061116 0
M  V30 18 C 3.261282 3.247821 0.699455 0
M  V30 19 S 1.874139 0.868020 2.336432 0
M  V30 20 C -2.831291 -1.845336 2.439407 0
M  V30 21 C -3.342332 -2.817209 1.410584 0
M  V30 22 C -3.650928 -4.089353 1.874315 0
M  V30 23 C -4.132984 -5.046966 0.975562 0
M  V30 24 C -4.310393 -4.754060 -0.372967 0
M  V30 25 C -4.817824 -5.736653 -1.358539 0
M  V30 26 F -5.292696 -6.877472 -0.746390 0
M  V30 27 F -5.865789 -5.215471 -2.099940 0
M  V30 28 F -3.853913 -6.145137 -2.264213 0
M  V30 29 C -3.994653 -3.481120 -0.800689 0
M  V30 30 C -3.518476 -2.524521 0.070909 0
M  V30 31 H -1.501680 -3.621712 3.783424 0
M  V30 32 H -0.038563 -3.610088 2.881490 0
M  V30 33 H -0.939616 -1.837548 1.474289 0
M  V30 34 H -1.059583 -1.310709 4.474142 0
M  V30 35 H -0.901209 -0.020510 3.155814 0
M  V30 36 H 1.295354 -1.547291 4.339554 0
M  V30 37 H 2.491554 -0.670963 -0.778240 0
M  V30 38 H 3.411198 0.956889 -1.838860 0
M  V30 39 H 4.473406 2.889087 -2.977257 0
M  V30 40 H 5.222780 5.237148 -2.863650 0
M  V30 41 H 4.635110 7.414513 0.782121 0
M  V30 42 H 2.934539 3.371598 1.712601 0
M  V30 43 H -3.316744 -2.054506 3.420031 0
M  V30 44 H -3.050210 -0.831921 2.045420 0
M  V30 45 H -3.564362 -4.457312 2.886908 0
M  V30 46 H -4.405684 -6.064969 1.222478 0
M  V30 47 H -4.111411 -3.192551 -1.832171 0
M  V30 48 H -3.256860 -1.514639 -0.212043 0
M  V30 END ATOM
M  V30 BEGIN BOND
M  V30 1 1 1 2
M  V30 2 1 2 3
M  V30 3 1 3 4
M  V30 4 1 4 5
M  V30 5 2 5 6
M  V30 6 1 6 7
M  V30 7 2 7 8
M  V30 8 1 8 9
M  V30 9 2 9 10
M  V30 10 1 10 11
M  V30 11 2 11 12
M  V30 12 1 12 13
M  V30 13 2 13 14
M  V30 14 1 14 15
M  V30 15 2 15 16
M  V30 16 1 16 17
M  V30 17 2 17 18
M  V30 18 1 8 19
M  V30 19 1 2 20
M  V30 20 1 20 21
M  V30 21 2 21 22
M  V30 22 1 22 23
M  V30 23 2 23 24
M  V30 24 1 24 25
M  V30 25 1 25 26
M  V30 26 1 25 27
M  V30 27 1 25 28
M  V30 28 1 24 29
M  V30 29 2 29 30
M  V30 30 1 19 5
M  V30 31 1 30 21
M  V30 32 1 18 9
M  V30 33 1 17 12
M  V30 34 1 1 31
M  V30 35 1 1 32
M  V30 36 1 2 33 CFG=3
M  V30 37 1 3 34
M  V30 38 1 3 35
M  V30 39 1 4 36
M  V30 40 1 7 37
M  V30 41 1 10 38
M  V30 42 1 11 39
M  V30 43 1 13 40
M  V30 44 1 15 41
M  V30 45 1 18 42
M  V30 46 1 20 43
M  V30 47 1 20 44
M  V30 48 1 22 45
M  V30 49 1 23 46
M  V30 50 1 29 47
M  V30 51 1 30 48
M  V30 END BOND
M  V30 END CTAB
M  END
>  <Dataset>  (470) 
ChEMBL_Kinases

>  <Ligand_Instance>  (470) 
nan

>  <PDB_ID>  (470) 
nan

>  <Standardized_SMILES>  (470) 
N[C@H](CNc1ncc(-c2ccc3cncnc3c2)s1)Cc1ccc(C(F)(F)F)cc1

>  <Name>  (470) 
nan

>  <Pocket>  (470) 
nan

>  <ATP_Site>  (470) 
nan

>  <Peripheral>  (470) 
nan

>  <Num_H_Atoms_ProtBoundConf>  (470) 
nan

>  <Num_Resolved_Atoms>  (470) 
nan

>  <Num_Not_Resolved_Atoms>  (470) 
nan

$$$$
CHEMBL1084079
     RDKit          3D

  0  0  0  0  0  0  0  0  0  0999 V3000
M  V30 BEGIN CTAB
M  V30 COUNTS 66 71 0 0 0
M  V30 BEGIN ATOM
M  V30 1 C 2.564647 -2.264774 5.696111 0
M  V30 2 C 3.240970 -1.357373 4.733975 0
M  V30 3 C 2.630720 -0.767195 3.626400 0
M  V30 4 C 3.664929 -0.019358 3.052304 0
M  V30 5 C 3.582389 0.813678 1.846382 0
M  V30 6 N 3.209327 2.178108 2.123737 0
M  V30 7 C 1.937005 2.330459 2.757063 0
M  V30 8 C 1.184356 3.551469 2.237615 0
M  V30 9 N 1.120574 3.495857 0.780638 0
M  V30 10 C 0.059868 3.820927 -0.134388 0
M  V30 11 C -0.126901 5.075326 -0.682183 0
M  V30 12 Br 1.088388 6.467131 -0.203585 0
M  V30 13 C -1.179609 5.288768 -1.555086 0
M  V30 14 N -2.053073 4.301494 -1.903282 0
M  V30 15 C -1.904740 3.055312 -1.387520 0
M  V30 16 N -2.569227 1.869829 -1.512176 0
M  V30 17 C -1.955142 0.949693 -0.746056 0
M  V30 18 C -2.343630 -0.450071 -0.591759 0
M  V30 19 C -3.440896 -0.927128 -1.278943 0
M  V30 20 C -3.829632 -2.245346 -1.151982 0
M  V30 21 C -3.147973 -3.132846 -0.343600 0
M  V30 22 C -3.476790 -4.566579 -0.141614 0
M  V30 23 N -2.780625 -5.387307 -1.052950 0
M  V30 24 C -2.961657 -5.205414 -2.430512 0
M  V30 25 C -1.883954 -5.695933 -3.322442 0
M  V30 26 O -1.131815 -6.743146 -2.814994 0
M  V30 27 C -0.609571 -6.458617 -1.557556 0
M  V30 28 C -1.708840 -6.171845 -0.581171 0
M  V30 29 C -2.048275 -2.575483 0.319797 0
M  V30 30 C -1.607016 -1.271050 0.237547 0
M  V30 31 N -0.915469 1.561326 -0.149577 0
M  V30 32 C -0.850559 2.855461 -0.517889 0
M  V30 33 C 2.284500 3.047357 0.072143 0
M  V30 34 C 3.461162 3.050311 1.018620 0
M  V30 35 N 4.792193 -0.178729 3.792971 0
M  V30 36 O 4.509524 -0.986577 4.796025 0
M  V30 37 H 2.522848 -3.285254 5.262526 0
M  V30 38 H 1.484541 -1.968857 5.821755 0
M  V30 39 H 3.043735 -2.247896 6.694236 0
M  V30 40 H 1.609596 -0.861754 3.290547 0
M  V30 41 H 4.562971 0.836453 1.333555 0
M  V30 42 H 2.864596 0.397057 1.099466 0
M  V30 43 H 1.284367 1.447779 2.605207 0
M  V30 44 H 1.994268 2.476994 3.854255 0
M  V30 45 H 0.178831 3.511099 2.692333 0
M  V30 46 H 1.672509 4.482887 2.567411 0
M  V30 47 H -1.311238 6.281919 -1.976422 0
M  V30 48 H -3.412225 1.748678 -2.116886 0
M  V30 49 H -4.026268 -0.294521 -1.931515 0
M  V30 50 H -4.682947 -2.621884 -1.680174 0
M  V30 51 H -3.107547 -4.821984 0.894646 0
M  V30 52 H -4.573933 -4.731277 -0.130365 0
M  V30 53 H -3.107368 -4.112913 -2.660437 0
M  V30 54 H -3.946356 -5.658544 -2.722957 0
M  V30 55 H -1.195392 -4.843485 -3.586852 0
M  V30 56 H -2.302640 -6.018470 -4.296174 0
M  V30 57 H 0.163783 -5.670090 -1.564835 0
M  V30 58 H -0.084861 -7.404034 -1.247011 0
M  V30 59 H -1.219932 -5.601167 0.263019 0
M  V30 60 H -2.029608 -7.130245 -0.092121 0
M  V30 61 H -1.482259 -3.242895 0.969002 0
M  V30 62 H -0.753319 -0.957462 0.790611 0
M  V30 63 H 2.496952 3.660942 -0.831148 0
M  V30 64 H 2.120606 1.996120 -0.281428 0
M  V30 65 H 4.351923 2.670496 0.475643 0
M  V30 66 H 3.635990 4.080270 1.389291 0
M  V30 END ATOM
M  V30 BEGIN BOND
M  V30 1 1 1 2
M  V30 2 2 2 3
M  V30 3 1 3 4
M  V30 4 1 4 5
M  V30 5 1 5 6
M  V30 6 1 6 7
M  V30 7 1 7 8
M  V30 8 1 8 9
M  V30 9 1 9 10
M  V30 10 2 10 11
M  V30 11 1 11 12
M  V30 12 1 11 13
M  V30 13 2 13 14
M  V30 14 1 14 15
M  V30 15 1 15 16
M  V30 16 1 16 17
M  V30 17 1 17 18
M  V30 18 2 18 19
M  V30 19 1 19 20
M  V30 20 2 20 21
M  V30 21 1 21 22
M  V30 22 1 22 23
M  V30 23 1 23 24
M  V30 24 1 24 25
M  V30 25 1 25 26
M  V30 26 1 26 27
M  V30 27 1 27 28
M  V30 28 1 21 29
M  V30 29 2 29 30
M  V30 30 2 17 31
M  V30 31 1 31 32
M  V30 32 1 9 33
M  V30 33 1 33 34
M  V30 34 2 4 35
M  V30 35 1 35 36
M  V30 36 1 36 2
M  V30 37 1 34 6
M  V30 38 1 32 10
M  V30 39 2 32 15
M  V30 40 1 30 18
M  V30 41 1 28 23
M  V30 42 1 1 37
M  V30 43 1 1 38
M  V30 44 1 1 39
M  V30 45 1 3 40
M  V30 46 1 5 41
M  V30 47 1 5 42
M  V30 48 1 7 43
M  V30 49 1 7 44
M  V30 50 1 8 45
M  V30 51 1 8 46
M  V30 52 1 13 47
M  V30 53 1 16 48
M  V30 54 1 19 49
M  V30 55 1 20 50
M  V30 56 1 22 51
M  V30 57 1 22 52
M  V30 58 1 24 53
M  V30 59 1 24 54
M  V30 60 1 25 55
M  V30 61 1 25 56
M  V30 62 1 27 57
M  V30 63 1 27 58
M  V30 64 1 28 59
M  V30 65 1 28 60
M  V30 66 1 29 61
M  V30 67 1 30 62
M  V30 68 1 33 63
M  V30 69 1 33 64
M  V30 70 1 34 65
M  V30 71 1 34 66
M  V30 END BOND
M  V30 END CTAB
M  END
>  <Dataset>  (471) 
ChEMBL_Kinases

>  <Ligand_Instance>  (471) 
nan

>  <PDB_ID>  (471) 
nan

>  <Standardized_SMILES>  (471) 
Cc1cc(CN2CCN(c3c(Br)cnc4[nH]c(-c5ccc(CN6CCOCC6)cc5)nc34)CC2)no1

>  <Name>  (471) 
nan

>  <Pocket>  (471) 
nan

>  <ATP_Site>  (471) 
nan

>  <Peripheral>  (471) 
nan

>  <Num_H_Atoms_ProtBoundConf>  (471) 
nan

>  <Num_Resolved_Atoms>  (471) 
nan

>  <Num_Not_Resolved_Atoms>  (471) 
nan

$$$$
CHEMBL1084067
     RDKit          3D

  0  0  0  0  0  0  0  0  0  0999 V3000
M  V30 BEGIN CTAB
M  V30 COUNTS 55 59 0 0 0
M  V30 BEGIN ATOM
M  V30 1 C 4.601524 -6.508652 5.030399 0
M  V30 2 O 4.496552 -5.124753 4.680555 0
M  V30 3 C 3.604528 -4.783335 3.652632 0
M  V30 4 C 3.547384 -3.433652 3.360623 0
M  V30 5 C 2.698875 -2.978376 2.360619 0
M  V30 6 C 1.907468 -3.876692 1.653246 0
M  V30 7 C 0.993964 -3.463956 0.589858 0
M  V30 8 N 0.836916 -2.193552 0.202735 0
M  V30 9 C -0.042869 -2.092895 -0.770850 0
M  V30 10 C -0.533887 -1.014757 -1.486104 0
M  V30 11 N -0.141449 0.328518 -1.298674 0
M  V30 12 C -0.640248 1.494615 -2.006309 0
M  V30 13 C -0.015825 2.789848 -1.487354 0
M  V30 14 N -0.050883 2.914641 -0.082452 0
M  V30 15 C -0.940812 3.847370 0.497393 0
M  V30 16 C -2.364250 3.632566 0.243490 0
M  V30 17 C -3.149767 4.129980 -0.770657 0
M  V30 18 C -4.476357 3.887848 -0.951994 0
M  V30 19 C -5.118597 3.075024 -0.055016 0
M  V30 20 Cl -6.827932 2.761894 -0.287196 0
M  V30 21 C -4.409099 2.535050 0.989850 0
M  V30 22 C -3.048601 2.806256 1.143318 0
M  V30 23 C 0.103900 1.663192 0.628727 0
M  V30 24 C 0.854121 0.769098 -0.349895 0
M  V30 25 C -1.467549 -1.350643 -2.441793 0
M  V30 26 Br -2.326845 -0.104405 -3.595530 0
M  V30 27 C -1.903687 -2.633613 -2.697174 0
M  V30 28 N -1.370883 -3.645072 -1.947885 0
M  V30 29 C -0.463466 -3.362744 -1.011697 0
M  V30 30 N 0.173597 -4.199286 -0.176702 0
M  V30 31 C 1.989224 -5.212480 1.969646 0
M  V30 32 C 2.826164 -5.687988 2.960517 0
M  V30 33 H 5.422518 -6.656657 5.746225 0
M  V30 34 H 4.709748 -7.096458 4.103172 0
M  V30 35 H 3.675776 -6.829138 5.586429 0
M  V30 36 H 4.119211 -2.657137 3.850027 0
M  V30 37 H 2.627658 -1.929578 2.104557 0
M  V30 38 H -0.347914 1.456505 -3.074292 0
M  V30 39 H -1.730701 1.643288 -1.832298 0
M  V30 40 H -0.652994 3.608158 -1.936089 0
M  V30 41 H 0.981359 2.965434 -1.971009 0
M  V30 42 H -0.759074 3.818846 1.612416 0
M  V30 43 H -0.595360 4.869494 0.196298 0
M  V30 44 H -2.659453 4.772479 -1.476781 0
M  V30 45 H -5.004602 4.332200 -1.789772 0
M  V30 46 H -4.982750 1.910187 1.647994 0
M  V30 47 H -2.647016 2.308634 2.010511 0
M  V30 48 H -0.912495 1.240013 0.767654 0
M  V30 49 H 0.572606 1.745161 1.605986 0
M  V30 50 H 1.436692 -0.003222 0.140588 0
M  V30 51 H 1.606152 1.422925 -0.858646 0
M  V30 52 H -2.614956 -2.961278 -3.412929 0
M  V30 53 H 0.075920 -5.220524 -0.108957 0
M  V30 54 H 1.376933 -5.924986 1.425345 0
M  V30 55 H 2.906614 -6.724330 3.224492 0
M  V30 END ATOM
M  V30 BEGIN BOND
M  V30 1 1 1 2
M  V30 2 1 2 3
M  V30 3 2 3 4
M  V30 4 1 4 5
M  V30 5 2 5 6
M  V30 6 1 6 7
M  V30 7 2 7 8
M  V30 8 1 8 9
M  V30 9 2 9 10
M  V30 10 1 10 11
M  V30 11 1 11 12
M  V30 12 1 12 13
M  V30 13 1 13 14
M  V30 14 1 14 15
M  V30 15 1 15 16
M  V30 16 2 16 17
M  V30 17 1 17 18
M  V30 18 2 18 19
M  V30 19 1 19 20
M  V30 20 1 19 21
M  V30 21 2 21 22
M  V30 22 1 14 23
M  V30 23 1 23 24
M  V30 24 1 10 25
M  V30 25 1 25 26
M  V30 26 2 25 27
M  V30 27 1 27 28
M  V30 28 2 28 29
M  V30 29 1 29 30
M  V30 30 1 6 31
M  V30 31 2 31 32
M  V30 32 1 32 3
M  V30 33 1 30 7
M  V30 34 1 29 9
M  V30 35 1 24 11
M  V30 36 1 22 16
M  V30 37 1 1 33
M  V30 38 1 1 34
M  V30 39 1 1 35
M  V30 40 1 4 36
M  V30 41 1 5 37
M  V30 42 1 12 38
M  V30 43 1 12 39
M  V30 44 1 13 40
M  V30 45 1 13 41
M  V30 46 1 15 42
M  V30 47 1 15 43
M  V30 48 1 17 44
M  V30 49 1 18 45
M  V30 50 1 21 46
M  V30 51 1 22 47
M  V30 52 1 23 48
M  V30 53 1 23 49
M  V30 54 1 24 50
M  V30 55 1 24 51
M  V30 56 1 27 52
M  V30 57 1 30 53
M  V30 58 1 31 54
M  V30 59 1 32 55
M  V30 END BOND
M  V30 END CTAB
M  END
>  <Dataset>  (472) 
ChEMBL_Kinases

>  <Ligand_Instance>  (472) 
nan

>  <PDB_ID>  (472) 
nan

>  <Standardized_SMILES>  (472) 
COc1ccc(-c2nc3c(N4CCN(Cc5ccc(Cl)cc5)CC4)c(Br)cnc3[nH]2)cc1

>  <Name>  (472) 
nan

>  <Pocket>  (472) 
nan

>  <ATP_Site>  (472) 
nan

>  <Peripheral>  (472) 
nan

>  <Num_H_Atoms_ProtBoundConf>  (472) 
nan

>  <Num_Resolved_Atoms>  (472) 
nan

>  <Num_Not_Resolved_Atoms>  (472) 
nan

$$$$
CHEMBL1084036
     RDKit          3D

  0  0  0  0  0  0  0  0  0  0999 V3000
M  V30 BEGIN CTAB
M  V30 COUNTS 54 58 0 0 0
M  V30 BEGIN ATOM
M  V30 1 C 3.305651 -4.031199 6.118588 0
M  V30 2 C 3.778675 -3.971241 4.698847 0
M  V30 3 C 3.094056 -3.830669 3.488561 0
M  V30 4 N 4.007636 -3.837930 2.513830 0
M  V30 5 C 3.443742 -3.699831 1.196510 0
M  V30 6 C 3.355740 -2.462338 0.614165 0
M  V30 7 C 2.800547 -2.430026 -0.650715 0
M  V30 8 N 2.663270 -1.170983 -1.351092 0
M  V30 9 C 1.435280 -0.451779 -1.145908 0
M  V30 10 O 0.619605 -1.032807 -0.359894 0
M  V30 11 N 1.058217 0.793063 -1.711307 0
M  V30 12 C -0.220255 1.302885 -1.351058 0
M  V30 13 C -0.308074 2.111337 -0.247857 0
M  V30 14 C -1.519334 2.620784 0.130073 0
M  V30 15 C -2.710379 2.387949 -0.521527 0
M  V30 16 C -3.946390 2.968740 -0.048255 0
M  V30 17 N -3.955323 3.721091 1.063966 0
M  V30 18 C -5.140293 4.186557 1.392728 0
M  V30 19 N -5.839272 4.920564 2.267696 0
M  V30 20 N -7.103493 4.912871 1.871089 0
M  V30 21 C -7.245431 4.177232 0.737477 0
M  V30 22 C -5.992408 3.711109 0.428382 0
M  V30 23 N -5.224892 3.003443 -0.386657 0
M  V30 24 C -2.580403 1.577051 -1.616093 0
M  V30 25 C -3.744841 1.198406 -2.451789 0
M  V30 26 C -1.380517 1.042393 -2.032498 0
M  V30 27 C 2.344329 -3.543912 -1.336735 0
M  V30 28 C 2.458169 -4.774890 -0.698007 0
M  V30 29 C 1.960590 -5.956975 -1.456369 0
M  V30 30 F 2.495899 -7.145462 -1.033811 0
M  V30 31 F 2.187363 -5.792839 -2.825212 0
M  V30 32 F 0.573240 -6.058988 -1.345338 0
M  V30 33 C 3.011155 -4.854094 0.576412 0
M  V30 34 C 5.224999 -3.977624 3.082294 0
M  V30 35 N 5.084893 -4.057663 4.397277 0
M  V30 36 H 2.196614 -4.085362 6.106122 0
M  V30 37 H 3.783823 -4.860875 6.679848 0
M  V30 38 H 3.572962 -3.100989 6.620470 0
M  V30 39 H 2.009156 -3.748319 3.587227 0
M  V30 40 H 3.695963 -1.557353 1.102731 0
M  V30 41 H 3.334899 -0.679171 -2.006526 0
M  V30 42 H 1.789799 1.197138 -2.344454 0
M  V30 43 H 0.584796 2.336975 0.311686 0
M  V30 44 H -1.485928 3.258717 1.028677 0
M  V30 45 H -5.450017 5.403015 3.101392 0
M  V30 46 H -8.144352 3.975044 0.163896 0
M  V30 47 H -5.606922 2.535703 -1.201296 0
M  V30 48 H -4.447025 0.673157 -1.775050 0
M  V30 49 H -3.465268 0.418925 -3.208127 0
M  V30 50 H -4.223080 2.044835 -2.941390 0
M  V30 51 H -1.294258 0.404561 -2.898307 0
M  V30 52 H 1.917266 -3.448062 -2.331699 0
M  V30 53 H 3.077451 -5.849398 1.034652 0
M  V30 54 H 6.053328 -3.996221 2.371074 0
M  V30 END ATOM
M  V30 BEGIN BOND
M  V30 1 1 1 2
M  V30 2 2 2 3
M  V30 3 1 3 4
M  V30 4 1 4 5
M  V30 5 2 5 6
M  V30 6 1 6 7
M  V30 7 1 7 8
M  V30 8 1 8 9
M  V30 9 2 9 10
M  V30 10 1 9 11
M  V30 11 1 11 12
M  V30 12 2 12 13
M  V30 13 1 13 14
M  V30 14 2 14 15
M  V30 15 1 15 16
M  V30 16 2 16 17
M  V30 17 1 17 18
M  V30 18 1 18 19
M  V30 19 1 19 20
M  V30 20 2 20 21
M  V30 21 1 21 22
M  V30 22 1 22 23
M  V30 23 1 15 24
M  V30 24 1 24 25
M  V30 25 2 24 26
M  V30 26 2 7 27
M  V30 27 1 27 28
M  V30 28 1 28 29
M  V30 29 1 29 30
M  V30 30 1 29 31
M  V30 31 1 29 32
M  V30 32 2 28 33
M  V30 33 1 4 34
M  V30 34 2 34 35
M  V30 35 1 35 2
M  V30 36 1 33 5
M  V30 37 1 26 12
M  V30 38 1 23 16
M  V30 39 2 22 18
M  V30 40 1 1 36
M  V30 41 1 1 37
M  V30 42 1 1 38
M  V30 43 1 3 39
M  V30 44 1 6 40
M  V30 45 1 8 41
M  V30 46 1 11 42
M  V30 47 1 13 43
M  V30 48 1 14 44
M  V30 49 1 19 45
M  V30 50 1 21 46
M  V30 51 1 23 47
M  V30 52 1 25 48
M  V30 53 1 25 49
M  V30 54 1 25 50
M  V30 55 1 26 51
M  V30 56 1 27 52
M  V30 57 1 33 53
M  V30 58 1 34 54
M  V30 END BOND
M  V30 END CTAB
M  END
>  <Dataset>  (473) 
ChEMBL_Kinases

>  <Ligand_Instance>  (473) 
nan

>  <PDB_ID>  (473) 
nan

>  <Standardized_SMILES>  (473) 
Cc1cn(-c2cc(NC(=O)Nc3ccc(-c4nc5[nH]ncc5[nH]4)c(C)c3)cc(C(F)(F)F)c2)cn1

>  <Name>  (473) 
nan

>  <Pocket>  (473) 
nan

>  <ATP_Site>  (473) 
nan

>  <Peripheral>  (473) 
nan

>  <Num_H_Atoms_ProtBoundConf>  (473) 
nan

>  <Num_Resolved_Atoms>  (473) 
nan

>  <Num_Not_Resolved_Atoms>  (473) 
nan

$$$$
CHEMBL1083967
     RDKit          3D

  0  0  0  0  0  0  0  0  0  0999 V3000
M  V30 BEGIN CTAB
M  V30 COUNTS 42 44 0 0 0
M  V30 BEGIN ATOM
M  V30 1 C -1.848900 -4.698836 -0.521995 0
M  V30 2 C -1.275029 -4.089808 0.743453 0
M  V30 3 C -2.319139 -3.337159 1.497047 0
M  V30 4 C -2.952114 -2.203697 0.775038 0
M  V30 5 N -3.956729 -1.606094 1.657837 0
M  V30 6 C -2.009255 -1.166161 0.281599 0
M  V30 7 C -2.468868 -0.432653 -0.822626 0
M  V30 8 C -1.628608 0.549220 -1.301770 0
M  V30 9 C -0.414418 0.727343 -0.659978 0
M  V30 10 S 0.926063 1.926045 -1.029440 0
M  V30 11 C 1.988943 1.346177 0.323923 0
M  V30 12 C 3.266427 1.980840 0.517975 0
M  V30 13 C 3.679411 3.007028 -0.302614 0
M  V30 14 C 4.943787 3.513472 0.020336 0
M  V30 15 N 5.722572 3.072084 1.029740 0
M  V30 16 C 5.245398 2.051427 1.800316 0
M  V30 17 N 6.094097 1.621746 2.845102 0
M  V30 18 N 4.021278 1.519296 1.532633 0
M  V30 19 C 1.286753 0.359716 0.903175 0
M  V30 20 C 1.987755 -0.268169 2.059725 0
M  V30 21 C 0.057090 0.013782 0.431302 0
M  V30 22 C -0.795621 -0.968231 0.902475 0
M  V30 23 H -1.563362 -4.041696 -1.366868 0
M  V30 24 H -2.928129 -4.855477 -0.439864 0
M  V30 25 H -1.358840 -5.678164 -0.715795 0
M  V30 26 H -0.365052 -3.551057 0.499748 0
M  V30 27 H -0.974789 -4.951511 1.393838 0
M  V30 28 H -1.822819 -2.993862 2.454280 0
M  V30 29 H -3.063283 -4.089189 1.858037 0
M  V30 30 H -3.484141 -2.621687 -0.114466 0
M  V30 31 H -4.757180 -1.208400 1.114504 0
M  V30 32 H -3.529552 -0.918269 2.316076 0
M  V30 33 H -3.409639 -0.599845 -1.288542 0
M  V30 34 H -1.853541 1.180959 -2.135479 0
M  V30 35 H 3.104478 3.391861 -1.111250 0
M  V30 36 H 5.338843 4.319874 -0.576089 0
M  V30 37 H 5.962741 1.701208 3.875201 0
M  V30 38 H 7.018723 1.140640 2.790315 0
M  V30 39 H 1.425223 -1.126894 2.472443 0
M  V30 40 H 2.147085 0.476048 2.843016 0
M  V30 41 H 2.962988 -0.704798 1.723908 0
M  V30 42 H -0.535755 -1.579654 1.755448 0
M  V30 END ATOM
M  V30 BEGIN BOND
M  V30 1 1 1 2
M  V30 2 1 2 3
M  V30 3 1 3 4
M  V30 4 1 4 5
M  V30 5 1 4 6
M  V30 6 2 6 7
M  V30 7 1 7 8
M  V30 8 2 8 9
M  V30 9 1 9 10
M  V30 10 1 10 11
M  V30 11 1 11 12
M  V30 12 2 12 13
M  V30 13 1 13 14
M  V30 14 2 14 15
M  V30 15 1 15 16
M  V30 16 1 16 17
M  V30 17 2 16 18
M  V30 18 2 11 19
M  V30 19 1 19 20
M  V30 20 1 19 21
M  V30 21 2 21 22
M  V30 22 1 22 6
M  V30 23 1 21 9
M  V30 24 1 18 12
M  V30 25 1 1 23
M  V30 26 1 1 24
M  V30 27 1 1 25
M  V30 28 1 2 26
M  V30 29 1 2 27
M  V30 30 1 3 28
M  V30 31 1 3 29
M  V30 32 1 4 30
M  V30 33 1 5 31
M  V30 34 1 5 32
M  V30 35 1 7 33
M  V30 36 1 8 34
M  V30 37 1 13 35
M  V30 38 1 14 36
M  V30 39 1 17 37
M  V30 40 1 17 38
M  V30 41 1 20 39
M  V30 42 1 20 40
M  V30 43 1 20 41
M  V30 44 1 22 42
M  V30 END BOND
M  V30 END CTAB
M  END
>  <Dataset>  (474) 
ChEMBL_Kinases

>  <Ligand_Instance>  (474) 
nan

>  <PDB_ID>  (474) 
nan

>  <Standardized_SMILES>  (474) 
CCCC(N)c1ccc2sc(-c3ccnc(N)n3)c(C)c2c1

>  <Name>  (474) 
nan

>  <Pocket>  (474) 
nan

>  <ATP_Site>  (474) 
nan

>  <Peripheral>  (474) 
nan

>  <Num_H_Atoms_ProtBoundConf>  (474) 
nan

>  <Num_Resolved_Atoms>  (474) 
nan

>  <Num_Not_Resolved_Atoms>  (474) 
nan

$$$$
CHEMBL1083966
     RDKit          3D

  0  0  0  0  0  0  0  0  0  0999 V3000
M  V30 BEGIN CTAB
M  V30 COUNTS 39 41 0 0 0
M  V30 BEGIN ATOM
M  V30 1 C -1.187320 -3.633595 3.106143 0
M  V30 2 C -0.490756 -4.818165 2.436042 0
M  V30 3 C 0.770228 -4.279407 1.795802 0
M  V30 4 N 1.496532 -5.333202 1.135825 0
M  V30 5 C 0.437113 -3.163743 0.833882 0
M  V30 6 C -0.048796 -3.577003 -0.387991 0
M  V30 7 C -0.349892 -2.568670 -1.256565 0
M  V30 8 C -0.156587 -1.239737 -0.873110 0
M  V30 9 S -0.434101 0.313437 -1.728645 0
M  V30 10 C 0.103524 1.354594 -0.428185 0
M  V30 11 C 0.110691 2.829614 -0.539678 0
M  V30 12 C -0.329530 3.368575 -1.727380 0
M  V30 13 C -0.295460 4.766797 -1.762461 0
M  V30 14 N 0.122612 5.530837 -0.747043 0
M  V30 15 C 0.547412 4.947546 0.404631 0
M  V30 16 N 1.027517 5.562222 1.593887 0
M  V30 17 N 0.527963 3.583258 0.474587 0
M  V30 18 C 0.467205 0.481902 0.590513 0
M  V30 19 C 0.965962 1.148702 1.823372 0
M  V30 20 C 0.328012 -0.842162 0.346757 0
M  V30 21 C 0.632487 -1.860490 1.224965 0
M  V30 22 H -0.610448 -3.312592 3.992705 0
M  V30 23 H -1.324488 -2.827726 2.369596 0
M  V30 24 H -2.177081 -3.970868 3.476672 0
M  V30 25 H -1.151018 -5.340566 1.743085 0
M  V30 26 H -0.146200 -5.505308 3.246088 0
M  V30 27 H 1.390948 -3.861675 2.592736 0
M  V30 28 H 2.356618 -5.623835 1.639936 0
M  V30 29 H 1.571598 -5.259013 0.116273 0
M  V30 30 H -0.197316 -4.601591 -0.682272 0
M  V30 31 H -0.739801 -2.721585 -2.252786 0
M  V30 32 H -0.679091 2.831844 -2.585391 0
M  V30 33 H -0.625200 5.270582 -2.660927 0
M  V30 34 H 0.586854 5.282621 2.520439 0
M  V30 35 H 1.774171 6.209639 1.255575 0
M  V30 36 H 1.957144 1.587430 1.587579 0
M  V30 37 H 1.055973 0.413817 2.651616 0
M  V30 38 H 0.272180 1.922072 2.186140 0
M  V30 39 H 1.027307 -1.705360 2.233703 0
M  V30 END ATOM
M  V30 BEGIN BOND
M  V30 1 1 1 2
M  V30 2 1 2 3
M  V30 3 1 3 4
M  V30 4 1 3 5
M  V30 5 2 5 6
M  V30 6 1 6 7
M  V30 7 2 7 8
M  V30 8 1 8 9
M  V30 9 1 9 10
M  V30 10 1 10 11
M  V30 11 2 11 12
M  V30 12 1 12 13
M  V30 13 2 13 14
M  V30 14 1 14 15
M  V30 15 1 15 16
M  V30 16 2 15 17
M  V30 17 2 10 18
M  V30 18 1 18 19
M  V30 19 1 18 20
M  V30 20 2 20 21
M  V30 21 1 21 5
M  V30 22 1 20 8
M  V30 23 1 17 11
M  V30 24 1 1 22
M  V30 25 1 1 23
M  V30 26 1 1 24
M  V30 27 1 2 25
M  V30 28 1 2 26
M  V30 29 1 3 27
M  V30 30 1 4 28
M  V30 31 1 4 29
M  V30 32 1 6 30
M  V30 33 1 7 31
M  V30 34 1 12 32
M  V30 35 1 13 33
M  V30 36 1 16 34
M  V30 37 1 16 35
M  V30 38 1 19 36
M  V30 39 1 19 37
M  V30 40 1 19 38
M  V30 41 1 21 39
M  V30 END BOND
M  V30 END CTAB
M  END
>  <Dataset>  (475) 
ChEMBL_Kinases

>  <Ligand_Instance>  (475) 
nan

>  <PDB_ID>  (475) 
nan

>  <Standardized_SMILES>  (475) 
CCC(N)c1ccc2sc(-c3ccnc(N)n3)c(C)c2c1

>  <Name>  (475) 
nan

>  <Pocket>  (475) 
nan

>  <ATP_Site>  (475) 
nan

>  <Peripheral>  (475) 
nan

>  <Num_H_Atoms_ProtBoundConf>  (475) 
nan

>  <Num_Resolved_Atoms>  (475) 
nan

>  <Num_Not_Resolved_Atoms>  (475) 
nan

$$$$
CHEMBL1083965
     RDKit          3D

  0  0  0  0  0  0  0  0  0  0999 V3000
M  V30 BEGIN CTAB
M  V30 COUNTS 36 38 0 0 0
M  V30 BEGIN ATOM
M  V30 1 C -0.959399 -1.646764 1.825280 0
M  V30 2 C 0.120102 -1.130338 0.925911 0
M  V30 3 C 1.128780 -1.969772 0.530221 0
M  V30 4 C 1.505806 -3.353443 0.741578 0
M  V30 5 C 0.848090 -4.297608 1.495807 0
M  V30 6 C 1.203950 -5.603976 1.696387 0
M  V30 7 N 2.330488 -5.983649 1.073336 0
M  V30 8 C 3.038590 -5.132307 0.316614 0
M  V30 9 N 4.238213 -5.517470 -0.353301 0
M  V30 10 N 2.614006 -3.871598 0.177104 0
M  V30 11 S 2.222267 -0.974331 -0.538234 0
M  V30 12 C 1.180227 0.573567 -0.358006 0
M  V30 13 C 1.426403 1.801040 -0.935469 0
M  V30 14 C 0.508154 2.784331 -0.648993 0
M  V30 15 C -0.543192 2.445590 0.170759 0
M  V30 16 C -1.507787 3.540251 0.451042 0
M  V30 17 C -2.834880 3.055482 0.978464 0
M  V30 18 N -1.792283 4.210404 -0.807504 0
M  V30 19 C -0.707185 1.204093 0.697745 0
M  V30 20 C 0.154898 0.154903 0.471119 0
M  V30 21 H -0.533313 -1.903551 2.824679 0
M  V30 22 H -1.592452 -2.406744 1.367579 0
M  V30 23 H -1.691748 -0.811065 2.072514 0
M  V30 24 H -0.040737 -4.000999 1.987755 0
M  V30 25 H 0.626651 -6.276158 2.305984 0
M  V30 26 H 5.228852 -5.167682 -0.327910 0
M  V30 27 H 4.200419 -6.313498 -1.032356 0
M  V30 28 H 2.306255 1.880084 -1.552853 0
M  V30 29 H 0.673223 3.747055 -1.083092 0
M  V30 30 H -1.046987 4.274159 1.130669 0
M  V30 31 H -2.842783 2.833468 2.061569 0
M  V30 32 H -3.583971 3.855778 0.805599 0
M  V30 33 H -3.140702 2.115828 0.474472 0
M  V30 34 H -1.307825 5.123947 -0.896525 0
M  V30 35 H -1.616626 3.541313 -1.587561 0
M  V30 36 H -1.599840 1.092789 1.334598 0
M  V30 END ATOM
M  V30 BEGIN BOND
M  V30 1 1 1 2
M  V30 2 2 2 3
M  V30 3 1 3 4
M  V30 4 2 4 5
M  V30 5 1 5 6
M  V30 6 2 6 7
M  V30 7 1 7 8
M  V30 8 1 8 9
M  V30 9 2 8 10
M  V30 10 1 3 11
M  V30 11 1 11 12
M  V30 12 2 12 13
M  V30 13 1 13 14
M  V30 14 2 14 15
M  V30 15 1 15 16
M  V30 16 1 16 17
M  V30 17 1 16 18
M  V30 18 1 15 19
M  V30 19 2 19 20
M  V30 20 1 20 2
M  V30 21 1 10 4
M  V30 22 1 20 12
M  V30 23 1 1 21
M  V30 24 1 1 22
M  V30 25 1 1 23
M  V30 26 1 5 24
M  V30 27 1 6 25
M  V30 28 1 9 26
M  V30 29 1 9 27
M  V30 30 1 13 28
M  V30 31 1 14 29
M  V30 32 1 16 30
M  V30 33 1 17 31
M  V30 34 1 17 32
M  V30 35 1 17 33
M  V30 36 1 18 34
M  V30 37 1 18 35
M  V30 38 1 19 36
M  V30 END BOND
M  V30 END CTAB
M  END
>  <Dataset>  (476) 
ChEMBL_Kinases

>  <Ligand_Instance>  (476) 
nan

>  <PDB_ID>  (476) 
nan

>  <Standardized_SMILES>  (476) 
Cc1c(-c2ccnc(N)n2)sc2ccc(C(C)N)cc12

>  <Name>  (476) 
nan

>  <Pocket>  (476) 
nan

>  <ATP_Site>  (476) 
nan

>  <Peripheral>  (476) 
nan

>  <Num_H_Atoms_ProtBoundConf>  (476) 
nan

>  <Num_Resolved_Atoms>  (476) 
nan

>  <Num_Not_Resolved_Atoms>  (476) 
nan

$$$$
CHEMBL1083838
     RDKit          3D

  0  0  0  0  0  0  0  0  0  0999 V3000
M  V30 BEGIN CTAB
M  V30 COUNTS 30 33 0 0 0
M  V30 BEGIN ATOM
M  V30 1 O -0.672157 -1.412301 -2.389416 0
M  V30 2 C 0.139982 -1.852682 -1.563035 0
M  V30 3 N 0.988464 -2.957101 -1.850315 0
M  V30 4 C 1.762312 -3.143714 -0.646788 0
M  V30 5 C 2.731876 -4.140720 -0.501814 0
M  V30 6 C 3.420136 -4.250335 0.669245 0
M  V30 7 C 3.107834 -3.335808 1.682231 0
M  V30 8 I 4.209189 -3.553595 3.480498 0
M  V30 9 C 2.140363 -2.386444 1.456330 0
M  V30 10 C 1.431296 -2.232227 0.323594 0
M  V30 11 C 0.405673 -1.398112 -0.223622 0
M  V30 12 C -0.163702 -0.426770 0.380303 0
M  V30 13 N -1.179293 0.407825 -0.146106 0
M  V30 14 C -1.622915 1.409416 0.761551 0
M  V30 15 C -2.583024 2.385080 0.597230 0
M  V30 16 C -2.775080 3.207680 1.684807 0
M  V30 17 C -2.082231 3.100791 2.869825 0
M  V30 18 C -1.145758 2.098403 2.939485 0
M  V30 19 C -0.850818 1.194381 1.910816 0
M  V30 20 C 0.048546 0.075368 1.698514 0
M  V30 21 O 0.757647 -0.188712 2.635112 0
M  V30 22 H 1.017840 -3.491996 -2.747206 0
M  V30 23 H 2.975251 -4.845798 -1.277660 0
M  V30 24 H 4.164858 -5.009541 0.792388 0
M  V30 25 H 2.044814 -1.799636 2.314522 0
M  V30 26 H -1.562126 0.292914 -1.111569 0
M  V30 27 H -3.132924 2.478631 -0.327733 0
M  V30 28 H -3.520180 3.984856 1.592998 0
M  V30 29 H -2.248418 3.757489 3.712537 0
M  V30 30 H -0.604579 2.015519 3.866182 0
M  V30 END ATOM
M  V30 BEGIN BOND
M  V30 1 2 1 2
M  V30 2 1 2 3
M  V30 3 1 3 4
M  V30 4 2 4 5
M  V30 5 1 5 6
M  V30 6 2 6 7
M  V30 7 1 7 8
M  V30 8 1 7 9
M  V30 9 2 9 10
M  V30 10 1 10 11
M  V30 11 2 11 12
M  V30 12 1 12 13
M  V30 13 1 13 14
M  V30 14 2 14 15
M  V30 15 1 15 16
M  V30 16 2 16 17
M  V30 17 1 17 18
M  V30 18 2 18 19
M  V30 19 1 19 20
M  V30 20 2 20 21
M  V30 21 1 11 2
M  V30 22 1 20 12
M  V30 23 1 10 4
M  V30 24 1 19 14
M  V30 25 1 3 22
M  V30 26 1 5 23
M  V30 27 1 6 24
M  V30 28 1 9 25
M  V30 29 1 13 26
M  V30 30 1 15 27
M  V30 31 1 16 28
M  V30 32 1 17 29
M  V30 33 1 18 30
M  V30 END BOND
M  V30 END CTAB
M  END
>  <Dataset>  (477) 
ChEMBL_Kinases

>  <Ligand_Instance>  (477) 
nan

>  <PDB_ID>  (477) 
nan

>  <Standardized_SMILES>  (477) 
O=C1Nc2ccc(I)cc2/C1=C1/Nc2ccccc2C1=O

>  <Name>  (477) 
nan

>  <Pocket>  (477) 
nan

>  <ATP_Site>  (477) 
nan

>  <Peripheral>  (477) 
nan

>  <Num_H_Atoms_ProtBoundConf>  (477) 
nan

>  <Num_Resolved_Atoms>  (477) 
nan

>  <Num_Not_Resolved_Atoms>  (477) 
nan

$$$$
CHEMBL1083801
     RDKit          3D

  0  0  0  0  0  0  0  0  0  0999 V3000
M  V30 BEGIN CTAB
M  V30 COUNTS 54 58 0 0 0
M  V30 BEGIN ATOM
M  V30 1 C 2.339404 -1.895101 7.462298 0
M  V30 2 O 2.881697 -2.973120 6.684598 0
M  V30 3 C 2.632743 -2.976154 5.316748 0
M  V30 4 C 1.889313 -1.979341 4.715972 0
M  V30 5 C 1.689636 -2.059816 3.348498 0
M  V30 6 C 2.223845 -3.109197 2.626509 0
M  V30 7 C 2.023062 -3.215289 1.163559 0
M  V30 8 N 1.325860 -2.328481 0.429819 0
M  V30 9 C 1.315606 -2.689082 -0.875243 0
M  V30 10 C 0.760581 -2.146772 -2.026044 0
M  V30 11 N 0.027384 -0.927030 -1.803818 0
M  V30 12 C -1.401889 -0.903161 -1.493058 0
M  V30 13 C -1.743752 0.373189 -0.809658 0
M  V30 14 N -1.300830 1.547865 -1.499345 0
M  V30 15 C -1.793077 2.771032 -0.970088 0
M  V30 16 C -3.252962 2.897393 -0.973231 0
M  V30 17 C -4.050813 2.488357 0.080288 0
M  V30 18 C -5.416505 2.657664 -0.035395 0
M  V30 19 C -5.987867 3.217475 -1.163015 0
M  V30 20 N -5.183331 3.610403 -2.182236 0
M  V30 21 C -3.853794 3.458746 -2.098683 0
M  V30 22 C 0.012493 1.539204 -2.016000 0
M  V30 23 C 0.783982 0.278733 -1.904900 0
M  V30 24 C 0.961499 -2.807918 -3.219458 0
M  V30 25 Br 0.145762 -1.957410 -4.725646 0
M  V30 26 C 1.696024 -3.968188 -3.229267 0
M  V30 27 N 2.212549 -4.452846 -2.088823 0
M  V30 28 C 2.052076 -3.855656 -0.896281 0
M  V30 29 N 2.483522 -4.177547 0.343673 0
M  V30 30 C 2.964751 -4.094767 3.252424 0
M  V30 31 C 3.189815 -4.051178 4.630551 0
M  V30 32 H 1.242640 -1.839308 7.249232 0
M  V30 33 H 2.459528 -2.061726 8.530705 0
M  V30 34 H 2.756623 -0.911126 7.137708 0
M  V30 35 H 1.490343 -1.177592 5.317855 0
M  V30 36 H 1.117392 -1.307649 2.833603 0
M  V30 37 H -1.644536 -1.729049 -0.792823 0
M  V30 38 H -1.969552 -1.102722 -2.407643 0
M  V30 39 H -1.372640 0.350580 0.236136 0
M  V30 40 H -2.851947 0.446331 -0.733983 0
M  V30 41 H -1.284658 3.599029 -1.520830 0
M  V30 42 H -1.385940 2.854349 0.078163 0
M  V30 43 H -3.598349 2.049754 0.962885 0
M  V30 44 H -6.018891 2.329552 0.802533 0
M  V30 45 H -7.050084 3.351453 -1.258047 0
M  V30 46 H -3.240821 3.783745 -2.931812 0
M  V30 47 H 0.595761 2.330391 -1.463505 0
M  V30 48 H 0.041809 1.912034 -3.080264 0
M  V30 49 H 1.444239 0.166731 -2.814895 0
M  V30 50 H 1.516259 0.308376 -1.062565 0
M  V30 51 H 1.803939 -4.420096 -4.205440 0
M  V30 52 H 3.057375 -4.991729 0.655815 0
M  V30 53 H 3.387216 -4.919027 2.700930 0
M  V30 54 H 3.768471 -4.817766 5.130195 0
M  V30 END ATOM
M  V30 BEGIN BOND
M  V30 1 1 1 2
M  V30 2 1 2 3
M  V30 3 2 3 4
M  V30 4 1 4 5
M  V30 5 2 5 6
M  V30 6 1 6 7
M  V30 7 2 7 8
M  V30 8 1 8 9
M  V30 9 2 9 10
M  V30 10 1 10 11
M  V30 11 1 11 12
M  V30 12 1 12 13
M  V30 13 1 13 14
M  V30 14 1 14 15
M  V30 15 1 15 16
M  V30 16 2 16 17
M  V30 17 1 17 18
M  V30 18 2 18 19
M  V30 19 1 19 20
M  V30 20 2 20 21
M  V30 21 1 14 22
M  V30 22 1 22 23
M  V30 23 1 10 24
M  V30 24 1 24 25
M  V30 25 2 24 26
M  V30 26 1 26 27
M  V30 27 2 27 28
M  V30 28 1 28 29
M  V30 29 1 6 30
M  V30 30 2 30 31
M  V30 31 1 31 3
M  V30 32 1 29 7
M  V30 33 1 28 9
M  V30 34 1 23 11
M  V30 35 1 21 16
M  V30 36 1 1 32
M  V30 37 1 1 33
M  V30 38 1 1 34
M  V30 39 1 4 35
M  V30 40 1 5 36
M  V30 41 1 12 37
M  V30 42 1 12 38
M  V30 43 1 13 39
M  V30 44 1 13 40
M  V30 45 1 15 41
M  V30 46 1 15 42
M  V30 47 1 17 43
M  V30 48 1 18 44
M  V30 49 1 19 45
M  V30 50 1 21 46
M  V30 51 1 22 47
M  V30 52 1 22 48
M  V30 53 1 23 49
M  V30 54 1 23 50
M  V30 55 1 26 51
M  V30 56 1 29 52
M  V30 57 1 30 53
M  V30 58 1 31 54
M  V30 END BOND
M  V30 END CTAB
M  END
>  <Dataset>  (478) 
ChEMBL_Kinases

>  <Ligand_Instance>  (478) 
nan

>  <PDB_ID>  (478) 
nan

>  <Standardized_SMILES>  (478) 
COc1ccc(-c2nc3c(N4CCN(Cc5cccnc5)CC4)c(Br)cnc3[nH]2)cc1

>  <Name>  (478) 
nan

>  <Pocket>  (478) 
nan

>  <ATP_Site>  (478) 
nan

>  <Peripheral>  (478) 
nan

>  <Num_H_Atoms_ProtBoundConf>  (478) 
nan

>  <Num_Resolved_Atoms>  (478) 
nan

>  <Num_Not_Resolved_Atoms>  (478) 
nan

$$$$
CHEMBL1083774
     RDKit          3D

  0  0  0  0  0  0  0  0  0  0999 V3000
M  V30 BEGIN CTAB
M  V30 COUNTS 54 58 0 0 0
M  V30 BEGIN ATOM
M  V30 1 C 2.908447 -2.240104 7.329890 0
M  V30 2 O 3.237159 -3.355359 6.493235 0
M  V30 3 C 2.891169 -3.296079 5.148026 0
M  V30 4 C 2.246448 -2.186953 4.635698 0
M  V30 5 C 1.926204 -2.182033 3.290758 0
M  V30 6 C 2.256964 -3.283108 2.491096 0
M  V30 7 C 1.936249 -3.324699 1.051713 0
M  V30 8 N 1.302818 -2.304858 0.410366 0
M  V30 9 C 1.139758 -2.615706 -0.900139 0
M  V30 10 C 0.580507 -1.975880 -1.987126 0
M  V30 11 N 0.031617 -0.680875 -1.720874 0
M  V30 12 C -1.364663 -0.650970 -1.330459 0
M  V30 13 C -1.573909 0.370173 -0.230312 0
M  V30 14 N -0.783217 1.544401 -0.391720 0
M  V30 15 C -1.435913 2.761833 0.041151 0
M  V30 16 C -2.686791 3.052623 -0.684729 0
M  V30 17 C -4.024190 2.756754 -0.511873 0
M  V30 18 C -4.718806 3.323652 -1.552841 0
M  V30 19 C -6.195543 3.212559 -1.700403 0
M  V30 20 O -3.832637 3.931939 -2.314174 0
M  V30 21 N -2.639429 3.780734 -1.816860 0
M  V30 22 C -0.121653 1.687671 -1.649064 0
M  V30 23 C 0.824466 0.509763 -1.836377 0
M  V30 24 C 0.593534 -2.615234 -3.209396 0
M  V30 25 Br -0.202386 -1.659338 -4.665709 0
M  V30 26 C 1.158877 -3.870596 -3.326425 0
M  V30 27 N 1.690953 -4.447202 -2.228078 0
M  V30 28 C 1.705778 -3.870001 -1.012156 0
M  V30 29 N 2.192498 -4.312408 0.162281 0
M  V30 30 C 2.907459 -4.383341 3.045640 0
M  V30 31 C 3.241594 -4.413525 4.398809 0
M  V30 32 H 1.830544 -1.976173 7.169227 0
M  V30 33 H 2.979827 -2.511862 8.399872 0
M  V30 34 H 3.486787 -1.331893 7.060057 0
M  V30 35 H 1.986886 -1.336968 5.235005 0
M  V30 36 H 1.421287 -1.360151 2.796054 0
M  V30 37 H -1.698667 -1.631545 -0.925112 0
M  V30 38 H -2.032508 -0.457230 -2.205692 0
M  V30 39 H -1.243950 -0.141042 0.713858 0
M  V30 40 H -2.665276 0.531817 -0.167884 0
M  V30 41 H -1.734799 2.668076 1.125406 0
M  V30 42 H -0.746055 3.624478 0.023375 0
M  V30 43 H -4.333365 2.168983 0.344645 0
M  V30 44 H -6.536518 3.322699 -2.747701 0
M  V30 45 H -6.695970 3.979141 -1.068074 0
M  V30 46 H -6.540120 2.201774 -1.367958 0
M  V30 47 H 0.456302 2.633538 -1.613249 0
M  V30 48 H -0.892909 1.715824 -2.449219 0
M  V30 49 H 1.432721 0.585380 -2.737842 0
M  V30 50 H 1.511057 0.542632 -0.950850 0
M  V30 51 H 1.147153 -4.334933 -4.303563 0
M  V30 52 H 2.664330 -5.192285 0.399897 0
M  V30 53 H 3.154652 -5.224502 2.411569 0
M  V30 54 H 3.746187 -5.263043 4.836928 0
M  V30 END ATOM
M  V30 BEGIN BOND
M  V30 1 1 1 2
M  V30 2 1 2 3
M  V30 3 2 3 4
M  V30 4 1 4 5
M  V30 5 2 5 6
M  V30 6 1 6 7
M  V30 7 2 7 8
M  V30 8 1 8 9
M  V30 9 2 9 10
M  V30 10 1 10 11
M  V30 11 1 11 12
M  V30 12 1 12 13
M  V30 13 1 13 14
M  V30 14 1 14 15
M  V30 15 1 15 16
M  V30 16 1 16 17
M  V30 17 2 17 18
M  V30 18 1 18 19
M  V30 19 1 18 20
M  V30 20 1 20 21
M  V30 21 1 14 22
M  V30 22 1 22 23
M  V30 23 1 10 24
M  V30 24 1 24 25
M  V30 25 2 24 26
M  V30 26 1 26 27
M  V30 27 2 27 28
M  V30 28 1 28 29
M  V30 29 1 6 30
M  V30 30 2 30 31
M  V30 31 1 31 3
M  V30 32 1 29 7
M  V30 33 1 28 9
M  V30 34 1 23 11
M  V30 35 2 21 16
M  V30 36 1 1 32
M  V30 37 1 1 33
M  V30 38 1 1 34
M  V30 39 1 4 35
M  V30 40 1 5 36
M  V30 41 1 12 37
M  V30 42 1 12 38
M  V30 43 1 13 39
M  V30 44 1 13 40
M  V30 45 1 15 41
M  V30 46 1 15 42
M  V30 47 1 17 43
M  V30 48 1 19 44
M  V30 49 1 19 45
M  V30 50 1 19 46
M  V30 51 1 22 47
M  V30 52 1 22 48
M  V30 53 1 23 49
M  V30 54 1 23 50
M  V30 55 1 26 51
M  V30 56 1 29 52
M  V30 57 1 30 53
M  V30 58 1 31 54
M  V30 END BOND
M  V30 END CTAB
M  END
>  <Dataset>  (479) 
ChEMBL_Kinases

>  <Ligand_Instance>  (479) 
nan

>  <PDB_ID>  (479) 
nan

>  <Standardized_SMILES>  (479) 
COc1ccc(-c2nc3c(N4CCN(Cc5cc(C)on5)CC4)c(Br)cnc3[nH]2)cc1

>  <Name>  (479) 
nan

>  <Pocket>  (479) 
nan

>  <ATP_Site>  (479) 
nan

>  <Peripheral>  (479) 
nan

>  <Num_H_Atoms_ProtBoundConf>  (479) 
nan

>  <Num_Resolved_Atoms>  (479) 
nan

>  <Num_Not_Resolved_Atoms>  (479) 
nan

$$$$
CHEMBL1083773
     RDKit          3D

  0  0  0  0  0  0  0  0  0  0999 V3000
M  V30 BEGIN CTAB
M  V30 COUNTS 52 56 0 0 0
M  V30 BEGIN ATOM
M  V30 1 C 2.246818 -4.836624 4.955568 0
M  V30 2 O 2.003157 -5.479536 3.702182 0
M  V30 3 C 1.480510 -4.744276 2.646398 0
M  V30 4 C 1.153442 -3.403868 2.665209 0
M  V30 5 C 0.636784 -2.763120 1.556132 0
M  V30 6 C 0.446250 -3.505024 0.391821 0
M  V30 7 C -0.101087 -2.880637 -0.817766 0
M  V30 8 N -0.453052 -1.585821 -0.895606 0
M  V30 9 C -0.927007 -1.263732 -2.110790 0
M  V30 10 C -1.394713 -0.043869 -2.604733 0
M  V30 11 N -1.388634 1.077920 -1.714130 0
M  V30 12 C -0.326199 2.039822 -1.507936 0
M  V30 13 C 0.114730 1.899697 -0.086203 0
M  V30 14 N -0.947460 2.408911 0.766405 0
M  V30 15 C -0.516031 2.076486 2.138028 0
M  V30 16 C 0.688209 2.869697 2.545338 0
M  V30 17 C 1.167520 2.535137 3.987254 0
M  V30 18 C 2.024189 2.332436 2.746591 0
M  V30 19 C -2.148807 1.680591 0.547483 0
M  V30 20 C -2.518225 1.384111 -0.870261 0
M  V30 21 C -1.820003 -0.040655 -3.918432 0
M  V30 22 Br -2.461180 1.606808 -4.613337 0
M  V30 23 C -1.745574 -1.215143 -4.605708 0
M  V30 24 N -1.291633 -2.379444 -4.110860 0
M  V30 25 C -0.871337 -2.427238 -2.847735 0
M  V30 26 N -0.370043 -3.379538 -2.040469 0
M  V30 27 C 0.773965 -4.844847 0.375265 0
M  V30 28 C 1.298101 -5.510311 1.488919 0
M  V30 29 H 3.142449 -4.200569 4.805612 0
M  V30 30 H 2.484284 -5.548760 5.743431 0
M  V30 31 H 1.415809 -4.147412 5.210175 0
M  V30 32 H 1.324583 -2.889946 3.592804 0
M  V30 33 H 0.388715 -1.709803 1.598186 0
M  V30 34 H -0.763808 3.050090 -1.639498 0
M  V30 35 H 0.502215 1.904948 -2.236132 0
M  V30 36 H 1.082162 2.400552 0.114165 0
M  V30 37 H 0.266416 0.848722 0.252041 0
M  V30 38 H -1.321963 2.304322 2.873963 0
M  V30 39 H -0.326763 0.980131 2.236105 0
M  V30 40 H 0.596983 3.982946 2.394279 0
M  V30 41 H 1.394869 3.360544 4.664891 0
M  V30 42 H 0.749266 1.623836 4.462022 0
M  V30 43 H 2.327554 1.303731 2.574257 0
M  V30 44 H 2.881348 3.049157 2.659789 0
M  V30 45 H -2.981502 2.313078 0.976534 0
M  V30 46 H -2.143165 0.757889 1.156252 0
M  V30 47 H -3.161101 0.473528 -0.856512 0
M  V30 48 H -3.122914 2.190648 -1.321356 0
M  V30 49 H -2.077437 -1.213062 -5.630034 0
M  V30 50 H -0.195705 -4.379828 -2.282305 0
M  V30 51 H 0.607937 -5.389155 -0.559360 0
M  V30 52 H 1.541420 -6.570060 1.425757 0
M  V30 END ATOM
M  V30 BEGIN BOND
M  V30 1 1 1 2
M  V30 2 1 2 3
M  V30 3 2 3 4
M  V30 4 1 4 5
M  V30 5 2 5 6
M  V30 6 1 6 7
M  V30 7 2 7 8
M  V30 8 1 8 9
M  V30 9 2 9 10
M  V30 10 1 10 11
M  V30 11 1 11 12
M  V30 12 1 12 13
M  V30 13 1 13 14
M  V30 14 1 14 15
M  V30 15 1 15 16
M  V30 16 1 16 17
M  V30 17 1 17 18
M  V30 18 1 14 19
M  V30 19 1 19 20
M  V30 20 1 10 21
M  V30 21 1 21 22
M  V30 22 2 21 23
M  V30 23 1 23 24
M  V30 24 2 24 25
M  V30 25 1 25 26
M  V30 26 1 6 27
M  V30 27 2 27 28
M  V30 28 1 28 3
M  V30 29 1 26 7
M  V30 30 1 25 9
M  V30 31 1 20 11
M  V30 32 1 18 16
M  V30 33 1 1 29
M  V30 34 1 1 30
M  V30 35 1 1 31
M  V30 36 1 4 32
M  V30 37 1 5 33
M  V30 38 1 12 34
M  V30 39 1 12 35
M  V30 40 1 13 36
M  V30 41 1 13 37
M  V30 42 1 15 38
M  V30 43 1 15 39
M  V30 44 1 16 40
M  V30 45 1 17 41
M  V30 46 1 17 42
M  V30 47 1 18 43
M  V30 48 1 18 44
M  V30 49 1 19 45
M  V30 50 1 19 46
M  V30 51 1 20 47
M  V30 52 1 20 48
M  V30 53 1 23 49
M  V30 54 1 26 50
M  V30 55 1 27 51
M  V30 56 1 28 52
M  V30 END BOND
M  V30 END CTAB
M  END
>  <Dataset>  (480) 
ChEMBL_Kinases

>  <Ligand_Instance>  (480) 
nan

>  <PDB_ID>  (480) 
nan

>  <Standardized_SMILES>  (480) 
COc1ccc(-c2nc3c(N4CCN(CC5CC5)CC4)c(Br)cnc3[nH]2)cc1

>  <Name>  (480) 
nan

>  <Pocket>  (480) 
nan

>  <ATP_Site>  (480) 
nan

>  <Peripheral>  (480) 
nan

>  <Num_H_Atoms_ProtBoundConf>  (480) 
nan

>  <Num_Resolved_Atoms>  (480) 
nan

>  <Num_Not_Resolved_Atoms>  (480) 
nan

$$$$
CHEMBL1083772
     RDKit          3D

  0  0  0  0  0  0  0  0  0  0999 V3000
M  V30 BEGIN CTAB
M  V30 COUNTS 67 72 0 0 0
M  V30 BEGIN ATOM
M  V30 1 Cl 3.004241 -3.479909 5.017026 0
M  V30 2 C 2.963848 -1.747075 4.803776 0
M  V30 3 C 2.094154 -0.852214 5.381863 0
M  V30 4 C 2.178096 0.495621 5.122482 0
M  V30 5 C 3.145892 1.030967 4.261918 0
M  V30 6 C 3.051828 2.499654 4.155577 0
M  V30 7 N 2.086014 2.862619 3.185870 0
M  V30 8 C 2.398297 2.351478 1.884283 0
M  V30 9 C 1.138416 2.376812 1.048740 0
M  V30 10 N 0.487119 3.660677 1.119406 0
M  V30 11 C -0.829141 3.673502 0.565287 0
M  V30 12 C -1.693053 4.745021 0.568189 0
M  V30 13 Br -1.259422 6.373563 1.403007 0
M  V30 14 C -2.938801 4.780336 0.010744 0
M  V30 15 N -3.382590 3.658958 -0.608858 0
M  V30 16 C -2.596174 2.569580 -0.653248 0
M  V30 17 N -2.843973 1.376457 -1.214209 0
M  V30 18 C -1.778414 0.583674 -1.024129 0
M  V30 19 C -1.548746 -0.801900 -1.437952 0
M  V30 20 C -0.344072 -1.447224 -1.125941 0
M  V30 21 C -0.149390 -2.754093 -1.525734 0
M  V30 22 C -1.144629 -3.420287 -2.232491 0
M  V30 23 C -0.793988 -4.811472 -2.593442 0
M  V30 24 N -1.173863 -5.765367 -1.597226 0
M  V30 25 C -2.590114 -5.810070 -1.314889 0
M  V30 26 C -3.393591 -6.593332 -2.304951 0
M  V30 27 O -2.693980 -6.975593 -3.422788 0
M  V30 28 C -1.530930 -7.665654 -3.134194 0
M  V30 29 C -0.757379 -7.091752 -1.995187 0
M  V30 30 C -2.326671 -2.776826 -2.534866 0
M  V30 31 C -2.542551 -1.457234 -2.140036 0
M  V30 32 N -0.900186 1.330603 -0.342092 0
M  V30 33 C -1.347104 2.569021 -0.081719 0
M  V30 34 C 1.352307 4.602365 1.711523 0
M  V30 35 C 1.764518 4.239567 3.119147 0
M  V30 36 C 4.013266 0.120796 3.688375 0
M  V30 37 C 3.922222 -1.226692 3.953180 0
M  V30 38 H 1.360439 -1.300834 6.040265 0
M  V30 39 H 1.430844 1.063246 5.647759 0
M  V30 40 H 4.068170 2.851492 3.851296 0
M  V30 41 H 2.859083 2.944702 5.153307 0
M  V30 42 H 3.174498 2.926873 1.345779 0
M  V30 43 H 2.759338 1.276594 1.964205 0
M  V30 44 H 1.329153 2.057045 0.004318 0
M  V30 45 H 0.395255 1.652767 1.510939 0
M  V30 46 H -3.632927 5.600372 -0.003233 0
M  V30 47 H -3.709431 1.107073 -1.711301 0
M  V30 48 H 0.373680 -0.846257 -0.570829 0
M  V30 49 H 0.807112 -3.152861 -1.235495 0
M  V30 50 H -1.274588 -5.126776 -3.556370 0
M  V30 51 H 0.293054 -4.925774 -2.784137 0
M  V30 52 H -3.048516 -4.806048 -1.187376 0
M  V30 53 H -2.672442 -6.280459 -0.296395 0
M  V30 54 H -3.801921 -7.530182 -1.826875 0
M  V30 55 H -4.286895 -6.016220 -2.630047 0
M  V30 56 H -1.850271 -8.730187 -2.939377 0
M  V30 57 H -0.942567 -7.722451 -4.068981 0
M  V30 58 H 0.326943 -7.141399 -2.234958 0
M  V30 59 H -0.922705 -7.777173 -1.114514 0
M  V30 60 H -3.062541 -3.342362 -3.085507 0
M  V30 61 H -3.478213 -0.975834 -2.389777 0
M  V30 62 H 1.060259 5.675285 1.642969 0
M  V30 63 H 2.315442 4.608706 1.096212 0
M  V30 64 H 2.687926 4.813687 3.427767 0
M  V30 65 H 1.005080 4.555095 3.868008 0
M  V30 66 H 4.740381 0.601488 3.041050 0
M  V30 67 H 4.665666 -1.784399 3.429635 0
M  V30 END ATOM
M  V30 BEGIN BOND
M  V30 1 1 1 2
M  V30 2 2 2 3
M  V30 3 1 3 4
M  V30 4 2 4 5
M  V30 5 1 5 6
M  V30 6 1 6 7
M  V30 7 1 7 8
M  V30 8 1 8 9
M  V30 9 1 9 10
M  V30 10 1 10 11
M  V30 11 2 11 12
M  V30 12 1 12 13
M  V30 13 1 12 14
M  V30 14 2 14 15
M  V30 15 1 15 16
M  V30 16 1 16 17
M  V30 17 1 17 18
M  V30 18 1 18 19
M  V30 19 2 19 20
M  V30 20 1 20 21
M  V30 21 2 21 22
M  V30 22 1 22 23
M  V30 23 1 23 24
M  V30 24 1 24 25
M  V30 25 1 25 26
M  V30 26 1 26 27
M  V30 27 1 27 28
M  V30 28 1 28 29
M  V30 29 1 22 30
M  V30 30 2 30 31
M  V30 31 2 18 32
M  V30 32 1 32 33
M  V30 33 1 10 34
M  V30 34 1 34 35
M  V30 35 1 5 36
M  V30 36 2 36 37
M  V30 37 1 37 2
M  V30 38 1 35 7
M  V30 39 1 33 11
M  V30 40 2 33 16
M  V30 41 1 31 19
M  V30 42 1 29 24
M  V30 43 1 3 38
M  V30 44 1 4 39
M  V30 45 1 6 40
M  V30 46 1 6 41
M  V30 47 1 8 42
M  V30 48 1 8 43
M  V30 49 1 9 44
M  V30 50 1 9 45
M  V30 51 1 14 46
M  V30 52 1 17 47
M  V30 53 1 20 48
M  V30 54 1 21 49
M  V30 55 1 23 50
M  V30 56 1 23 51
M  V30 57 1 25 52
M  V30 58 1 25 53
M  V30 59 1 26 54
M  V30 60 1 26 55
M  V30 61 1 28 56
M  V30 62 1 28 57
M  V30 63 1 29 58
M  V30 64 1 29 59
M  V30 65 1 30 60
M  V30 66 1 31 61
M  V30 67 1 34 62
M  V30 68 1 34 63
M  V30 69 1 35 64
M  V30 70 1 35 65
M  V30 71 1 36 66
M  V30 72 1 37 67
M  V30 END BOND
M  V30 END CTAB
M  END
>  <Dataset>  (481) 
ChEMBL_Kinases

>  <Ligand_Instance>  (481) 
nan

>  <PDB_ID>  (481) 
nan

>  <Standardized_SMILES>  (481) 
Clc1ccc(CN2CCN(c3c(Br)cnc4[nH]c(-c5ccc(CN6CCOCC6)cc5)nc34)CC2)cc1

>  <Name>  (481) 
nan

>  <Pocket>  (481) 
nan

>  <ATP_Site>  (481) 
nan

>  <Peripheral>  (481) 
nan

>  <Num_H_Atoms_ProtBoundConf>  (481) 
nan

>  <Num_Resolved_Atoms>  (481) 
nan

>  <Num_Not_Resolved_Atoms>  (481) 
nan

$$$$
CHEMBL1083771
     RDKit          3D

  0  0  0  0  0  0  0  0  0  0999 V3000
M  V30 BEGIN CTAB
M  V30 COUNTS 63 67 0 0 0
M  V30 BEGIN ATOM
M  V30 1 C 3.007669 0.005073 6.343110 0
M  V30 2 N 3.283371 1.233940 5.640689 0
M  V30 3 C 3.805266 2.410526 6.328245 0
M  V30 4 C 3.034153 1.275834 4.246087 0
M  V30 5 C 2.545680 0.124398 3.634614 0
M  V30 6 C 2.276756 0.105087 2.261760 0
M  V30 7 C 2.504587 1.255273 1.514417 0
M  V30 8 C 2.247202 1.317060 0.073079 0
M  V30 9 N 1.792391 0.296313 -0.652927 0
M  V30 10 C 1.630497 0.568947 -1.947954 0
M  V30 11 C 1.210510 -0.058028 -3.098235 0
M  V30 12 N 0.804491 -1.417700 -3.059848 0
M  V30 13 C 0.831761 -2.192201 -1.838289 0
M  V30 14 C -0.607884 -2.309451 -1.379364 0
M  V30 15 N -1.556274 -2.247969 -2.421101 0
M  V30 16 C -2.661685 -1.371845 -2.270511 0
M  V30 17 C -3.660311 -1.709610 -1.266611 0
M  V30 18 O -4.546011 -0.783849 -1.290214 0
M  V30 19 N -3.842417 -2.749057 -0.355053 0
M  V30 20 C -4.867565 -2.977219 0.588091 0
M  V30 21 C -5.959440 -2.183125 0.837184 0
M  V30 22 C -6.940167 -2.435338 1.757325 0
M  V30 23 C -6.829952 -3.595808 2.511230 0
M  V30 24 C -5.754207 -4.431417 2.304024 0
M  V30 25 C -4.810378 -4.106371 1.359276 0
M  V30 26 C -1.153433 -2.579953 -3.734048 0
M  V30 27 C 0.296224 -2.296146 -4.068882 0
M  V30 28 C 1.240123 0.745199 -4.211970 0
M  V30 29 Cl 0.742971 0.174608 -5.766377 0
M  V30 30 C 1.633956 2.053989 -4.272726 0
M  V30 31 N 2.045886 2.645080 -3.110066 0
M  V30 32 C 2.030942 1.884292 -1.985329 0
M  V30 33 N 2.400764 2.336110 -0.780687 0
M  V30 34 C 2.989451 2.416646 2.090328 0
M  V30 35 C 3.240371 2.385336 3.453455 0
M  V30 36 H 3.469127 0.089633 7.354831 0
M  V30 37 H 3.549450 -0.834361 5.854253 0
M  V30 38 H 1.925103 -0.181496 6.470631 0
M  V30 39 H 4.391521 2.023359 7.212541 0
M  V30 40 H 4.606802 2.829681 5.659552 0
M  V30 41 H 3.039027 3.138382 6.608585 0
M  V30 42 H 2.340130 -0.811557 4.136583 0
M  V30 43 H 1.892042 -0.793171 1.762559 0
M  V30 44 H 1.474172 -1.826896 -1.045555 0
M  V30 45 H 1.134502 -3.271219 -2.066565 0
M  V30 46 H -0.788096 -1.411987 -0.718752 0
M  V30 47 H -0.743074 -3.201547 -0.731441 0
M  V30 48 H -3.209246 -1.349521 -3.264732 0
M  V30 49 H -2.249651 -0.344959 -2.086572 0
M  V30 50 H -3.071893 -3.424727 -0.438647 0
M  V30 51 H -6.093557 -1.280341 0.288738 0
M  V30 52 H -7.779724 -1.779717 1.915845 0
M  V30 53 H -7.584860 -3.830517 3.249187 0
M  V30 54 H -5.661344 -5.323721 2.878318 0
M  V30 55 H -3.977279 -4.800183 1.232379 0
M  V30 56 H -1.747311 -1.935134 -4.447348 0
M  V30 57 H -1.453200 -3.622425 -3.994452 0
M  V30 58 H 0.458023 -2.045627 -5.104912 0
M  V30 59 H 0.820383 -3.301965 -3.942477 0
M  V30 60 H 1.658220 2.682289 -5.139374 0
M  V30 61 H 2.747192 3.268895 -0.481498 0
M  V30 62 H 3.171353 3.323268 1.511101 0
M  V30 63 H 3.621420 3.294376 3.914794 0
M  V30 END ATOM
M  V30 BEGIN BOND
M  V30 1 1 1 2
M  V30 2 1 2 3
M  V30 3 1 2 4
M  V30 4 2 4 5
M  V30 5 1 5 6
M  V30 6 2 6 7
M  V30 7 1 7 8
M  V30 8 2 8 9
M  V30 9 1 9 10
M  V30 10 2 10 11
M  V30 11 1 11 12
M  V30 12 1 12 13
M  V30 13 1 13 14
M  V30 14 1 14 15
M  V30 15 1 15 16
M  V30 16 1 16 17
M  V30 17 2 17 18
M  V30 18 1 17 19
M  V30 19 1 19 20
M  V30 20 2 20 21
M  V30 21 1 21 22
M  V30 22 2 22 23
M  V30 23 1 23 24
M  V30 24 2 24 25
M  V30 25 1 15 26
M  V30 26 1 26 27
M  V30 27 1 11 28
M  V30 28 1 28 29
M  V30 29 2 28 30
M  V30 30 1 30 31
M  V30 31 2 31 32
M  V30 32 1 32 33
M  V30 33 1 7 34
M  V30 34 2 34 35
M  V30 35 1 35 4
M  V30 36 1 33 8
M  V30 37 1 32 10
M  V30 38 1 27 12
M  V30 39 1 25 20
M  V30 40 1 1 36
M  V30 41 1 1 37
M  V30 42 1 1 38
M  V30 43 1 3 39
M  V30 44 1 3 40
M  V30 45 1 3 41
M  V30 46 1 5 42
M  V30 47 1 6 43
M  V30 48 1 13 44
M  V30 49 1 13 45
M  V30 50 1 14 46
M  V30 51 1 14 47
M  V30 52 1 16 48
M  V30 53 1 16 49
M  V30 54 1 19 50
M  V30 55 1 21 51
M  V30 56 1 22 52
M  V30 57 1 23 53
M  V30 58 1 24 54
M  V30 59 1 25 55
M  V30 60 1 26 56
M  V30 61 1 26 57
M  V30 62 1 27 58
M  V30 63 1 27 59
M  V30 64 1 30 60
M  V30 65 1 33 61
M  V30 66 1 34 62
M  V30 67 1 35 63
M  V30 END BOND
M  V30 END CTAB
M  END
>  <Dataset>  (482) 
ChEMBL_Kinases

>  <Ligand_Instance>  (482) 
nan

>  <PDB_ID>  (482) 
nan

>  <Standardized_SMILES>  (482) 
CN(C)c1ccc(-c2nc3c(N4CCN(CC(=O)Nc5ccccc5)CC4)c(Cl)cnc3[nH]2)cc1

>  <Name>  (482) 
nan

>  <Pocket>  (482) 
nan

>  <ATP_Site>  (482) 
nan

>  <Peripheral>  (482) 
nan

>  <Num_H_Atoms_ProtBoundConf>  (482) 
nan

>  <Num_Resolved_Atoms>  (482) 
nan

>  <Num_Not_Resolved_Atoms>  (482) 
nan

$$$$
CHEMBL1083491
     RDKit          3D

  0  0  0  0  0  0  0  0  0  0999 V3000
M  V30 BEGIN CTAB
M  V30 COUNTS 58 62 0 0 0
M  V30 BEGIN ATOM
M  V30 1 C 4.385808 1.974043 5.342336 0
M  V30 2 N 5.028049 0.920136 4.579821 0
M  V30 3 C 6.390912 0.581724 4.941128 0
M  V30 4 C 4.393159 0.219645 3.516586 0
M  V30 5 C 5.083392 -0.787096 2.828970 0
M  V30 6 C 4.488641 -1.483048 1.791209 0
M  V30 7 C 3.191603 -1.139456 1.468936 0
M  V30 8 C 2.560405 -1.871378 0.374163 0
M  V30 9 N 1.323248 -1.714138 -0.109860 0
M  V30 10 C 1.022563 -2.522064 -1.110663 0
M  V30 11 C -0.041672 -2.787884 -1.944278 0
M  V30 12 N -1.239857 -2.035572 -1.794551 0
M  V30 13 C -1.129469 -1.046766 -0.749171 0
M  V30 14 C -2.403317 -0.266498 -0.560116 0
M  V30 15 N -3.456442 -1.225629 -0.249380 0
M  V30 16 C -4.633604 -0.647318 0.300083 0
M  V30 17 C -5.309936 0.353501 -0.532344 0
M  V30 18 C -6.311781 0.219774 -1.454595 0
M  V30 19 C -6.795113 1.320444 -2.130849 0
M  V30 20 N -6.306435 2.562978 -1.914511 0
M  V30 21 C -5.314820 2.732923 -1.008927 0
M  V30 22 C -4.819379 1.635814 -0.322013 0
M  V30 23 C -3.645504 -2.155138 -1.323942 0
M  V30 24 C -2.541280 -1.975319 -2.383106 0
M  V30 25 C 0.150085 -3.767106 -2.864903 0
M  V30 26 Br -1.160990 -4.288604 -4.107718 0
M  V30 27 C 1.299165 -4.507982 -3.036069 0
M  V30 28 N 2.338345 -4.222514 -2.194907 0
M  V30 29 C 2.193456 -3.269270 -1.277077 0
M  V30 30 N 3.089024 -2.851858 -0.372257 0
M  V30 31 C 2.472329 -0.155737 2.117296 0
M  V30 32 C 3.096925 0.518982 3.148574 0
M  V30 33 H 3.319256 1.676035 5.469427 0
M  V30 34 H 4.795168 2.028453 6.382142 0
M  V30 35 H 4.423241 2.948242 4.836171 0
M  V30 36 H 6.425736 -0.537328 5.053095 0
M  V30 37 H 7.116409 0.806589 4.134933 0
M  V30 38 H 6.697973 0.990453 5.901894 0
M  V30 39 H 6.101457 -1.057200 3.081569 0
M  V30 40 H 5.028354 -2.246220 1.278618 0
M  V30 41 H -0.313766 -0.318358 -0.973274 0
M  V30 42 H -0.976372 -1.559792 0.249361 0
M  V30 43 H -2.263196 0.298690 0.408612 0
M  V30 44 H -2.674443 0.401119 -1.375267 0
M  V30 45 H -4.449109 -0.257653 1.340821 0
M  V30 46 H -5.377392 -1.476242 0.471122 0
M  V30 47 H -6.658732 -0.796322 -1.577192 0
M  V30 48 H -7.574677 1.102825 -2.826126 0
M  V30 49 H -4.964923 3.747505 -0.878765 0
M  V30 50 H -4.040920 1.910058 0.361000 0
M  V30 51 H -3.691657 -3.214860 -1.030363 0
M  V30 52 H -4.579015 -1.914595 -1.865011 0
M  V30 53 H -2.733158 -0.951980 -2.834551 0
M  V30 54 H -2.776211 -2.758037 -3.121812 0
M  V30 55 H 1.498834 -5.287933 -3.744587 0
M  V30 56 H 4.058198 -3.210755 -0.239085 0
M  V30 57 H 1.443022 0.036076 1.777230 0
M  V30 58 H 2.513021 1.283785 3.639441 0
M  V30 END ATOM
M  V30 BEGIN BOND
M  V30 1 1 1 2
M  V30 2 1 2 3
M  V30 3 1 2 4
M  V30 4 2 4 5
M  V30 5 1 5 6
M  V30 6 2 6 7
M  V30 7 1 7 8
M  V30 8 2 8 9
M  V30 9 1 9 10
M  V30 10 2 10 11
M  V30 11 1 11 12
M  V30 12 1 12 13
M  V30 13 1 13 14
M  V30 14 1 14 15
M  V30 15 1 15 16
M  V30 16 1 16 17
M  V30 17 2 17 18
M  V30 18 1 18 19
M  V30 19 2 19 20
M  V30 20 1 20 21
M  V30 21 2 21 22
M  V30 22 1 15 23
M  V30 23 1 23 24
M  V30 24 1 11 25
M  V30 25 1 25 26
M  V30 26 2 25 27
M  V30 27 1 27 28
M  V30 28 2 28 29
M  V30 29 1 29 30
M  V30 30 1 7 31
M  V30 31 2 31 32
M  V30 32 1 32 4
M  V30 33 1 30 8
M  V30 34 1 29 10
M  V30 35 1 24 12
M  V30 36 1 22 17
M  V30 37 1 1 33
M  V30 38 1 1 34
M  V30 39 1 1 35
M  V30 40 1 3 36
M  V30 41 1 3 37
M  V30 42 1 3 38
M  V30 43 1 5 39
M  V30 44 1 6 40
M  V30 45 1 13 41
M  V30 46 1 13 42
M  V30 47 1 14 43
M  V30 48 1 14 44
M  V30 49 1 16 45
M  V30 50 1 16 46
M  V30 51 1 18 47
M  V30 52 1 19 48
M  V30 53 1 21 49
M  V30 54 1 22 50
M  V30 55 1 23 51
M  V30 56 1 23 52
M  V30 57 1 24 53
M  V30 58 1 24 54
M  V30 59 1 27 55
M  V30 60 1 30 56
M  V30 61 1 31 57
M  V30 62 1 32 58
M  V30 END BOND
M  V30 END CTAB
M  END
>  <Dataset>  (483) 
ChEMBL_Kinases

>  <Ligand_Instance>  (483) 
nan

>  <PDB_ID>  (483) 
nan

>  <Standardized_SMILES>  (483) 
CN(C)c1ccc(-c2nc3c(N4CCN(Cc5ccncc5)CC4)c(Br)cnc3[nH]2)cc1

>  <Name>  (483) 
nan

>  <Pocket>  (483) 
nan

>  <ATP_Site>  (483) 
nan

>  <Peripheral>  (483) 
nan

>  <Num_H_Atoms_ProtBoundConf>  (483) 
nan

>  <Num_Resolved_Atoms>  (483) 
nan

>  <Num_Not_Resolved_Atoms>  (483) 
nan

$$$$
CHEMBL1083490
     RDKit          3D

  0  0  0  0  0  0  0  0  0  0999 V3000
M  V30 BEGIN CTAB
M  V30 COUNTS 62 66 0 0 0
M  V30 BEGIN ATOM
M  V30 1 C -0.316763 -0.603971 5.144750 0
M  V30 2 C 0.593655 0.576210 4.951372 0
M  V30 3 C 1.996996 0.040959 4.852361 0
M  V30 4 C 2.899940 1.015763 4.420149 0
M  V30 5 C 4.251414 0.751867 4.254578 0
M  V30 6 C 4.678034 -0.519412 4.534203 0
M  V30 7 C 3.791568 -1.490231 4.962373 0
M  V30 8 C 2.445255 -1.232987 5.128884 0
M  V30 9 N 0.360644 1.332025 3.763113 0
M  V30 10 C 0.507914 0.586924 2.552533 0
M  V30 11 C -0.897411 0.537027 1.924840 0
M  V30 12 N -1.175883 1.877126 1.455684 0
M  V30 13 C -1.429433 2.268139 0.130085 0
M  V30 14 C -1.679900 3.565352 -0.238562 0
M  V30 15 Cl -1.708424 4.877149 0.887160 0
M  V30 16 C -1.931467 3.972162 -1.516270 0
M  V30 17 N -1.948162 3.069041 -2.542936 0
M  V30 18 C -1.707669 1.770784 -2.242480 0
M  V30 19 N -1.675838 0.724755 -3.083410 0
M  V30 20 C -1.401890 -0.347094 -2.325671 0
M  V30 21 C -1.267634 -1.717077 -2.805562 0
M  V30 22 C -1.437464 -1.922648 -4.157145 0
M  V30 23 C -1.328616 -3.190132 -4.701714 0
M  V30 24 C -1.042725 -4.267893 -3.862313 0
M  V30 25 N -0.919054 -5.592296 -4.365765 0
M  V30 26 C -0.619987 -6.682063 -3.448695 0
M  V30 27 C -1.088363 -5.850052 -5.769161 0
M  V30 28 C -0.884273 -3.994490 -2.519219 0
M  V30 29 C -0.983914 -2.748288 -1.933881 0
M  V30 30 N -1.276771 0.074217 -1.061393 0
M  V30 31 C -1.457316 1.398546 -0.937932 0
M  V30 32 C -1.166578 2.803225 2.547920 0
M  V30 33 C -0.865450 2.062969 3.850491 0
M  V30 34 H -1.381230 -0.348261 5.134744 0
M  V30 35 H -0.085362 -1.454249 4.474370 0
M  V30 36 H -0.102177 -0.977562 6.188580 0
M  V30 37 H 0.484394 1.228639 5.833869 0
M  V30 38 H 2.624050 2.050522 4.179805 0
M  V30 39 H 4.945704 1.495669 3.923959 0
M  V30 40 H 5.729401 -0.750750 4.412584 0
M  V30 41 H 4.107638 -2.501741 5.188931 0
M  V30 42 H 1.675780 -1.897288 5.450728 0
M  V30 43 H 0.946698 -0.409273 2.648724 0
M  V30 44 H 1.121275 1.173957 1.818387 0
M  V30 45 H -0.827131 -0.229077 1.156891 0
M  V30 46 H -1.675198 0.301120 2.685329 0
M  V30 47 H -2.133013 4.979251 -1.850315 0
M  V30 48 H -1.834590 0.754460 -4.118757 0
M  V30 49 H -1.662853 -1.130743 -4.877478 0
M  V30 50 H -1.462170 -3.351283 -5.763935 0
M  V30 51 H 0.378689 -6.598476 -2.982788 0
M  V30 52 H -0.837574 -7.669318 -3.898765 0
M  V30 53 H -1.360626 -6.597441 -2.600235 0
M  V30 54 H -1.314201 -6.925369 -5.979326 0
M  V30 55 H -0.143961 -5.649233 -6.350499 0
M  V30 56 H -1.921831 -5.288169 -6.208297 0
M  V30 57 H -0.661779 -4.829558 -1.862346 0
M  V30 58 H -0.850406 -2.592117 -0.876405 0
M  V30 59 H -0.329367 3.559664 2.494336 0
M  V30 60 H -2.158394 3.276847 2.738208 0
M  V30 61 H -1.724925 1.529569 4.259751 0
M  V30 62 H -0.662454 2.882367 4.615273 0
M  V30 END ATOM
M  V30 BEGIN BOND
M  V30 1 1 1 2
M  V30 2 1 2 3
M  V30 3 2 3 4
M  V30 4 1 4 5
M  V30 5 2 5 6
M  V30 6 1 6 7
M  V30 7 2 7 8
M  V30 8 1 2 9
M  V30 9 1 9 10
M  V30 10 1 10 11
M  V30 11 1 11 12
M  V30 12 1 12 13
M  V30 13 2 13 14
M  V30 14 1 14 15
M  V30 15 1 14 16
M  V30 16 2 16 17
M  V30 17 1 17 18
M  V30 18 1 18 19
M  V30 19 1 19 20
M  V30 20 1 20 21
M  V30 21 2 21 22
M  V30 22 1 22 23
M  V30 23 2 23 24
M  V30 24 1 24 25
M  V30 25 1 25 26
M  V30 26 1 25 27
M  V30 27 1 24 28
M  V30 28 2 28 29
M  V30 29 2 20 30
M  V30 30 1 30 31
M  V30 31 1 12 32
M  V30 32 1 32 33
M  V30 33 1 8 3
M  V30 34 1 33 9
M  V30 35 1 31 13
M  V30 36 2 31 18
M  V30 37 1 29 21
M  V30 38 1 1 34
M  V30 39 1 1 35
M  V30 40 1 1 36
M  V30 41 1 2 37
M  V30 42 1 4 38
M  V30 43 1 5 39
M  V30 44 1 6 40
M  V30 45 1 7 41
M  V30 46 1 8 42
M  V30 47 1 10 43
M  V30 48 1 10 44
M  V30 49 1 11 45
M  V30 50 1 11 46
M  V30 51 1 16 47
M  V30 52 1 19 48
M  V30 53 1 22 49
M  V30 54 1 23 50
M  V30 55 1 26 51
M  V30 56 1 26 52
M  V30 57 1 26 53
M  V30 58 1 27 54
M  V30 59 1 27 55
M  V30 60 1 27 56
M  V30 61 1 28 57
M  V30 62 1 29 58
M  V30 63 1 32 59
M  V30 64 1 32 60
M  V30 65 1 33 61
M  V30 66 1 33 62
M  V30 END BOND
M  V30 END CTAB
M  END
>  <Dataset>  (484) 
ChEMBL_Kinases

>  <Ligand_Instance>  (484) 
nan

>  <PDB_ID>  (484) 
nan

>  <Standardized_SMILES>  (484) 
CC(c1ccccc1)N1CCN(c2c(Cl)cnc3[nH]c(-c4ccc(N(C)C)cc4)nc23)CC1

>  <Name>  (484) 
nan

>  <Pocket>  (484) 
nan

>  <ATP_Site>  (484) 
nan

>  <Peripheral>  (484) 
nan

>  <Num_H_Atoms_ProtBoundConf>  (484) 
nan

>  <Num_Resolved_Atoms>  (484) 
nan

>  <Num_Not_Resolved_Atoms>  (484) 
nan

$$$$
CHEMBL1083486
     RDKit          3D

  0  0  0  0  0  0  0  0  0  0999 V3000
M  V30 BEGIN CTAB
M  V30 COUNTS 55 59 0 0 0
M  V30 BEGIN ATOM
M  V30 1 C 0.616387 -3.022630 4.997540 0
M  V30 2 C 1.158094 -2.066336 4.003937 0
M  V30 3 C 1.983568 -1.019169 4.436197 0
M  V30 4 C 2.550825 -0.063145 3.628486 0
M  V30 5 C 2.260169 -0.178076 2.290412 0
M  V30 6 N 2.811500 0.775736 1.390185 0
M  V30 7 C 1.907305 1.875542 1.262316 0
M  V30 8 O 0.869966 1.711147 1.974408 0
M  V30 9 C 2.162486 3.048307 0.405288 0
M  V30 10 C 3.286224 3.244742 -0.376931 0
M  V30 11 C 3.322583 4.421405 -1.107031 0
M  V30 12 Cl 4.767134 4.641622 -2.093104 0
M  V30 13 C 2.343951 5.365899 -1.097642 0
M  V30 14 C 1.237567 5.159716 -0.319806 0
M  V30 15 C 0.127205 6.157895 -0.264916 0
M  V30 16 F 0.470927 7.172945 0.615787 0
M  V30 17 F -0.007273 6.723542 -1.497892 0
M  V30 18 F -1.049810 5.568907 0.135184 0
M  V30 19 C 1.159991 3.999417 0.424791 0
M  V30 20 C 1.454943 -1.194056 1.842599 0
M  V30 21 C 0.890071 -2.149369 2.661867 0
M  V30 22 C 0.059512 -3.176218 2.068561 0
M  V30 23 N -0.196221 -3.221996 0.751696 0
M  V30 24 C -0.982104 -4.237734 0.392977 0
M  V30 25 C -1.264241 -4.906814 1.547011 0
M  V30 26 C -2.077993 -5.973893 1.240244 0
M  V30 27 N -2.266989 -5.918665 -0.108006 0
M  V30 28 N -1.605009 -4.870846 -0.615911 0
M  V30 29 C -1.532953 -4.440983 -2.001699 0
M  V30 30 C -2.617842 -3.480786 -2.348157 0
M  V30 31 C -2.380952 -2.113241 -2.175391 0
M  V30 32 C -3.339773 -1.162446 -2.475325 0
M  V30 33 C -4.554109 -1.606686 -2.956682 0
M  V30 34 C -4.848229 -2.954419 -3.149625 0
M  V30 35 C -3.856354 -3.866369 -2.834941 0
M  V30 36 N -0.621061 -4.233150 2.504704 0
M  V30 37 H 1.020067 -4.030048 4.950865 0
M  V30 38 H -0.484119 -2.923000 5.103885 0
M  V30 39 H 0.979781 -2.643392 6.011316 0
M  V30 40 H 2.221458 -0.919468 5.504327 0
M  V30 41 H 3.171902 0.710244 4.021362 0
M  V30 42 H 3.715772 0.812335 0.833689 0
M  V30 43 H 4.024114 2.476974 -0.350518 0
M  V30 44 H 2.410967 6.275329 -1.684922 0
M  V30 45 H 0.250636 3.878666 1.034777 0
M  V30 46 H 1.288226 -1.191521 0.755181 0
M  V30 47 H -2.474351 -6.695645 1.942025 0
M  V30 48 H -1.527977 -5.313307 -2.684181 0
M  V30 49 H -0.566891 -3.906084 -2.173158 0
M  V30 50 H -1.394265 -1.824168 -1.788698 0
M  V30 51 H -3.115961 -0.114189 -2.327109 0
M  V30 52 H -5.295112 -0.849672 -3.187115 0
M  V30 53 H -5.807075 -3.228584 -3.525000 0
M  V30 54 H -4.041918 -4.928369 -2.969707 0
M  V30 55 H -0.669665 -4.536831 3.489093 0
M  V30 END ATOM
M  V30 BEGIN BOND
M  V30 1 1 1 2
M  V30 2 2 2 3
M  V30 3 1 3 4
M  V30 4 2 4 5
M  V30 5 1 5 6
M  V30 6 1 6 7
M  V30 7 2 7 8
M  V30 8 1 7 9
M  V30 9 2 9 10
M  V30 10 1 10 11
M  V30 11 1 11 12
M  V30 12 2 11 13
M  V30 13 1 13 14
M  V30 14 1 14 15
M  V30 15 1 15 16
M  V30 16 1 15 17
M  V30 17 1 15 18
M  V30 18 2 14 19
M  V30 19 1 5 20
M  V30 20 2 20 21
M  V30 21 1 21 22
M  V30 22 2 22 23
M  V30 23 1 23 24
M  V30 24 2 24 25
M  V30 25 1 25 26
M  V30 26 2 26 27
M  V30 27 1 27 28
M  V30 28 1 28 29
M  V30 29 1 29 30
M  V30 30 2 30 31
M  V30 31 1 31 32
M  V30 32 2 32 33
M  V30 33 1 33 34
M  V30 34 2 34 35
M  V30 35 1 25 36
M  V30 36 1 21 2
M  V30 37 1 36 22
M  V30 38 1 19 9
M  V30 39 1 28 24
M  V30 40 1 35 30
M  V30 41 1 1 37
M  V30 42 1 1 38
M  V30 43 1 1 39
M  V30 44 1 3 40
M  V30 45 1 4 41
M  V30 46 1 6 42
M  V30 47 1 10 43
M  V30 48 1 13 44
M  V30 49 1 19 45
M  V30 50 1 20 46
M  V30 51 1 26 47
M  V30 52 1 29 48
M  V30 53 1 29 49
M  V30 54 1 31 50
M  V30 55 1 32 51
M  V30 56 1 33 52
M  V30 57 1 34 53
M  V30 58 1 35 54
M  V30 59 1 36 55
M  V30 END BOND
M  V30 END CTAB
M  END
>  <Dataset>  (485) 
ChEMBL_Kinases

>  <Ligand_Instance>  (485) 
nan

>  <PDB_ID>  (485) 
nan

>  <Standardized_SMILES>  (485) 
Cc1ccc(NC(=O)c2cc(Cl)cc(C(F)(F)F)c2)cc1-c1nc2c(cnn2Cc2ccccc2)[nH]1

>  <Name>  (485) 
nan

>  <Pocket>  (485) 
nan

>  <ATP_Site>  (485) 
nan

>  <Peripheral>  (485) 
nan

>  <Num_H_Atoms_ProtBoundConf>  (485) 
nan

>  <Num_Resolved_Atoms>  (485) 
nan

>  <Num_Not_Resolved_Atoms>  (485) 
nan

$$$$
CHEMBL1082237
     RDKit          3D

  0  0  0  0  0  0  0  0  0  0999 V3000
M  V30 BEGIN CTAB
M  V30 COUNTS 39 41 0 0 0
M  V30 BEGIN ATOM
M  V30 1 C -2.336009 -6.669982 1.431562 0
M  V30 2 C -0.990813 -6.747224 2.068383 0
M  V30 3 C -0.567694 -5.416688 2.623797 0
M  V30 4 C -0.501397 -4.407351 1.570991 0
M  V30 5 O -0.793286 -4.736742 0.370613 0
M  V30 6 N -0.130870 -3.049100 1.761267 0
M  V30 7 C -0.100924 -2.149465 0.658174 0
M  V30 8 N -0.389202 -2.403673 -0.626604 0
M  V30 9 N -0.245508 -1.305747 -1.366202 0
M  V30 10 C 0.146476 -0.299608 -0.558213 0
M  V30 11 C 0.434831 1.033648 -0.806761 0
M  V30 12 C 0.821426 1.850278 0.240319 0
M  V30 13 C 1.154013 3.272812 0.116844 0
M  V30 14 C 0.912307 4.140277 1.152494 0
M  V30 15 C 1.209626 5.486982 1.077982 0
M  V30 16 C 1.773660 6.011198 -0.072376 0
M  V30 17 O 2.111998 7.362530 -0.246867 0
M  V30 18 C 2.012016 5.129478 -1.106744 0
M  V30 19 C 1.721574 3.785578 -1.048130 0
M  V30 20 C 0.912413 1.319505 1.514701 0
M  V30 21 C 0.627430 -0.017955 1.788426 0
M  V30 22 C 0.242444 -0.814598 0.721800 0
M  V30 23 H -2.918234 -5.773104 1.708848 0
M  V30 24 H -2.926851 -7.556790 1.726214 0
M  V30 25 H -2.194548 -6.614934 0.322343 0
M  V30 26 H -1.064425 -7.429841 2.956925 0
M  V30 27 H -0.220074 -7.219570 1.422968 0
M  V30 28 H 0.349832 -5.471557 3.217166 0
M  V30 29 H -1.379336 -5.105011 3.338365 0
M  V30 30 H 0.112398 -2.732657 2.703362 0
M  V30 31 H -0.411310 -1.239405 -2.406406 0
M  V30 32 H 0.373788 1.478566 -1.787504 0
M  V30 33 H 0.474847 3.788914 2.072926 0
M  V30 34 H 1.027585 6.179397 1.876690 0
M  V30 35 H 3.067980 7.619675 0.015758 0
M  V30 36 H 2.455634 5.499881 -2.032161 0
M  V30 37 H 1.899170 3.078020 -1.844781 0
M  V30 38 H 1.210930 1.901326 2.391421 0
M  V30 39 H 0.705065 -0.417866 2.798523 0
M  V30 END ATOM
M  V30 BEGIN BOND
M  V30 1 1 1 2
M  V30 2 1 2 3
M  V30 3 1 3 4
M  V30 4 2 4 5
M  V30 5 1 4 6
M  V30 6 1 6 7
M  V30 7 2 7 8
M  V30 8 1 8 9
M  V30 9 1 9 10
M  V30 10 2 10 11
M  V30 11 1 11 12
M  V30 12 1 12 13
M  V30 13 2 13 14
M  V30 14 1 14 15
M  V30 15 2 15 16
M  V30 16 1 16 17
M  V30 17 1 16 18
M  V30 18 2 18 19
M  V30 19 2 12 20
M  V30 20 1 20 21
M  V30 21 2 21 22
M  V30 22 1 22 7
M  V30 23 1 22 10
M  V30 24 1 19 13
M  V30 25 1 1 23
M  V30 26 1 1 24
M  V30 27 1 1 25
M  V30 28 1 2 26
M  V30 29 1 2 27
M  V30 30 1 3 28
M  V30 31 1 3 29
M  V30 32 1 6 30
M  V30 33 1 9 31
M  V30 34 1 11 32
M  V30 35 1 14 33
M  V30 36 1 15 34
M  V30 37 1 17 35
M  V30 38 1 18 36
M  V30 39 1 19 37
M  V30 40 1 20 38
M  V30 41 1 21 39
M  V30 END BOND
M  V30 END CTAB
M  END
>  <Dataset>  (486) 
ChEMBL_Kinases

>  <Ligand_Instance>  (486) 
nan

>  <PDB_ID>  (486) 
nan

>  <Standardized_SMILES>  (486) 
CCCC(=O)Nc1n[nH]c2cc(-c3ccc(O)cc3)ccc12

>  <Name>  (486) 
nan

>  <Pocket>  (486) 
nan

>  <ATP_Site>  (486) 
nan

>  <Peripheral>  (486) 
nan

>  <Num_H_Atoms_ProtBoundConf>  (486) 
nan

>  <Num_Resolved_Atoms>  (486) 
nan

>  <Num_Not_Resolved_Atoms>  (486) 
nan

$$$$
CHEMBL1082291
     RDKit          3D

  0  0  0  0  0  0  0  0  0  0999 V3000
M  V30 BEGIN CTAB
M  V30 COUNTS 51 55 0 0 0
M  V30 BEGIN ATOM
M  V30 1 C 0.024777 -5.967688 5.942916 0
M  V30 2 O -0.153743 -4.690183 5.412192 0
M  V30 3 C 0.105373 -4.285728 4.127824 0
M  V30 4 C 0.600279 -5.091376 3.110148 0
M  V30 5 C 0.841749 -4.625289 1.832175 0
M  V30 6 C 0.575368 -3.289530 1.559470 0
M  V30 7 C 0.822799 -2.772031 0.213123 0
M  V30 8 N 0.605636 -1.501036 -0.174150 0
M  V30 9 C 0.935791 -1.357981 -1.473272 0
M  V30 10 C 0.888787 -0.251390 -2.314029 0
M  V30 11 N 0.426257 0.956989 -1.775060 0
M  V30 12 C 1.388794 1.859267 -1.173263 0
M  V30 13 C 0.759466 2.737945 -0.123800 0
M  V30 14 N -0.465860 3.313661 -0.480078 0
M  V30 15 C -1.215419 3.940307 0.541274 0
M  V30 16 C -1.554003 2.943073 1.608262 0
M  V30 17 C -0.630101 2.757896 2.769297 0
M  V30 18 S -1.528818 1.470713 3.693777 0
M  V30 19 C -2.941204 1.395441 2.420633 0
M  V30 20 N -2.648029 2.195540 1.586870 0
M  V30 21 C -1.199407 2.780596 -1.571408 0
M  V30 22 C -0.980082 1.305587 -1.813321 0
M  V30 23 C 1.314896 -0.493662 -3.602946 0
M  V30 24 Br 1.263317 1.014107 -4.792374 0
M  V30 25 C 1.752154 -1.742065 -4.015354 0
M  V30 26 N 1.780415 -2.785140 -3.165966 0
M  V30 27 C 1.376067 -2.615539 -1.888198 0
M  V30 28 N 1.291799 -3.461057 -0.820623 0
M  V30 29 C 0.083597 -2.474807 2.557760 0
M  V30 30 C -0.157176 -2.942977 3.835124 0
M  V30 31 H 0.617102 -5.871331 6.895808 0
M  V30 32 H -0.922636 -6.464954 6.275457 0
M  V30 33 H 0.576059 -6.676945 5.309528 0
M  V30 34 H 0.799009 -6.135355 3.356554 0
M  V30 35 H 1.227737 -5.272224 1.055369 0
M  V30 36 H 1.734648 2.532584 -1.987772 0
M  V30 37 H 2.279854 1.337634 -0.799002 0
M  V30 38 H 0.623396 2.083637 0.768039 0
M  V30 39 H 1.468322 3.530577 0.191451 0
M  V30 40 H -2.141259 4.395996 0.137313 0
M  V30 41 H -0.636344 4.788099 0.963614 0
M  V30 42 H 0.229400 3.271439 2.889394 0
M  V30 43 H -3.830482 0.741585 2.467618 0
M  V30 44 H -0.957810 3.373371 -2.484554 0
M  V30 45 H -2.275973 2.964880 -1.367143 0
M  V30 46 H -1.551044 0.778184 -1.022661 0
M  V30 47 H -1.333508 1.094669 -2.843855 0
M  V30 48 H 2.056437 -1.777436 -5.060738 0
M  V30 49 H 1.570637 -4.471050 -0.889371 0
M  V30 50 H -0.105959 -1.433827 2.281245 0
M  V30 51 H -0.543361 -2.239884 4.561365 0
M  V30 END ATOM
M  V30 BEGIN BOND
M  V30 1 1 1 2
M  V30 2 1 2 3
M  V30 3 2 3 4
M  V30 4 1 4 5
M  V30 5 2 5 6
M  V30 6 1 6 7
M  V30 7 2 7 8
M  V30 8 1 8 9
M  V30 9 2 9 10
M  V30 10 1 10 11
M  V30 11 1 11 12
M  V30 12 1 12 13
M  V30 13 1 13 14
M  V30 14 1 14 15
M  V30 15 1 15 16
M  V30 16 2 16 17
M  V30 17 1 17 18
M  V30 18 1 18 19
M  V30 19 2 19 20
M  V30 20 1 14 21
M  V30 21 1 21 22
M  V30 22 1 10 23
M  V30 23 1 23 24
M  V30 24 2 23 25
M  V30 25 1 25 26
M  V30 26 2 26 27
M  V30 27 1 27 28
M  V30 28 1 6 29
M  V30 29 2 29 30
M  V30 30 1 30 3
M  V30 31 1 28 7
M  V30 32 1 27 9
M  V30 33 1 22 11
M  V30 34 1 20 16
M  V30 35 1 1 31
M  V30 36 1 1 32
M  V30 37 1 1 33
M  V30 38 1 4 34
M  V30 39 1 5 35
M  V30 40 1 12 36
M  V30 41 1 12 37
M  V30 42 1 13 38
M  V30 43 1 13 39
M  V30 44 1 15 40
M  V30 45 1 15 41
M  V30 46 1 17 42
M  V30 47 1 19 43
M  V30 48 1 21 44
M  V30 49 1 21 45
M  V30 50 1 22 46
M  V30 51 1 22 47
M  V30 52 1 25 48
M  V30 53 1 28 49
M  V30 54 1 29 50
M  V30 55 1 30 51
M  V30 END BOND
M  V30 END CTAB
M  END
>  <Dataset>  (487) 
ChEMBL_Kinases

>  <Ligand_Instance>  (487) 
nan

>  <PDB_ID>  (487) 
nan

>  <Standardized_SMILES>  (487) 
COc1ccc(-c2nc3c(N4CCN(Cc5cscn5)CC4)c(Br)cnc3[nH]2)cc1

>  <Name>  (487) 
nan

>  <Pocket>  (487) 
nan

>  <ATP_Site>  (487) 
nan

>  <Peripheral>  (487) 
nan

>  <Num_H_Atoms_ProtBoundConf>  (487) 
nan

>  <Num_Resolved_Atoms>  (487) 
nan

>  <Num_Not_Resolved_Atoms>  (487) 
nan

$$$$
CHEMBL1082439
     RDKit          3D

  0  0  0  0  0  0  0  0  0  0999 V3000
M  V30 BEGIN CTAB
M  V30 COUNTS 45 47 0 0 0
M  V30 BEGIN ATOM
M  V30 1 C 0.556738 -3.054681 1.045298 0
M  V30 2 C 0.421214 -2.165704 -0.166873 0
M  V30 3 C 0.607755 -2.675431 -1.398097 0
M  V30 4 C 0.934998 -3.953905 -2.000557 0
M  V30 5 C 1.168964 -5.124978 -1.364849 0
M  V30 6 C 1.480151 -6.348812 -1.911575 0
M  V30 7 N 1.556495 -6.358563 -3.257698 0
M  V30 8 C 1.339706 -5.243829 -3.970238 0
M  V30 9 N 1.414498 -5.226077 -5.404854 0
M  V30 10 N 1.043291 -4.105456 -3.335247 0
M  V30 11 S 0.352414 -1.293542 -2.494266 0
M  V30 12 C 0.000655 -0.079974 -1.198527 0
M  V30 13 C -0.298342 1.257944 -1.349674 0
M  V30 14 C -0.527468 1.969402 -0.193882 0
M  V30 15 C -0.432688 1.266524 0.983922 0
M  V30 16 C -0.684037 2.039721 2.258654 0
M  V30 17 N -1.549075 1.188093 3.053473 0
M  V30 18 C 0.584813 2.338197 2.968106 0
M  V30 19 C 0.490073 3.095494 4.239232 0
M  V30 20 C -0.335204 2.343336 5.231612 0
M  V30 21 C 0.036436 4.524800 4.062157 0
M  V30 22 C -0.130970 -0.065966 1.066599 0
M  V30 23 C 0.110090 -0.838616 -0.052251 0
M  V30 24 H 1.588574 -3.439260 1.164536 0
M  V30 25 H 0.372111 -2.492963 1.993608 0
M  V30 26 H -0.216010 -3.847769 1.051210 0
M  V30 27 H 1.120291 -5.169549 -0.293628 0
M  V30 28 H 1.654994 -7.247329 -1.338679 0
M  V30 29 H 0.983877 -5.995702 -5.961299 0
M  V30 30 H 1.907032 -4.430613 -5.888490 0
M  V30 31 H -0.333045 1.655733 -2.350128 0
M  V30 32 H -0.759924 3.009524 -0.310971 0
M  V30 33 H -1.288193 2.936716 2.014937 0
M  V30 34 H -1.895511 0.352151 2.542693 0
M  V30 35 H -2.405849 1.688511 3.378005 0
M  V30 36 H 1.268116 2.852414 2.232175 0
M  V30 37 H 1.080068 1.365859 3.189589 0
M  V30 38 H 1.521575 3.159061 4.659665 0
M  V30 39 H -1.368329 2.748719 5.258523 0
M  V30 40 H -0.309616 1.246240 5.075807 0
M  V30 41 H 0.087366 2.471101 6.273212 0
M  V30 42 H -1.060242 4.645011 4.298318 0
M  V30 43 H 0.553235 5.190606 4.784331 0
M  V30 44 H 0.280933 4.920336 3.048177 0
M  V30 45 H -0.093127 -0.479779 2.088087 0
M  V30 END ATOM
M  V30 BEGIN BOND
M  V30 1 1 1 2
M  V30 2 2 2 3
M  V30 3 1 3 4
M  V30 4 2 4 5
M  V30 5 1 5 6
M  V30 6 2 6 7
M  V30 7 1 7 8
M  V30 8 1 8 9
M  V30 9 2 8 10
M  V30 10 1 3 11
M  V30 11 1 11 12
M  V30 12 2 12 13
M  V30 13 1 13 14
M  V30 14 2 14 15
M  V30 15 1 15 16
M  V30 16 1 16 17
M  V30 17 1 16 18
M  V30 18 1 18 19
M  V30 19 1 19 20
M  V30 20 1 19 21
M  V30 21 1 15 22
M  V30 22 2 22 23
M  V30 23 1 23 2
M  V30 24 1 10 4
M  V30 25 1 23 12
M  V30 26 1 1 24
M  V30 27 1 1 25
M  V30 28 1 1 26
M  V30 29 1 5 27
M  V30 30 1 6 28
M  V30 31 1 9 29
M  V30 32 1 9 30
M  V30 33 1 13 31
M  V30 34 1 14 32
M  V30 35 1 16 33
M  V30 36 1 17 34
M  V30 37 1 17 35
M  V30 38 1 18 36
M  V30 39 1 18 37
M  V30 40 1 19 38
M  V30 41 1 20 39
M  V30 42 1 20 40
M  V30 43 1 20 41
M  V30 44 1 21 42
M  V30 45 1 21 43
M  V30 46 1 21 44
M  V30 47 1 22 45
M  V30 END BOND
M  V30 END CTAB
M  END
>  <Dataset>  (488) 
ChEMBL_Kinases

>  <Ligand_Instance>  (488) 
nan

>  <PDB_ID>  (488) 
nan

>  <Standardized_SMILES>  (488) 
Cc1c(-c2ccnc(N)n2)sc2ccc(C(N)CC(C)C)cc12

>  <Name>  (488) 
nan

>  <Pocket>  (488) 
nan

>  <ATP_Site>  (488) 
nan

>  <Peripheral>  (488) 
nan

>  <Num_H_Atoms_ProtBoundConf>  (488) 
nan

>  <Num_Resolved_Atoms>  (488) 
nan

>  <Num_Not_Resolved_Atoms>  (488) 
nan

$$$$
CHEMBL1082492
     RDKit          3D

  0  0  0  0  0  0  0  0  0  0999 V3000
M  V30 BEGIN CTAB
M  V30 COUNTS 63 68 0 0 0
M  V30 BEGIN ATOM
M  V30 1 Br -1.269278 -6.755397 3.739224 0
M  V30 2 C -0.400085 -5.078133 3.523285 0
M  V30 3 C 0.494544 -4.857138 4.543922 0
M  V30 4 N 1.173420 -3.680014 4.487730 0
M  V30 5 C 0.963148 -2.808760 3.488209 0
M  V30 6 N 1.529164 -1.615947 3.264976 0
M  V30 7 C 1.017843 -1.089727 2.142760 0
M  V30 8 C 1.343888 0.191365 1.522914 0
M  V30 9 C 2.282138 0.985123 2.132001 0
M  V30 10 C 2.574780 2.190590 1.525795 0
M  V30 11 C 1.983028 2.629911 0.360253 0
M  V30 12 C 2.256742 3.896034 -0.324613 0
M  V30 13 N 1.453340 5.002101 0.066508 0
M  V30 14 C 1.518982 5.396855 1.426628 0
M  V30 15 C 0.288120 6.219421 1.750407 0
M  V30 16 O -0.788476 5.352067 1.584455 0
M  V30 17 C -1.003269 5.202421 0.225941 0
M  V30 18 C 0.232887 5.198201 -0.618364 0
M  V30 19 C 1.052461 1.771318 -0.184241 0
M  V30 20 C 0.692432 0.544024 0.349024 0
M  V30 21 N 0.138507 -1.995486 1.707755 0
M  V30 22 C 0.057511 -3.079986 2.494194 0
M  V30 23 C -0.678554 -4.246160 2.464431 0
M  V30 24 N -1.611881 -4.523380 1.431857 0
M  V30 25 C -2.500766 -5.555198 1.064620 0
M  V30 26 C -2.171215 -6.050062 -0.359897 0
M  V30 27 N -2.276715 -4.999214 -1.310114 0
M  V30 28 C -1.224645 -4.958885 -2.264711 0
M  V30 29 C -1.374482 -3.850219 -3.271191 0
M  V30 30 C -0.724701 -2.593498 -2.949749 0
M  V30 31 S -1.173310 -1.585797 -4.408108 0
M  V30 32 C -2.151509 -3.008234 -5.201638 0
M  V30 33 N -2.059669 -4.000038 -4.385110 0
M  V30 34 C -2.636726 -3.781735 -0.676672 0
M  V30 35 C -1.724199 -3.471549 0.450124 0
M  V30 36 H 0.714965 -5.504123 5.371856 0
M  V30 37 H 2.242667 -1.172283 3.858602 0
M  V30 38 H 2.752328 0.668870 3.030608 0
M  V30 39 H 3.309324 2.839260 1.981660 0
M  V30 40 H 3.330321 4.221633 -0.193883 0
M  V30 41 H 2.156022 3.782778 -1.430198 0
M  V30 42 H 1.542013 4.477900 2.071974 0
M  V30 43 H 2.452396 5.984281 1.590787 0
M  V30 44 H 0.192040 7.015235 0.980586 0
M  V30 45 H 0.330120 6.689344 2.739329 0
M  V30 46 H -1.643819 4.314244 0.069445 0
M  V30 47 H -1.620877 6.092805 -0.090743 0
M  V30 48 H 0.342031 6.152674 -1.213081 0
M  V30 49 H 0.108635 4.403419 -1.389683 0
M  V30 50 H 0.536086 2.054022 -1.116861 0
M  V30 51 H -0.050269 -0.064592 -0.149504 0
M  V30 52 H -2.543577 -6.456920 1.697498 0
M  V30 53 H -3.578175 -5.196337 1.077798 0
M  V30 54 H -1.226493 -6.600133 -0.367771 0
M  V30 55 H -2.971369 -6.800856 -0.623509 0
M  V30 56 H -1.241751 -5.911836 -2.829742 0
M  V30 57 H -0.208080 -4.929529 -1.803902 0
M  V30 58 H -0.176394 -2.328119 -2.156987 0
M  V30 59 H -2.710623 -3.106259 -6.127981 0
M  V30 60 H -2.569905 -2.897812 -1.379131 0
M  V30 61 H -3.694726 -3.855137 -0.318865 0
M  V30 62 H -1.998588 -2.523104 0.978424 0
M  V30 63 H -0.713222 -3.276868 -0.029039 0
M  V30 END ATOM
M  V30 BEGIN BOND
M  V30 1 1 1 2
M  V30 2 2 2 3
M  V30 3 1 3 4
M  V30 4 2 4 5
M  V30 5 1 5 6
M  V30 6 1 6 7
M  V30 7 1 7 8
M  V30 8 2 8 9
M  V30 9 1 9 10
M  V30 10 2 10 11
M  V30 11 1 11 12
M  V30 12 1 12 13
M  V30 13 1 13 14
M  V30 14 1 14 15
M  V30 15 1 15 16
M  V30 16 1 16 17
M  V30 17 1 17 18
M  V30 18 1 11 19
M  V30 19 2 19 20
M  V30 20 2 7 21
M  V30 21 1 21 22
M  V30 22 2 22 23
M  V30 23 1 23 24
M  V30 24 1 24 25
M  V30 25 1 25 26
M  V30 26 1 26 27
M  V30 27 1 27 28
M  V30 28 1 28 29
M  V30 29 2 29 30
M  V30 30 1 30 31
M  V30 31 1 31 32
M  V30 32 2 32 33
M  V30 33 1 27 34
M  V30 34 1 34 35
M  V30 35 1 23 2
M  V30 36 1 35 24
M  V30 37 1 22 5
M  V30 38 1 33 29
M  V30 39 1 20 8
M  V30 40 1 18 13
M  V30 41 1 3 36
M  V30 42 1 6 37
M  V30 43 1 9 38
M  V30 44 1 10 39
M  V30 45 1 12 40
M  V30 46 1 12 41
M  V30 47 1 14 42
M  V30 48 1 14 43
M  V30 49 1 15 44
M  V30 50 1 15 45
M  V30 51 1 17 46
M  V30 52 1 17 47
M  V30 53 1 18 48
M  V30 54 1 18 49
M  V30 55 1 19 50
M  V30 56 1 20 51
M  V30 57 1 25 52
M  V30 58 1 25 53
M  V30 59 1 26 54
M  V30 60 1 26 55
M  V30 61 1 28 56
M  V30 62 1 28 57
M  V30 63 1 30 58
M  V30 64 1 32 59
M  V30 65 1 34 60
M  V30 66 1 34 61
M  V30 67 1 35 62
M  V30 68 1 35 63
M  V30 END BOND
M  V30 END CTAB
M  END
>  <Dataset>  (489) 
ChEMBL_Kinases

>  <Ligand_Instance>  (489) 
nan

>  <PDB_ID>  (489) 
nan

>  <Standardized_SMILES>  (489) 
Brc1cnc2[nH]c(-c3ccc(CN4CCOCC4)cc3)nc2c1N1CCN(Cc2cscn2)CC1

>  <Name>  (489) 
nan

>  <Pocket>  (489) 
nan

>  <ATP_Site>  (489) 
nan

>  <Peripheral>  (489) 
nan

>  <Num_H_Atoms_ProtBoundConf>  (489) 
nan

>  <Num_Resolved_Atoms>  (489) 
nan

>  <Num_Not_Resolved_Atoms>  (489) 
nan

$$$$
CHEMBL1082507
     RDKit          3D

  0  0  0  0  0  0  0  0  0  0999 V3000
M  V30 BEGIN CTAB
M  V30 COUNTS 62 66 0 0 0
M  V30 BEGIN ATOM
M  V30 1 C 1.920572 2.158469 5.741685 0
M  V30 2 N 3.376936 2.297999 5.728586 0
M  V30 3 C 3.837301 2.245136 7.106877 0
M  V30 4 C 3.954670 1.159525 5.038645 0
M  V30 5 C 3.472625 1.075341 3.632022 0
M  V30 6 C 4.185409 1.722331 2.621864 0
M  V30 7 C 3.833838 1.715803 1.286776 0
M  V30 8 C 2.698351 1.022012 0.918952 0
M  V30 9 C 2.298903 0.999520 -0.483030 0
M  V30 10 N 1.211365 0.365374 -0.929342 0
M  V30 11 C 1.071394 0.505705 -2.250600 0
M  V30 12 C 0.130345 0.057394 -3.159030 0
M  V30 13 N -0.968639 -0.757192 -2.826323 0
M  V30 14 C -1.176101 -1.291223 -1.503876 0
M  V30 15 C -2.488185 -0.794021 -0.943010 0
M  V30 16 N -3.581891 -1.072524 -1.850896 0
M  V30 17 C -4.562118 -1.859645 -1.145382 0
M  V30 18 C -4.132474 -3.225571 -0.805564 0
M  V30 19 O -3.243285 -4.139642 -0.830997 0
M  V30 20 N -5.205527 -3.892546 -0.099365 0
M  V30 21 C -4.973465 -5.277944 0.330393 0
M  V30 22 N -4.560796 -5.831650 1.233331 0
M  V30 23 C -4.441768 -7.133581 1.410539 0
M  V30 24 C -4.925613 -7.928493 0.247094 0
M  V30 25 S -5.471254 -6.632743 -0.905797 0
M  V30 26 C -3.140875 -1.815387 -3.004422 0
M  V30 27 C -2.020492 -1.119394 -3.743432 0
M  V30 28 C 0.405605 0.471598 -4.443776 0
M  V30 29 Br -0.640778 0.022538 -5.942288 0
M  V30 30 C 1.484417 1.244254 -4.814517 0
M  V30 31 N 2.374458 1.650270 -3.855857 0
M  V30 32 C 2.153848 1.271762 -2.573393 0
M  V30 33 N 2.904070 1.575193 -1.504307 0
M  V30 34 C 1.982202 0.376686 1.905025 0
M  V30 35 C 2.331813 0.381991 3.240171 0
M  V30 36 H 1.638234 1.128800 6.105494 0
M  V30 37 H 1.469786 2.863105 6.482933 0
M  V30 38 H 1.457986 2.366527 4.764844 0
M  V30 39 H 4.016182 1.164106 7.367116 0
M  V30 40 H 4.831578 2.743228 7.230616 0
M  V30 41 H 3.114653 2.707767 7.813893 0
M  V30 42 H 5.046175 1.178814 5.025251 0
M  V30 43 H 3.624572 0.255173 5.587201 0
M  V30 44 H 5.069070 2.259508 2.921434 0
M  V30 45 H 4.467716 2.255323 0.597791 0
M  V30 46 H -1.306745 -2.410601 -1.675705 0
M  V30 47 H -0.352128 -1.227018 -0.809888 0
M  V30 48 H -2.425984 0.305623 -0.835210 0
M  V30 49 H -2.628181 -1.208050 0.074521 0
M  V30 50 H -5.520561 -1.933148 -1.705624 0
M  V30 51 H -4.814137 -1.322006 -0.184234 0
M  V30 52 H -6.178149 -3.627126 0.209179 0
M  V30 53 H -4.022030 -7.480374 2.344434 0
M  V30 54 H -4.786580 -9.079884 0.481016 0
M  V30 55 H -4.019063 -1.821719 -3.706559 0
M  V30 56 H -2.893022 -2.866825 -2.808469 0
M  V30 57 H -1.617361 -1.850763 -4.461014 0
M  V30 58 H -2.451555 -0.225673 -4.254998 0
M  V30 59 H 1.745703 1.595077 -5.798813 0
M  V30 60 H 3.777998 2.143857 -1.482885 0
M  V30 61 H 1.096682 -0.158011 1.582282 0
M  V30 62 H 1.763119 -0.125294 3.992348 0
M  V30 END ATOM
M  V30 BEGIN BOND
M  V30 1 1 1 2
M  V30 2 1 2 3
M  V30 3 1 2 4
M  V30 4 1 4 5
M  V30 5 2 5 6
M  V30 6 1 6 7
M  V30 7 2 7 8
M  V30 8 1 8 9
M  V30 9 2 9 10
M  V30 10 1 10 11
M  V30 11 2 11 12
M  V30 12 1 12 13
M  V30 13 1 13 14
M  V30 14 1 14 15
M  V30 15 1 15 16
M  V30 16 1 16 17
M  V30 17 1 17 18
M  V30 18 2 18 19
M  V30 19 1 18 20
M  V30 20 1 20 21
M  V30 21 2 21 22
M  V30 22 1 22 23
M  V30 23 2 23 24
M  V30 24 1 24 25
M  V30 25 1 16 26
M  V30 26 1 26 27
M  V30 27 1 12 28
M  V30 28 1 28 29
M  V30 29 2 28 30
M  V30 30 1 30 31
M  V30 31 2 31 32
M  V30 32 1 32 33
M  V30 33 1 8 34
M  V30 34 2 34 35
M  V30 35 1 35 5
M  V30 36 1 33 9
M  V30 37 1 32 11
M  V30 38 1 27 13
M  V30 39 1 25 21
M  V30 40 1 1 36
M  V30 41 1 1 37
M  V30 42 1 1 38
M  V30 43 1 3 39
M  V30 44 1 3 40
M  V30 45 1 3 41
M  V30 46 1 4 42
M  V30 47 1 4 43
M  V30 48 1 6 44
M  V30 49 1 7 45
M  V30 50 1 14 46
M  V30 51 1 14 47
M  V30 52 1 15 48
M  V30 53 1 15 49
M  V30 54 1 17 50
M  V30 55 1 17 51
M  V30 56 1 20 52
M  V30 57 1 23 53
M  V30 58 1 24 54
M  V30 59 1 26 55
M  V30 60 1 26 56
M  V30 61 1 27 57
M  V30 62 1 27 58
M  V30 63 1 30 59
M  V30 64 1 33 60
M  V30 65 1 34 61
M  V30 66 1 35 62
M  V30 END BOND
M  V30 END CTAB
M  END
>  <Dataset>  (490) 
ChEMBL_Kinases

>  <Ligand_Instance>  (490) 
nan

>  <PDB_ID>  (490) 
nan

>  <Standardized_SMILES>  (490) 
CN(C)Cc1ccc(-c2nc3c(N4CCN(CC(=O)Nc5nccs5)CC4)c(Br)cnc3[nH]2)cc1

>  <Name>  (490) 
nan

>  <Pocket>  (490) 
nan

>  <ATP_Site>  (490) 
nan

>  <Peripheral>  (490) 
nan

>  <Num_H_Atoms_ProtBoundConf>  (490) 
nan

>  <Num_Resolved_Atoms>  (490) 
nan

>  <Num_Not_Resolved_Atoms>  (490) 
nan

$$$$
CHEMBL1082597
     RDKit          3D

  0  0  0  0  0  0  0  0  0  0999 V3000
M  V30 BEGIN CTAB
M  V30 COUNTS 55 59 0 0 0
M  V30 BEGIN ATOM
M  V30 1 C -1.241979 -2.467156 4.355531 0
M  V30 2 C 0.152057 -2.435418 3.812190 0
M  V30 3 C 1.158671 -1.548794 4.135083 0
M  V30 4 C 2.282691 -1.875393 3.405312 0
M  V30 5 C 3.615141 -1.242782 3.384172 0
M  V30 6 N 3.760765 -0.204940 2.421835 0
M  V30 7 C 2.924209 0.912711 2.505735 0
M  V30 8 C 2.345828 1.437430 1.237392 0
M  V30 9 N 2.594322 0.627307 0.089647 0
M  V30 10 C 2.121295 1.241895 -1.109036 0
M  V30 11 C 2.794373 2.092631 -1.962743 0
M  V30 12 Br 4.585745 2.483938 -1.456231 0
M  V30 13 C 2.140230 2.578142 -3.079968 0
M  V30 14 N 0.867198 2.233116 -3.340562 0
M  V30 15 C 0.190158 1.401240 -2.517238 0
M  V30 16 N -1.084619 0.947650 -2.617924 0
M  V30 17 C -1.275744 0.148183 -1.547901 0
M  V30 18 C -2.522067 -0.556317 -1.259302 0
M  V30 19 C -3.579781 -0.400069 -2.133273 0
M  V30 20 C -4.773876 -1.073952 -1.858631 0
M  V30 21 C -4.860287 -1.868319 -0.732728 0
M  V30 22 C -6.155644 -2.556478 -0.498488 0
M  V30 23 N -6.068368 -3.850722 -1.175067 0
M  V30 24 C -3.805602 -2.026277 0.141953 0
M  V30 25 C -2.626579 -1.354625 -0.138532 0
M  V30 26 N -0.157872 0.100605 -0.798926 0
M  V30 27 C 0.797166 0.880210 -1.375919 0
M  V30 28 C 3.248115 -0.670092 0.113030 0
M  V30 29 C 4.320136 -0.548757 1.175210 0
M  V30 30 N 1.920083 -2.942065 2.670184 0
M  V30 31 O 0.691059 -3.237406 2.927816 0
M  V30 32 H -1.622338 -3.480425 4.514257 0
M  V30 33 H -1.912526 -1.939148 3.624278 0
M  V30 34 H -1.224149 -1.856088 5.295801 0
M  V30 35 H 1.072452 -0.747823 4.833954 0
M  V30 36 H 4.364278 -2.037839 3.126336 0
M  V30 37 H 3.932979 -0.886179 4.384660 0
M  V30 38 H 2.128175 0.713220 3.253080 0
M  V30 39 H 3.518036 1.753075 2.973081 0
M  V30 40 H 2.649430 2.506414 1.035327 0
M  V30 41 H 1.242289 1.498314 1.339805 0
M  V30 42 H 2.731105 3.245504 -3.711539 0
M  V30 43 H -1.762348 1.194404 -3.395277 0
M  V30 44 H -3.514737 0.220667 -3.014595 0
M  V30 45 H -5.596687 -0.931577 -2.569404 0
M  V30 46 H -6.333560 -2.717773 0.595449 0
M  V30 47 H -7.001670 -1.998454 -0.929432 0
M  V30 48 H -5.151337 -4.314084 -0.981657 0
M  V30 49 H -6.121224 -3.601095 -2.208136 0
M  V30 50 H -3.988007 -2.671688 0.988611 0
M  V30 51 H -1.806186 -1.490689 0.561431 0
M  V30 52 H 3.669676 -0.921377 -0.879285 0
M  V30 53 H 2.447533 -1.388504 0.401546 0
M  V30 54 H 5.035413 0.223467 0.805661 0
M  V30 55 H 4.831663 -1.538754 1.290676 0
M  V30 END ATOM
M  V30 BEGIN BOND
M  V30 1 1 1 2
M  V30 2 2 2 3
M  V30 3 1 3 4
M  V30 4 1 4 5
M  V30 5 1 5 6
M  V30 6 1 6 7
M  V30 7 1 7 8
M  V30 8 1 8 9
M  V30 9 1 9 10
M  V30 10 2 10 11
M  V30 11 1 11 12
M  V30 12 1 11 13
M  V30 13 2 13 14
M  V30 14 1 14 15
M  V30 15 1 15 16
M  V30 16 1 16 17
M  V30 17 1 17 18
M  V30 18 2 18 19
M  V30 19 1 19 20
M  V30 20 2 20 21
M  V30 21 1 21 22
M  V30 22 1 22 23
M  V30 23 1 21 24
M  V30 24 2 24 25
M  V30 25 2 17 26
M  V30 26 1 26 27
M  V30 27 1 9 28
M  V30 28 1 28 29
M  V30 29 2 4 30
M  V30 30 1 30 31
M  V30 31 1 31 2
M  V30 32 1 29 6
M  V30 33 1 27 10
M  V30 34 2 27 15
M  V30 35 1 25 18
M  V30 36 1 1 32
M  V30 37 1 1 33
M  V30 38 1 1 34
M  V30 39 1 3 35
M  V30 40 1 5 36
M  V30 41 1 5 37
M  V30 42 1 7 38
M  V30 43 1 7 39
M  V30 44 1 8 40
M  V30 45 1 8 41
M  V30 46 1 13 42
M  V30 47 1 16 43
M  V30 48 1 19 44
M  V30 49 1 20 45
M  V30 50 1 22 46
M  V30 51 1 22 47
M  V30 52 1 23 48
M  V30 53 1 23 49
M  V30 54 1 24 50
M  V30 55 1 25 51
M  V30 56 1 28 52
M  V30 57 1 28 53
M  V30 58 1 29 54
M  V30 59 1 29 55
M  V30 END BOND
M  V30 END CTAB
M  END
>  <Dataset>  (491) 
ChEMBL_Kinases

>  <Ligand_Instance>  (491) 
nan

>  <PDB_ID>  (491) 
nan

>  <Standardized_SMILES>  (491) 
Cc1cc(CN2CCN(c3c(Br)cnc4[nH]c(-c5ccc(CN)cc5)nc34)CC2)no1

>  <Name>  (491) 
nan

>  <Pocket>  (491) 
nan

>  <ATP_Site>  (491) 
nan

>  <Peripheral>  (491) 
nan

>  <Num_H_Atoms_ProtBoundConf>  (491) 
nan

>  <Num_Resolved_Atoms>  (491) 
nan

>  <Num_Not_Resolved_Atoms>  (491) 
nan

$$$$
CHEMBL1082758
     RDKit          3D

  0  0  0  0  0  0  0  0  0  0999 V3000
M  V30 BEGIN CTAB
M  V30 COUNTS 42 45 0 0 0
M  V30 BEGIN ATOM
M  V30 1 C 2.329821 -2.484481 0.735054 0
M  V30 2 C 1.703503 -1.458010 -0.178103 0
M  V30 3 C 1.684713 -1.671663 -1.516691 0
M  V30 4 C 2.121409 -2.681273 -2.450902 0
M  V30 5 C 2.752820 -3.840368 -2.144362 0
M  V30 6 C 3.193472 -4.838851 -2.983968 0
M  V30 7 N 2.939815 -4.588363 -4.302535 0
M  V30 8 C 2.317833 -3.459718 -4.677241 0
M  V30 9 N 2.048769 -3.192950 -6.069896 0
M  V30 10 N 1.932536 -2.556461 -3.775381 0
M  V30 11 S 0.868203 -0.234540 -2.189400 0
M  V30 12 C 0.597338 0.584707 -0.574960 0
M  V30 13 C -0.018815 1.808890 -0.331515 0
M  V30 14 C -0.092856 2.195875 0.986133 0
M  V30 15 C 0.441805 1.344958 1.910066 0
M  V30 16 C 0.350644 1.786266 3.343647 0
M  V30 17 C -0.887670 1.345669 4.004723 0
M  V30 18 C -1.005454 0.148817 4.677772 0
M  V30 19 C -2.213914 -0.171862 5.265176 0
M  V30 20 C -3.311245 0.674826 5.197410 0
M  V30 21 C -3.211296 1.893379 4.519065 0
M  V30 22 O -4.273972 2.795759 4.409891 0
M  V30 23 C -1.986656 2.179635 3.944250 0
M  V30 24 C 1.026519 0.167571 1.594837 0
M  V30 25 C 1.147550 -0.304225 0.304495 0
M  V30 26 H 2.301627 -2.137102 1.811806 0
M  V30 27 H 1.795900 -3.432015 0.747770 0
M  V30 28 H 3.414627 -2.522320 0.516499 0
M  V30 29 H 2.977817 -4.089940 -1.120043 0
M  V30 30 H 3.693254 -5.744778 -2.677475 0
M  V30 31 H 2.947541 -3.114370 -6.611216 0
M  V30 32 H 1.212875 -3.059511 -6.672510 0
M  V30 33 H -0.385985 2.351267 -1.191501 0
M  V30 34 H -0.574163 3.146155 1.144119 0
M  V30 35 H 1.264394 1.380230 3.858626 0
M  V30 36 H 0.462661 2.879610 3.356560 0
M  V30 37 H -0.162697 -0.513291 4.736076 0
M  V30 38 H -2.355569 -1.109287 5.809424 0
M  V30 39 H -4.278299 0.452466 5.649373 0
M  V30 40 H -4.400944 3.541307 5.106040 0
M  V30 41 H -1.912111 3.138956 3.411645 0
M  V30 42 H 1.409094 -0.403511 2.458955 0
M  V30 END ATOM
M  V30 BEGIN BOND
M  V30 1 1 1 2
M  V30 2 2 2 3
M  V30 3 1 3 4
M  V30 4 2 4 5
M  V30 5 1 5 6
M  V30 6 2 6 7
M  V30 7 1 7 8
M  V30 8 1 8 9
M  V30 9 2 8 10
M  V30 10 1 3 11
M  V30 11 1 11 12
M  V30 12 2 12 13
M  V30 13 1 13 14
M  V30 14 2 14 15
M  V30 15 1 15 16
M  V30 16 1 16 17
M  V30 17 2 17 18
M  V30 18 1 18 19
M  V30 19 2 19 20
M  V30 20 1 20 21
M  V30 21 1 21 22
M  V30 22 2 21 23
M  V30 23 1 15 24
M  V30 24 2 24 25
M  V30 25 1 25 2
M  V30 26 1 10 4
M  V30 27 1 25 12
M  V30 28 1 23 17
M  V30 29 1 1 26
M  V30 30 1 1 27
M  V30 31 1 1 28
M  V30 32 1 5 29
M  V30 33 1 6 30
M  V30 34 1 9 31
M  V30 35 1 9 32
M  V30 36 1 13 33
M  V30 37 1 14 34
M  V30 38 1 16 35
M  V30 39 1 16 36
M  V30 40 1 18 37
M  V30 41 1 19 38
M  V30 42 1 20 39
M  V30 43 1 22 40
M  V30 44 1 23 41
M  V30 45 1 24 42
M  V30 END BOND
M  V30 END CTAB
M  END
>  <Dataset>  (492) 
ChEMBL_Kinases

>  <Ligand_Instance>  (492) 
nan

>  <PDB_ID>  (492) 
nan

>  <Standardized_SMILES>  (492) 
Cc1c(-c2ccnc(N)n2)sc2ccc(Cc3cccc(O)c3)cc12

>  <Name>  (492) 
nan

>  <Pocket>  (492) 
nan

>  <ATP_Site>  (492) 
nan

>  <Peripheral>  (492) 
nan

>  <Num_H_Atoms_ProtBoundConf>  (492) 
nan

>  <Num_Resolved_Atoms>  (492) 
nan

>  <Num_Not_Resolved_Atoms>  (492) 
nan

$$$$
CHEMBL1082830
     RDKit          3D

  0  0  0  0  0  0  0  0  0  0999 V3000
M  V30 BEGIN CTAB
M  V30 COUNTS 51 55 0 0 0
M  V30 BEGIN ATOM
M  V30 1 O 0.532842 -4.960842 0.606579 0
M  V30 2 C -0.476062 -4.341945 0.203789 0
M  V30 3 C -1.282920 -3.186010 0.605723 0
M  V30 4 N -0.800172 -2.554739 1.812678 0
M  V30 5 C 0.472674 -1.905830 1.630363 0
M  V30 6 C 0.963265 -1.489596 3.002140 0
M  V30 7 N 0.104764 -0.377872 3.400425 0
M  V30 8 C 0.584968 0.961324 3.607830 0
M  V30 9 C 1.045309 1.436025 4.822068 0
M  V30 10 Br 1.018983 0.186073 6.274339 0
M  V30 11 C 1.487966 2.728744 4.950508 0
M  V30 12 N 1.496760 3.591254 3.913178 0
M  V30 13 C 1.053929 3.170491 2.699549 0
M  V30 14 N 0.951343 3.817876 1.503203 0
M  V30 15 C 0.446048 2.939358 0.618246 0
M  V30 16 C 0.165325 3.195588 -0.790937 0
M  V30 17 C 0.418763 4.437060 -1.335159 0
M  V30 18 C 0.145547 4.678989 -2.684497 0
M  V30 19 C -0.384616 3.684069 -3.507518 0
M  V30 20 C -0.629290 2.441831 -2.928456 0
M  V30 21 C -0.358829 2.195790 -1.585460 0
M  V30 22 N 0.243571 1.775676 1.263537 0
M  V30 23 C 0.606300 1.868834 2.561060 0
M  V30 24 C -1.232573 -0.884256 3.525516 0
M  V30 25 C -1.751227 -1.585965 2.314120 0
M  V30 26 N -0.992949 -4.935952 -1.001899 0
M  V30 27 C -0.307954 -6.105710 -1.551019 0
M  V30 28 N -0.252813 -7.279354 -1.542011 0
M  V30 29 C 0.599535 -7.989656 -2.256141 0
M  V30 30 C 1.537063 -7.271684 -3.115386 0
M  V30 31 S 1.017354 -5.485533 -2.747034 0
M  V30 32 H -1.378648 -2.497587 -0.246248 0
M  V30 33 H -2.316955 -3.556193 0.821504 0
M  V30 34 H 1.239775 -2.563100 1.183864 0
M  V30 35 H 0.416267 -1.001586 0.994184 0
M  V30 36 H 2.029226 -1.185738 2.987403 0
M  V30 37 H 0.833401 -2.366628 3.674568 0
M  V30 38 H 1.840027 3.055940 5.926805 0
M  V30 39 H 1.224685 4.823722 1.330844 0
M  V30 40 H 0.825610 5.255940 -0.771157 0
M  V30 41 H 0.329109 5.647215 -3.161299 0
M  V30 42 H -0.585675 3.892543 -4.540330 0
M  V30 43 H -1.042582 1.636745 -3.525487 0
M  V30 44 H -0.565939 1.217102 -1.181470 0
M  V30 45 H -1.900834 -0.013604 3.729582 0
M  V30 46 H -1.318538 -1.516448 4.447292 0
M  V30 47 H -2.110689 -0.880769 1.540344 0
M  V30 48 H -2.641527 -2.188957 2.658852 0
M  V30 49 H -1.816123 -4.654514 -1.574272 0
M  V30 50 H 0.532098 -9.064210 -2.145262 0
M  V30 51 H 2.232113 -7.920616 -3.694389 0
M  V30 END ATOM
M  V30 BEGIN BOND
M  V30 1 2 1 2
M  V30 2 1 2 3
M  V30 3 1 3 4
M  V30 4 1 4 5
M  V30 5 1 5 6
M  V30 6 1 6 7
M  V30 7 1 7 8
M  V30 8 2 8 9
M  V30 9 1 9 10
M  V30 10 1 9 11
M  V30 11 2 11 12
M  V30 12 1 12 13
M  V30 13 1 13 14
M  V30 14 1 14 15
M  V30 15 1 15 16
M  V30 16 2 16 17
M  V30 17 1 17 18
M  V30 18 2 18 19
M  V30 19 1 19 20
M  V30 20 2 20 21
M  V30 21 2 15 22
M  V30 22 1 22 23
M  V30 23 1 7 24
M  V30 24 1 24 25
M  V30 25 1 2 26
M  V30 26 1 26 27
M  V30 27 2 27 28
M  V30 28 1 28 29
M  V30 29 2 29 30
M  V30 30 1 30 31
M  V30 31 1 25 4
M  V30 32 1 31 27
M  V30 33 1 23 8
M  V30 34 2 23 13
M  V30 35 1 21 16
M  V30 36 1 3 32
M  V30 37 1 3 33
M  V30 38 1 5 34
M  V30 39 1 5 35
M  V30 40 1 6 36
M  V30 41 1 6 37
M  V30 42 1 11 38
M  V30 43 1 14 39
M  V30 44 1 17 40
M  V30 45 1 18 41
M  V30 46 1 19 42
M  V30 47 1 20 43
M  V30 48 1 21 44
M  V30 49 1 24 45
M  V30 50 1 24 46
M  V30 51 1 25 47
M  V30 52 1 25 48
M  V30 53 1 26 49
M  V30 54 1 29 50
M  V30 55 1 30 51
M  V30 END BOND
M  V30 END CTAB
M  END
>  <Dataset>  (493) 
ChEMBL_Kinases

>  <Ligand_Instance>  (493) 
nan

>  <PDB_ID>  (493) 
nan

>  <Standardized_SMILES>  (493) 
O=C(CN1CCN(c2c(Br)cnc3[nH]c(-c4ccccc4)nc23)CC1)Nc1nccs1

>  <Name>  (493) 
nan

>  <Pocket>  (493) 
nan

>  <ATP_Site>  (493) 
nan

>  <Peripheral>  (493) 
nan

>  <Num_H_Atoms_ProtBoundConf>  (493) 
nan

>  <Num_Resolved_Atoms>  (493) 
nan

>  <Num_Not_Resolved_Atoms>  (493) 
nan

$$$$
CHEMBL1083352
     RDKit          3D

  0  0  0  0  0  0  0  0  0  0999 V3000
M  V30 BEGIN CTAB
M  V30 COUNTS 43 46 0 0 0
M  V30 BEGIN ATOM
M  V30 1 C 1.661321 -2.475798 1.013433 0
M  V30 2 C 0.347195 -2.008382 0.436900 0
M  V30 3 C -0.188873 -2.696535 -0.573467 0
M  V30 4 C 0.094238 -3.854278 -1.381546 0
M  V30 5 C 1.172142 -4.668454 -1.287911 0
M  V30 6 C 1.463958 -5.779973 -2.048782 0
M  V30 7 N 0.558245 -6.079238 -2.995092 0
M  V30 8 C -0.538662 -5.325583 -3.156437 0
M  V30 9 N -1.533490 -5.607885 -4.154928 0
M  V30 10 N -0.729823 -4.279559 -2.377530 0
M  V30 11 S -1.702777 -1.800296 -0.922292 0
M  V30 12 C -1.503426 -0.543618 0.336147 0
M  V30 13 C -2.344395 0.510538 0.633454 0
M  V30 14 C -1.949079 1.336630 1.660112 0
M  V30 15 C -0.760781 1.030351 2.284304 0
M  V30 16 C -0.314964 1.921480 3.408814 0
M  V30 17 N 0.142240 1.023031 4.474742 0
M  V30 18 C 0.777087 2.818147 3.002357 0
M  V30 19 C 1.001301 3.018508 1.655170 0
M  V30 20 C 2.018076 3.853843 1.238241 0
M  V30 21 C 2.811826 4.489546 2.187601 0
M  V30 22 C 2.543038 4.252978 3.521309 0
M  V30 23 C 1.533833 3.423251 3.982335 0
M  V30 24 C 0.027304 -0.037263 1.935248 0
M  V30 25 C -0.307108 -0.906976 0.915958 0
M  V30 26 H 1.996651 -1.794072 1.859300 0
M  V30 27 H 1.572601 -3.452816 1.508404 0
M  V30 28 H 2.491231 -2.379235 0.283828 0
M  V30 29 H 1.923844 -4.476434 -0.552152 0
M  V30 30 H 2.326592 -6.392195 -1.939130 0
M  V30 31 H -2.332417 -6.256380 -4.321656 0
M  V30 32 H -1.584158 -5.067894 -5.040577 0
M  V30 33 H -3.238689 0.608765 0.046956 0
M  V30 34 H -2.596163 2.156510 1.896610 0
M  V30 35 H -1.183533 2.491472 3.766365 0
M  V30 36 H -0.469094 0.193110 4.442392 0
M  V30 37 H 1.151410 0.858108 4.318200 0
M  V30 38 H 0.374090 2.515674 0.944604 0
M  V30 39 H 2.170223 3.991772 0.171186 0
M  V30 40 H 3.605240 5.141447 1.857140 0
M  V30 41 H 3.148755 4.737564 4.286771 0
M  V30 42 H 1.387863 3.290368 5.049062 0
M  V30 43 H 0.952091 -0.159608 2.523347 0
M  V30 END ATOM
M  V30 BEGIN BOND
M  V30 1 1 1 2
M  V30 2 2 2 3
M  V30 3 1 3 4
M  V30 4 2 4 5
M  V30 5 1 5 6
M  V30 6 2 6 7
M  V30 7 1 7 8
M  V30 8 1 8 9
M  V30 9 2 8 10
M  V30 10 1 3 11
M  V30 11 1 11 12
M  V30 12 2 12 13
M  V30 13 1 13 14
M  V30 14 2 14 15
M  V30 15 1 15 16
M  V30 16 1 16 17
M  V30 17 1 16 18
M  V30 18 2 18 19
M  V30 19 1 19 20
M  V30 20 2 20 21
M  V30 21 1 21 22
M  V30 22 2 22 23
M  V30 23 1 15 24
M  V30 24 2 24 25
M  V30 25 1 25 2
M  V30 26 1 10 4
M  V30 27 1 25 12
M  V30 28 1 23 18
M  V30 29 1 1 26
M  V30 30 1 1 27
M  V30 31 1 1 28
M  V30 32 1 5 29
M  V30 33 1 6 30
M  V30 34 1 9 31
M  V30 35 1 9 32
M  V30 36 1 13 33
M  V30 37 1 14 34
M  V30 38 1 16 35
M  V30 39 1 17 36
M  V30 40 1 17 37
M  V30 41 1 19 38
M  V30 42 1 20 39
M  V30 43 1 21 40
M  V30 44 1 22 41
M  V30 45 1 23 42
M  V30 46 1 24 43
M  V30 END BOND
M  V30 END CTAB
M  END
>  <Dataset>  (494) 
ChEMBL_Kinases

>  <Ligand_Instance>  (494) 
nan

>  <PDB_ID>  (494) 
nan

>  <Standardized_SMILES>  (494) 
Cc1c(-c2ccnc(N)n2)sc2ccc(C(N)c3ccccc3)cc12

>  <Name>  (494) 
nan

>  <Pocket>  (494) 
nan

>  <ATP_Site>  (494) 
nan

>  <Peripheral>  (494) 
nan

>  <Num_H_Atoms_ProtBoundConf>  (494) 
nan

>  <Num_Resolved_Atoms>  (494) 
nan

>  <Num_Not_Resolved_Atoms>  (494) 
nan

$$$$
CHEMBL1082866
     RDKit          3D

  0  0  0  0  0  0  0  0  0  0999 V3000
M  V30 BEGIN CTAB
M  V30 COUNTS 33 35 0 0 0
M  V30 BEGIN ATOM
M  V30 1 C 2.209430 -3.719704 4.203518 0
M  V30 2 O 1.662981 -2.391330 4.193887 0
M  V30 3 C 1.095652 -1.860861 3.044234 0
M  V30 4 C 1.058488 -2.630877 1.888660 0
M  V30 5 C 0.494832 -2.107926 0.744260 0
M  V30 6 C -0.048684 -0.859998 0.637227 0
M  V30 7 C 0.017617 -0.155266 1.795326 0
M  V30 8 C 0.552203 -0.568888 2.995185 0
M  V30 9 Cl 0.614082 0.365422 4.453375 0
M  V30 10 C -0.559277 -0.248065 -0.560627 0
M  V30 11 C -1.117144 1.067275 -0.718106 0
M  V30 12 C -1.569116 2.115545 0.011775 0
M  V30 13 C -1.949638 3.370163 -0.347366 0
M  V30 14 C -1.883212 3.674750 -1.682068 0
M  V30 15 F -2.247863 4.904950 -2.091823 0
M  V30 16 C -1.447589 2.724518 -2.571926 0
M  V30 17 C -1.095480 1.500997 -2.062934 0
M  V30 18 N -0.416904 -1.042297 -1.529086 0
M  V30 19 C 0.104465 -2.327076 -1.686204 0
M  V30 20 C 0.492915 -3.017847 -0.417086 0
M  V30 21 H 2.913514 -3.886667 3.364128 0
M  V30 22 H 1.376908 -4.446699 4.251199 0
M  V30 23 H 2.813885 -3.860544 5.123057 0
M  V30 24 H 1.480476 -3.624203 1.937664 0
M  V30 25 H -0.317272 0.847055 1.875171 0
M  V30 26 H -1.686955 1.856823 1.032902 0
M  V30 27 H -2.276044 4.045653 0.418206 0
M  V30 28 H -1.406256 2.991857 -3.609350 0
M  V30 29 H -0.764243 0.839453 -2.889629 0
M  V30 30 H -0.577651 -3.016872 -2.274155 0
M  V30 31 H 1.015509 -2.237581 -2.350104 0
M  V30 32 H -0.165701 -3.912550 -0.235763 0
M  V30 33 H 1.567051 -3.371282 -0.508437 0
M  V30 END ATOM
M  V30 BEGIN BOND
M  V30 1 1 1 2
M  V30 2 1 2 3
M  V30 3 2 3 4
M  V30 4 1 4 5
M  V30 5 2 5 6
M  V30 6 1 6 7
M  V30 7 2 7 8
M  V30 8 1 8 9
M  V30 9 1 6 10
M  V30 10 1 10 11
M  V30 11 2 11 12
M  V30 12 1 12 13
M  V30 13 2 13 14
M  V30 14 1 14 15
M  V30 15 1 14 16
M  V30 16 2 16 17
M  V30 17 2 10 18
M  V30 18 1 18 19
M  V30 19 1 19 20
M  V30 20 1 8 3
M  V30 21 1 17 11
M  V30 22 1 20 5
M  V30 23 1 1 21
M  V30 24 1 1 22
M  V30 25 1 1 23
M  V30 26 1 4 24
M  V30 27 1 7 25
M  V30 28 1 12 26
M  V30 29 1 13 27
M  V30 30 1 16 28
M  V30 31 1 17 29
M  V30 32 1 19 30
M  V30 33 1 19 31
M  V30 34 1 20 32
M  V30 35 1 20 33
M  V30 END BOND
M  V30 END CTAB
M  END
>  <Dataset>  (495) 
ChEMBL_Kinases

>  <Ligand_Instance>  (495) 
nan

>  <PDB_ID>  (495) 
nan

>  <Standardized_SMILES>  (495) 
COc1cc2c(cc1Cl)C(c1ccc(F)cc1)=NCC2

>  <Name>  (495) 
nan

>  <Pocket>  (495) 
nan

>  <ATP_Site>  (495) 
nan

>  <Peripheral>  (495) 
nan

>  <Num_H_Atoms_ProtBoundConf>  (495) 
nan

>  <Num_Resolved_Atoms>  (495) 
nan

>  <Num_Not_Resolved_Atoms>  (495) 
nan

$$$$
CHEMBL1083072
     RDKit          3D

  0  0  0  0  0  0  0  0  0  0999 V3000
M  V30 BEGIN CTAB
M  V30 COUNTS 41 44 0 0 0
M  V30 BEGIN ATOM
M  V30 1 C 3.304560 -1.365296 1.156709 0
M  V30 2 C 1.996810 -1.702518 0.483668 0
M  V30 3 C 1.984209 -2.660391 -0.468551 0
M  V30 4 C 2.897271 -3.550351 -1.113664 0
M  V30 5 C 4.231329 -3.676990 -0.892995 0
M  V30 6 C 5.130924 -4.526426 -1.501539 0
M  V30 7 N 4.599853 -5.332451 -2.438317 0
M  V30 8 C 3.291126 -5.276131 -2.722112 0
M  V30 9 N 2.686367 -6.124688 -3.720161 0
M  V30 10 N 2.514799 -4.426784 -2.081671 0
M  V30 11 S 0.265526 -2.707415 -0.960445 0
M  V30 12 C -0.339127 -1.463529 0.115070 0
M  V30 13 C -1.603188 -0.964035 0.280322 0
M  V30 14 C -1.801241 0.031362 1.212296 0
M  V30 15 C -0.682680 0.435063 1.900897 0
M  V30 16 N -0.886176 1.482534 2.846691 0
M  V30 17 C -1.878544 2.489915 2.776905 0
M  V30 18 C -2.512653 2.941993 1.644392 0
M  V30 19 C -3.480262 3.908787 1.640709 0
M  V30 20 C -3.863753 4.484398 2.832583 0
M  V30 21 C -3.243211 4.048875 3.978824 0
M  V30 22 O -3.598264 4.601549 5.202357 0
M  V30 23 C -2.270811 3.072981 3.957934 0
M  V30 24 C 0.567597 -0.085212 1.712249 0
M  V30 25 C 0.818148 -1.080824 0.794081 0
M  V30 26 H 3.158405 -0.540532 1.926830 0
M  V30 27 H 3.685009 -2.197075 1.760585 0
M  V30 28 H 4.027787 -0.906406 0.452711 0
M  V30 29 H 4.702842 -3.051010 -0.150070 0
M  V30 30 H 6.166864 -4.577394 -1.283222 0
M  V30 31 H 2.259252 -5.790187 -4.631687 0
M  V30 32 H 2.651487 -7.166559 -3.558001 0
M  V30 33 H -2.374446 -1.392808 -0.343544 0
M  V30 34 H -2.824451 0.352023 1.278271 0
M  V30 35 H -0.221948 1.481436 3.661018 0
M  V30 36 H -2.239702 2.534399 0.699925 0
M  V30 37 H -3.948404 4.228273 0.719578 0
M  V30 38 H -4.638565 5.258750 2.830945 0
M  V30 39 H -4.519601 4.997795 5.299024 0
M  V30 40 H -1.813434 2.769445 4.910737 0
M  V30 41 H 1.353130 0.349381 2.345749 0
M  V30 END ATOM
M  V30 BEGIN BOND
M  V30 1 1 1 2
M  V30 2 2 2 3
M  V30 3 1 3 4
M  V30 4 2 4 5
M  V30 5 1 5 6
M  V30 6 2 6 7
M  V30 7 1 7 8
M  V30 8 1 8 9
M  V30 9 2 8 10
M  V30 10 1 3 11
M  V30 11 1 11 12
M  V30 12 2 12 13
M  V30 13 1 13 14
M  V30 14 2 14 15
M  V30 15 1 15 16
M  V30 16 1 16 17
M  V30 17 2 17 18
M  V30 18 1 18 19
M  V30 19 2 19 20
M  V30 20 1 20 21
M  V30 21 1 21 22
M  V30 22 2 21 23
M  V30 23 1 15 24
M  V30 24 2 24 25
M  V30 25 1 25 2
M  V30 26 1 10 4
M  V30 27 1 25 12
M  V30 28 1 23 17
M  V30 29 1 1 26
M  V30 30 1 1 27
M  V30 31 1 1 28
M  V30 32 1 5 29
M  V30 33 1 6 30
M  V30 34 1 9 31
M  V30 35 1 9 32
M  V30 36 1 13 33
M  V30 37 1 14 34
M  V30 38 1 16 35
M  V30 39 1 18 36
M  V30 40 1 19 37
M  V30 41 1 20 38
M  V30 42 1 22 39
M  V30 43 1 23 40
M  V30 44 1 24 41
M  V30 END BOND
M  V30 END CTAB
M  END
>  <Dataset>  (496) 
ChEMBL_Kinases

>  <Ligand_Instance>  (496) 
nan

>  <PDB_ID>  (496) 
nan

>  <Standardized_SMILES>  (496) 
Cc1c(-c2ccnc(N)n2)sc2ccc(Nc3cccc(O)c3)cc12

>  <Name>  (496) 
nan

>  <Pocket>  (496) 
nan

>  <ATP_Site>  (496) 
nan

>  <Peripheral>  (496) 
nan

>  <Num_H_Atoms_ProtBoundConf>  (496) 
nan

>  <Num_Resolved_Atoms>  (496) 
nan

>  <Num_Not_Resolved_Atoms>  (496) 
nan

$$$$
CHEMBL1083073
     RDKit          3D

  0  0  0  0  0  0  0  0  0  0999 V3000
M  V30 BEGIN CTAB
M  V30 COUNTS 47 50 0 0 0
M  V30 BEGIN ATOM
M  V30 1 C 3.534717 -3.136551 -2.944247 0
M  V30 2 O 2.162619 -3.251618 -3.231980 0
M  V30 3 C 1.296609 -2.182120 -3.050262 0
M  V30 4 C -0.057281 -2.356272 -3.353438 0
M  V30 5 C -0.974614 -1.342207 -3.198751 0
M  V30 6 C -0.593347 -0.100477 -2.733987 0
M  V30 7 C 0.747238 0.089625 -2.428176 0
M  V30 8 C 1.149644 1.407712 -1.935226 0
M  V30 9 N 0.585247 2.508910 -2.685556 0
M  V30 10 C 0.767550 1.521739 -0.478130 0
M  V30 11 C 0.895377 2.777272 0.068300 0
M  V30 12 C 0.551844 2.901103 1.395636 0
M  V30 13 C 0.118161 1.742115 2.019978 0
M  V30 14 S -0.415406 1.539975 3.765914 0
M  V30 15 C -0.767434 -0.209616 3.626106 0
M  V30 16 C -1.254111 -0.859832 4.846283 0
M  V30 17 C -1.590282 -2.179123 4.988092 0
M  V30 18 C -2.045467 -2.796781 6.122791 0
M  V30 19 N -2.172199 -2.020370 7.203676 0
M  V30 20 C -1.863745 -0.717222 7.148229 0
M  V30 21 N -1.983150 0.157030 8.281690 0
M  V30 22 N -1.432213 -0.209197 6.009957 0
M  V30 23 C -0.482836 -0.513772 2.365667 0
M  V30 24 C -0.667996 -1.935038 1.892991 0
M  V30 25 C -0.032895 0.466713 1.540703 0
M  V30 26 C 0.329179 0.419108 0.208034 0
M  V30 27 C 1.659128 -0.934226 -2.586970 0
M  V30 28 H 3.643913 -2.544984 -2.010363 0
M  V30 29 H 4.001615 -4.142499 -2.834920 0
M  V30 30 H 4.047351 -2.631548 -3.780431 0
M  V30 31 H -0.364172 -3.325301 -3.717844 0
M  V30 32 H -2.011500 -1.534803 -3.449781 0
M  V30 33 H -1.381862 0.637023 -2.643677 0
M  V30 34 H 2.258761 1.480758 -2.028495 0
M  V30 35 H 1.236145 3.331836 -2.540804 0
M  V30 36 H 0.688769 2.251702 -3.691666 0
M  V30 37 H 1.230358 3.663992 -0.420750 0
M  V30 38 H 0.591121 3.792622 1.967754 0
M  V30 39 H -1.505787 -2.837709 4.152958 0
M  V30 40 H -2.294156 -3.835047 6.177421 0
M  V30 41 H -2.752266 0.579940 8.863921 0
M  V30 42 H -1.169301 0.565097 8.769280 0
M  V30 43 H 0.023967 -2.601056 2.437450 0
M  V30 44 H -0.373097 -2.055776 0.820166 0
M  V30 45 H -1.728666 -2.249105 1.929554 0
M  V30 46 H 0.289794 -0.505447 -0.390022 0
M  V30 47 H 2.694756 -0.770842 -2.345479 0
M  V30 END ATOM
M  V30 BEGIN BOND
M  V30 1 1 1 2
M  V30 2 1 2 3
M  V30 3 2 3 4
M  V30 4 1 4 5
M  V30 5 2 5 6
M  V30 6 1 6 7
M  V30 7 1 7 8
M  V30 8 1 8 9
M  V30 9 1 8 10
M  V30 10 2 10 11
M  V30 11 1 11 12
M  V30 12 2 12 13
M  V30 13 1 13 14
M  V30 14 1 14 15
M  V30 15 1 15 16
M  V30 16 2 16 17
M  V30 17 1 17 18
M  V30 18 2 18 19
M  V30 19 1 19 20
M  V30 20 1 20 21
M  V30 21 2 20 22
M  V30 22 2 15 23
M  V30 23 1 23 24
M  V30 24 1 23 25
M  V30 25 2 25 26
M  V30 26 2 7 27
M  V30 27 1 27 3
M  V30 28 1 26 10
M  V30 29 1 25 13
M  V30 30 1 22 16
M  V30 31 1 1 28
M  V30 32 1 1 29
M  V30 33 1 1 30
M  V30 34 1 4 31
M  V30 35 1 5 32
M  V30 36 1 6 33
M  V30 37 1 8 34
M  V30 38 1 9 35
M  V30 39 1 9 36
M  V30 40 1 11 37
M  V30 41 1 12 38
M  V30 42 1 17 39
M  V30 43 1 18 40
M  V30 44 1 21 41
M  V30 45 1 21 42
M  V30 46 1 24 43
M  V30 47 1 24 44
M  V30 48 1 24 45
M  V30 49 1 26 46
M  V30 50 1 27 47
M  V30 END BOND
M  V30 END CTAB
M  END
>  <Dataset>  (497) 
ChEMBL_Kinases

>  <Ligand_Instance>  (497) 
nan

>  <PDB_ID>  (497) 
nan

>  <Standardized_SMILES>  (497) 
COc1cccc(C(N)c2ccc3sc(-c4ccnc(N)n4)c(C)c3c2)c1

>  <Name>  (497) 
nan

>  <Pocket>  (497) 
nan

>  <ATP_Site>  (497) 
nan

>  <Peripheral>  (497) 
nan

>  <Num_H_Atoms_ProtBoundConf>  (497) 
nan

>  <Num_Resolved_Atoms>  (497) 
nan

>  <Num_Not_Resolved_Atoms>  (497) 
nan

$$$$
CHEMBL1083074
     RDKit          3D

  0  0  0  0  0  0  0  0  0  0999 V3000
M  V30 BEGIN CTAB
M  V30 COUNTS 44 47 0 0 0
M  V30 BEGIN ATOM
M  V30 1 C -0.199194 -2.258032 -0.875804 0
M  V30 2 C -0.021375 -0.762077 -0.909490 0
M  V30 3 C 0.339258 -0.165688 -2.059805 0
M  V30 4 C 0.647800 -0.513714 -3.425118 0
M  V30 5 C 0.650257 -1.767827 -3.992186 0
M  V30 6 C 0.942803 -2.104273 -5.289484 0
M  V30 7 N 1.260132 -1.099683 -6.087958 0
M  V30 8 C 1.284621 0.157272 -5.625346 0
M  V30 9 N 1.624487 1.287212 -6.456561 0
M  V30 10 N 0.986933 0.406061 -4.346834 0
M  V30 11 S 0.425929 1.575960 -1.626391 0
M  V30 12 C -0.036939 1.376531 0.101290 0
M  V30 13 C -0.168620 2.365240 1.055546 0
M  V30 14 C -0.537169 1.945586 2.313321 0
M  V30 15 C -0.732306 0.593738 2.478443 0
M  V30 16 C -1.139340 0.124639 3.855260 0
M  V30 17 N -2.211294 -0.843174 3.767120 0
M  V30 18 C 0.034811 -0.384128 4.562674 0
M  V30 19 C -0.205870 -1.073560 5.745392 0
M  V30 20 C 0.785334 -1.618287 6.535326 0
M  V30 21 C 2.112574 -1.467010 6.119882 0
M  V30 22 C 2.376850 -0.782209 4.942026 0
M  V30 23 O 3.706536 -0.635060 4.533184 0
M  V30 24 C 1.354604 -0.252009 4.180190 0
M  V30 25 C -0.584128 -0.338793 1.484706 0
M  V30 26 C -0.216835 0.011897 0.201187 0
M  V30 27 H 0.753117 -2.732061 -1.099512 0
M  V30 28 H -0.985264 -2.620393 -1.533523 0
M  V30 29 H -0.499267 -2.614373 0.143823 0
M  V30 30 H 0.396826 -2.612546 -3.373448 0
M  V30 31 H 0.919172 -3.120911 -5.648635 0
M  V30 32 H 2.402466 1.901953 -6.798587 0
M  V30 33 H 0.668196 1.509022 -6.809804 0
M  V30 34 H 0.017963 3.368285 0.769318 0
M  V30 35 H -0.642161 2.706249 3.061875 0
M  V30 36 H -1.555140 0.984204 4.417000 0
M  V30 37 H -2.736074 -0.822029 2.873940 0
M  V30 38 H -2.784306 -0.802592 4.625167 0
M  V30 39 H -1.226200 -1.219992 6.115180 0
M  V30 40 H 0.546078 -2.148086 7.450833 0
M  V30 41 H 2.916806 -1.877617 6.708334 0
M  V30 42 H 3.980682 -1.247209 3.749107 0
M  V30 43 H 1.522214 0.281150 3.267827 0
M  V30 44 H -0.777081 -1.382486 1.778122 0
M  V30 END ATOM
M  V30 BEGIN BOND
M  V30 1 1 1 2
M  V30 2 2 2 3
M  V30 3 1 3 4
M  V30 4 2 4 5
M  V30 5 1 5 6
M  V30 6 2 6 7
M  V30 7 1 7 8
M  V30 8 1 8 9
M  V30 9 2 8 10
M  V30 10 1 3 11
M  V30 11 1 11 12
M  V30 12 2 12 13
M  V30 13 1 13 14
M  V30 14 2 14 15
M  V30 15 1 15 16
M  V30 16 1 16 17
M  V30 17 1 16 18
M  V30 18 2 18 19
M  V30 19 1 19 20
M  V30 20 2 20 21
M  V30 21 1 21 22
M  V30 22 1 22 23
M  V30 23 2 22 24
M  V30 24 1 15 25
M  V30 25 2 25 26
M  V30 26 1 26 2
M  V30 27 1 10 4
M  V30 28 1 26 12
M  V30 29 1 24 18
M  V30 30 1 1 27
M  V30 31 1 1 28
M  V30 32 1 1 29
M  V30 33 1 5 30
M  V30 34 1 6 31
M  V30 35 1 9 32
M  V30 36 1 9 33
M  V30 37 1 13 34
M  V30 38 1 14 35
M  V30 39 1 16 36
M  V30 40 1 17 37
M  V30 41 1 17 38
M  V30 42 1 19 39
M  V30 43 1 20 40
M  V30 44 1 21 41
M  V30 45 1 23 42
M  V30 46 1 24 43
M  V30 47 1 25 44
M  V30 END BOND
M  V30 END CTAB
M  END
>  <Dataset>  (498) 
ChEMBL_Kinases

>  <Ligand_Instance>  (498) 
nan

>  <PDB_ID>  (498) 
nan

>  <Standardized_SMILES>  (498) 
Cc1c(-c2ccnc(N)n2)sc2ccc(C(N)c3cccc(O)c3)cc12

>  <Name>  (498) 
nan

>  <Pocket>  (498) 
nan

>  <ATP_Site>  (498) 
nan

>  <Peripheral>  (498) 
nan

>  <Num_H_Atoms_ProtBoundConf>  (498) 
nan

>  <Num_Resolved_Atoms>  (498) 
nan

>  <Num_Not_Resolved_Atoms>  (498) 
nan

$$$$
CHEMBL1083185
     RDKit          3D

  0  0  0  0  0  0  0  0  0  0999 V3000
M  V30 BEGIN CTAB
M  V30 COUNTS 33 35 0 0 0
M  V30 BEGIN ATOM
M  V30 1 C 2.566909 -4.561143 2.977716 0
M  V30 2 O 2.339955 -3.175060 3.260257 0
M  V30 3 C 1.665820 -2.381496 2.369927 0
M  V30 4 C 1.186771 -2.913873 1.166025 0
M  V30 5 C 0.508909 -2.110524 0.271500 0
M  V30 6 C 0.253105 -0.783014 0.467491 0
M  V30 7 C 0.736697 -0.314683 1.650101 0
M  V30 8 C 1.420594 -1.020942 2.604414 0
M  V30 9 Cl 2.017215 -0.353744 4.105657 0
M  V30 10 C -0.526362 0.068472 -0.389303 0
M  V30 11 C -0.847153 1.457385 -0.223629 0
M  V30 12 C -0.502992 2.537844 0.520283 0
M  V30 13 C -1.040544 3.786767 0.615218 0
M  V30 14 C -2.129810 4.036490 -0.173210 0
M  V30 15 C -2.615919 3.051241 -0.997258 0
M  V30 16 Br -4.134743 3.445136 -2.073902 0
M  V30 17 C -1.964420 1.843094 -0.979454 0
M  V30 18 N -0.955589 -0.619899 -1.357303 0
M  V30 19 C -0.843534 -1.946695 -1.749701 0
M  V30 20 C 0.084906 -2.810120 -0.954236 0
M  V30 21 H 3.017519 -5.061676 3.861758 0
M  V30 22 H 1.560032 -5.009445 2.747853 0
M  V30 23 H 3.194428 -4.722714 2.090101 0
M  V30 24 H 1.386914 -3.959646 1.009681 0
M  V30 25 H 0.577381 0.684812 1.962800 0
M  V30 26 H 0.391611 2.358963 1.080397 0
M  V30 27 H -0.581431 4.485272 1.293863 0
M  V30 28 H -2.585837 5.011877 -0.127613 0
M  V30 29 H -2.467996 1.152826 -1.689560 0
M  V30 30 H -1.881062 -2.408737 -1.764564 0
M  V30 31 H -0.516724 -1.951946 -2.836835 0
M  V30 32 H 1.000602 -2.994253 -1.565581 0
M  V30 33 H -0.374272 -3.802639 -0.737786 0
M  V30 END ATOM
M  V30 BEGIN BOND
M  V30 1 1 1 2
M  V30 2 1 2 3
M  V30 3 2 3 4
M  V30 4 1 4 5
M  V30 5 2 5 6
M  V30 6 1 6 7
M  V30 7 2 7 8
M  V30 8 1 8 9
M  V30 9 1 6 10
M  V30 10 1 10 11
M  V30 11 2 11 12
M  V30 12 1 12 13
M  V30 13 2 13 14
M  V30 14 1 14 15
M  V30 15 1 15 16
M  V30 16 2 15 17
M  V30 17 2 10 18
M  V30 18 1 18 19
M  V30 19 1 19 20
M  V30 20 1 8 3
M  V30 21 1 17 11
M  V30 22 1 20 5
M  V30 23 1 1 21
M  V30 24 1 1 22
M  V30 25 1 1 23
M  V30 26 1 4 24
M  V30 27 1 7 25
M  V30 28 1 12 26
M  V30 29 1 13 27
M  V30 30 1 14 28
M  V30 31 1 17 29
M  V30 32 1 19 30
M  V30 33 1 19 31
M  V30 34 1 20 32
M  V30 35 1 20 33
M  V30 END BOND
M  V30 END CTAB
M  END
>  <Dataset>  (499) 
ChEMBL_Kinases

>  <Ligand_Instance>  (499) 
nan

>  <PDB_ID>  (499) 
nan

>  <Standardized_SMILES>  (499) 
COc1cc2c(cc1Cl)C(c1cccc(Br)c1)=NCC2

>  <Name>  (499) 
nan

>  <Pocket>  (499) 
nan

>  <ATP_Site>  (499) 
nan

>  <Peripheral>  (499) 
nan

>  <Num_H_Atoms_ProtBoundConf>  (499) 
nan

>  <Num_Resolved_Atoms>  (499) 
nan

>  <Num_Not_Resolved_Atoms>  (499) 
nan

$$$$
CHEMBL1083208
     RDKit          3D

  0  0  0  0  0  0  0  0  0  0999 V3000
M  V30 BEGIN CTAB
M  V30 COUNTS 35 37 0 0 0
M  V30 BEGIN ATOM
M  V30 1 C -0.314231 -3.237048 3.880560 0
M  V30 2 C 0.873192 -4.161346 3.696811 0
M  V30 3 C 1.007013 -4.479738 2.203792 0
M  V30 4 C 1.216375 -3.154643 1.535570 0
M  V30 5 O 1.229148 -2.170827 2.339657 0
M  V30 6 N 1.389751 -2.960172 0.136930 0
M  V30 7 C 1.560150 -1.562651 -0.107690 0
M  V30 8 N 2.813358 -1.023033 -0.095082 0
M  V30 9 N 2.735235 0.277156 -0.343877 0
M  V30 10 C 1.442223 0.616914 -0.523596 0
M  V30 11 C 0.757725 1.801213 -0.805572 0
M  V30 12 C -0.631620 1.745623 -0.920493 0
M  V30 13 C -1.366092 2.984701 -1.212952 0
M  V30 14 C -0.894060 4.177535 -0.747573 0
M  V30 15 C -1.591033 5.336269 -1.027244 0
M  V30 16 S -3.072234 4.728508 -2.050268 0
M  V30 17 C -2.553295 2.961563 -1.968211 0
M  V30 18 C -1.342816 0.574677 -0.766881 0
M  V30 19 C -0.689172 -0.609105 -0.487790 0
M  V30 20 C 0.684233 -0.528224 -0.378984 0
M  V30 21 H -0.042732 -2.260281 4.297834 0
M  V30 22 H -1.055556 -3.748754 4.555817 0
M  V30 23 H -0.856199 -3.058269 2.912005 0
M  V30 24 H 1.788447 -3.625985 3.990686 0
M  V30 25 H 0.800016 -5.077524 4.294796 0
M  V30 26 H 0.046143 -4.951728 1.908221 0
M  V30 27 H 1.821309 -5.182255 2.011996 0
M  V30 28 H 1.365470 -3.828352 -0.455618 0
M  V30 29 H 3.499060 0.986844 -0.406960 0
M  V30 30 H 1.305808 2.709778 -0.925169 0
M  V30 31 H -0.003528 4.333527 -0.161911 0
M  V30 32 H -1.370298 6.419530 -0.735740 0
M  V30 33 H -3.003375 2.039220 -2.382154 0
M  V30 34 H -2.437797 0.599727 -0.870284 0
M  V30 35 H -1.216455 -1.544304 -0.361332 0
M  V30 END ATOM
M  V30 BEGIN BOND
M  V30 1 1 1 2
M  V30 2 1 2 3
M  V30 3 1 3 4
M  V30 4 2 4 5
M  V30 5 1 4 6
M  V30 6 1 6 7
M  V30 7 2 7 8
M  V30 8 1 8 9
M  V30 9 1 9 10
M  V30 10 2 10 11
M  V30 11 1 11 12
M  V30 12 1 12 13
M  V30 13 1 13 14
M  V30 14 2 14 15
M  V30 15 1 15 16
M  V30 16 1 16 17
M  V30 17 2 12 18
M  V30 18 1 18 19
M  V30 19 2 19 20
M  V30 20 1 20 7
M  V30 21 1 20 10
M  V30 22 2 17 13
M  V30 23 1 1 21
M  V30 24 1 1 22
M  V30 25 1 1 23
M  V30 26 1 2 24
M  V30 27 1 2 25
M  V30 28 1 3 26
M  V30 29 1 3 27
M  V30 30 1 6 28
M  V30 31 1 9 29
M  V30 32 1 11 30
M  V30 33 1 14 31
M  V30 34 1 15 32
M  V30 35 1 17 33
M  V30 36 1 18 34
M  V30 37 1 19 35
M  V30 END BOND
M  V30 END CTAB
M  END
>  <Dataset>  (500) 
ChEMBL_Kinases

>  <Ligand_Instance>  (500) 
nan

>  <PDB_ID>  (500) 
nan

>  <Standardized_SMILES>  (500) 
CCCC(=O)Nc1n[nH]c2cc(-c3ccsc3)ccc12

>  <Name>  (500) 
nan

>  <Pocket>  (500) 
nan

>  <ATP_Site>  (500) 
nan

>  <Peripheral>  (500) 
nan

>  <Num_H_Atoms_ProtBoundConf>  (500) 
nan

>  <Num_Resolved_Atoms>  (500) 
nan

>  <Num_Not_Resolved_Atoms>  (500) 
nan

$$$$
CHEMBL1083209
     RDKit          3D

  0  0  0  0  0  0  0  0  0  0999 V3000
M  V30 BEGIN CTAB
M  V30 COUNTS 39 41 0 0 0
M  V30 BEGIN ATOM
M  V30 1 C -0.482389 -6.869666 0.820853 0
M  V30 2 C -0.349488 -6.259863 2.180224 0
M  V30 3 C -1.280571 -5.111096 2.411603 0
M  V30 4 C -1.071411 -4.007643 1.460337 0
M  V30 5 O -0.122799 -4.445325 0.724912 0
M  V30 6 N -1.840321 -2.814774 1.505608 0
M  V30 7 C -1.662353 -1.729249 0.600371 0
M  V30 8 N -2.320376 -1.606922 -0.578316 0
M  V30 9 N -1.927878 -0.481792 -1.188767 0
M  V30 10 C -1.017021 0.112927 -0.394734 0
M  V30 11 C -0.298720 1.289771 -0.544080 0
M  V30 12 C 0.581605 1.653914 0.454571 0
M  V30 13 C 1.333466 2.900799 0.280288 0
M  V30 14 C 1.721392 3.686179 1.349691 0
M  V30 15 C 2.428724 4.862492 1.208546 0
M  V30 16 C 2.737331 5.225081 -0.082427 0
M  V30 17 N 3.473114 6.435583 -0.327584 0
M  V30 18 N 2.368186 4.471982 -1.146225 0
M  V30 19 C 1.678979 3.329268 -0.983642 0
M  V30 20 C 0.791814 0.911469 1.602197 0
M  V30 21 C 0.063971 -0.275515 1.747847 0
M  V30 22 C -0.818062 -0.648374 0.755808 0
M  V30 23 H 0.417472 -6.658851 0.200005 0
M  V30 24 H -1.365870 -6.484245 0.262194 0
M  V30 25 H -0.532840 -7.989281 0.860532 0
M  V30 26 H -0.546131 -7.021994 2.976182 0
M  V30 27 H 0.691693 -5.879098 2.373574 0
M  V30 28 H -1.070339 -4.699923 3.428532 0
M  V30 29 H -2.339077 -5.382757 2.402504 0
M  V30 30 H -2.554175 -2.793810 2.262270 0
M  V30 31 H -2.287637 -0.153668 -2.119009 0
M  V30 32 H -0.412040 1.923596 -1.418695 0
M  V30 33 H 1.438409 3.330126 2.335942 0
M  V30 34 H 2.722991 5.462559 2.057255 0
M  V30 35 H 2.884261 7.313704 -0.381008 0
M  V30 36 H 4.475156 6.696490 -0.473827 0
M  V30 37 H 1.406762 2.760662 -1.884012 0
M  V30 38 H 1.482795 1.214057 2.367971 0
M  V30 39 H 0.188341 -0.907619 2.638622 0
M  V30 END ATOM
M  V30 BEGIN BOND
M  V30 1 1 1 2
M  V30 2 1 2 3
M  V30 3 1 3 4
M  V30 4 2 4 5
M  V30 5 1 4 6
M  V30 6 1 6 7
M  V30 7 2 7 8
M  V30 8 1 8 9
M  V30 9 1 9 10
M  V30 10 2 10 11
M  V30 11 1 11 12
M  V30 12 1 12 13
M  V30 13 2 13 14
M  V30 14 1 14 15
M  V30 15 2 15 16
M  V30 16 1 16 17
M  V30 17 1 16 18
M  V30 18 2 18 19
M  V30 19 2 12 20
M  V30 20 1 20 21
M  V30 21 2 21 22
M  V30 22 1 22 7
M  V30 23 1 22 10
M  V30 24 1 19 13
M  V30 25 1 1 23
M  V30 26 1 1 24
M  V30 27 1 1 25
M  V30 28 1 2 26
M  V30 29 1 2 27
M  V30 30 1 3 28
M  V30 31 1 3 29
M  V30 32 1 6 30
M  V30 33 1 9 31
M  V30 34 1 11 32
M  V30 35 1 14 33
M  V30 36 1 15 34
M  V30 37 1 17 35
M  V30 38 1 17 36
M  V30 39 1 19 37
M  V30 40 1 20 38
M  V30 41 1 21 39
M  V30 END BOND
M  V30 END CTAB
M  END
>  <Dataset>  (501) 
ChEMBL_Kinases

>  <Ligand_Instance>  (501) 
nan

>  <PDB_ID>  (501) 
nan

>  <Standardized_SMILES>  (501) 
CCCC(=O)Nc1n[nH]c2cc(-c3ccc(N)nc3)ccc12

>  <Name>  (501) 
nan

>  <Pocket>  (501) 
nan

>  <ATP_Site>  (501) 
nan

>  <Peripheral>  (501) 
nan

>  <Num_H_Atoms_ProtBoundConf>  (501) 
nan

>  <Num_Resolved_Atoms>  (501) 
nan

>  <Num_Not_Resolved_Atoms>  (501) 
nan

$$$$
CHEMBL1083351
     RDKit          3D

  0  0  0  0  0  0  0  0  0  0999 V3000
M  V30 BEGIN CTAB
M  V30 COUNTS 46 49 0 0 0
M  V30 BEGIN ATOM
M  V30 1 C 2.733011 -4.962485 1.148820 0
M  V30 2 C 2.780764 -4.350035 -0.212521 0
M  V30 3 C 3.283565 -5.023200 -1.321503 0
M  V30 4 C 3.302159 -4.409221 -2.548836 0
M  V30 5 C 2.817983 -3.120105 -2.670987 0
M  V30 6 C 2.314643 -2.436068 -1.579671 0
M  V30 7 C 1.843071 -1.071036 -1.901882 0
M  V30 8 N 2.824973 -0.419886 -2.741585 0
M  V30 9 C 1.556026 -0.257868 -0.674104 0
M  V30 10 C 2.671077 0.248982 -0.038533 0
M  V30 11 C 2.414902 0.997358 1.090823 0
M  V30 12 C 1.090587 1.174634 1.485146 0
M  V30 13 S 0.385664 2.084633 2.897863 0
M  V30 14 C -1.303053 1.701246 2.501922 0
M  V30 15 C -2.382266 2.208560 3.358345 0
M  V30 16 C -2.075548 2.976569 4.460262 0
M  V30 17 C -3.184385 3.402961 5.200264 0
M  V30 18 N -4.472119 3.095472 4.875867 0
M  V30 19 C -4.702531 2.334812 3.777140 0
M  V30 20 N -5.974559 1.921478 3.295054 0
M  V30 21 N -3.652856 1.906106 3.039658 0
M  V30 22 C -1.225487 0.960335 1.401515 0
M  V30 23 C -2.557420 0.505941 0.865065 0
M  V30 24 C -0.015330 0.667837 0.848740 0
M  V30 25 C 0.247340 -0.082226 -0.283756 0
M  V30 26 C 2.297524 -3.055676 -0.348807 0
M  V30 27 H 2.905849 -6.067782 1.058113 0
M  V30 28 H 3.515340 -4.578641 1.820950 0
M  V30 29 H 1.738319 -4.855094 1.615815 0
M  V30 30 H 3.645666 -6.035853 -1.139980 0
M  V30 31 H 3.714546 -5.027242 -3.336015 0
M  V30 32 H 2.898202 -2.763803 -3.708952 0
M  V30 33 H 0.927470 -1.152122 -2.492263 0
M  V30 34 H 2.590163 -0.445180 -3.747735 0
M  V30 35 H 3.177031 0.472683 -2.379616 0
M  V30 36 H 3.674801 0.107663 -0.347663 0
M  V30 37 H 3.183874 1.459465 1.695149 0
M  V30 38 H -1.080146 3.240653 4.749946 0
M  V30 39 H -3.073306 4.010037 6.084443 0
M  V30 40 H -6.630103 2.649783 2.934529 0
M  V30 41 H -6.044431 0.868474 3.391249 0
M  V30 42 H -2.444307 -0.108225 -0.046893 0
M  V30 43 H -2.996984 -0.165524 1.627968 0
M  V30 44 H -3.198158 1.358348 0.614852 0
M  V30 45 H -0.524333 -0.547650 -0.892691 0
M  V30 46 H 1.891069 -2.465578 0.462396 0
M  V30 END ATOM
M  V30 BEGIN BOND
M  V30 1 1 1 2
M  V30 2 2 2 3
M  V30 3 1 3 4
M  V30 4 2 4 5
M  V30 5 1 5 6
M  V30 6 1 6 7
M  V30 7 1 7 8
M  V30 8 1 7 9
M  V30 9 2 9 10
M  V30 10 1 10 11
M  V30 11 2 11 12
M  V30 12 1 12 13
M  V30 13 1 13 14
M  V30 14 1 14 15
M  V30 15 2 15 16
M  V30 16 1 16 17
M  V30 17 2 17 18
M  V30 18 1 18 19
M  V30 19 1 19 20
M  V30 20 2 19 21
M  V30 21 2 14 22
M  V30 22 1 22 23
M  V30 23 1 22 24
M  V30 24 2 24 25
M  V30 25 2 6 26
M  V30 26 1 26 2
M  V30 27 1 25 9
M  V30 28 1 24 12
M  V30 29 1 21 15
M  V30 30 1 1 27
M  V30 31 1 1 28
M  V30 32 1 1 29
M  V30 33 1 3 30
M  V30 34 1 4 31
M  V30 35 1 5 32
M  V30 36 1 7 33
M  V30 37 1 8 34
M  V30 38 1 8 35
M  V30 39 1 10 36
M  V30 40 1 11 37
M  V30 41 1 16 38
M  V30 42 1 17 39
M  V30 43 1 20 40
M  V30 44 1 20 41
M  V30 45 1 23 42
M  V30 46 1 23 43
M  V30 47 1 23 44
M  V30 48 1 25 45
M  V30 49 1 26 46
M  V30 END BOND
M  V30 END CTAB
M  END
>  <Dataset>  (502) 
ChEMBL_Kinases

>  <Ligand_Instance>  (502) 
nan

>  <PDB_ID>  (502) 
nan

>  <Standardized_SMILES>  (502) 
Cc1cccc(C(N)c2ccc3sc(-c4ccnc(N)n4)c(C)c3c2)c1

>  <Name>  (502) 
nan

>  <Pocket>  (502) 
nan

>  <ATP_Site>  (502) 
nan

>  <Peripheral>  (502) 
nan

>  <Num_H_Atoms_ProtBoundConf>  (502) 
nan

>  <Num_Resolved_Atoms>  (502) 
nan

>  <Num_Not_Resolved_Atoms>  (502) 
nan

$$$$
CHEMBL1082831
     RDKit          3D

  0  0  0  0  0  0  0  0  0  0999 V3000
M  V30 BEGIN CTAB
M  V30 COUNTS 55 59 0 0 0
M  V30 BEGIN ATOM
M  V30 1 C -1.010613 0.721692 6.437364 0
M  V30 2 O -1.744845 1.658875 5.670978 0
M  V30 3 C -1.645008 1.675366 4.290432 0
M  V30 4 C -0.810549 0.751809 3.693738 0
M  V30 5 C -0.668584 0.718153 2.321938 0
M  V30 6 C -1.348870 1.599123 1.487100 0
M  V30 7 C -1.230736 1.599166 0.027932 0
M  V30 8 N -0.455109 0.744462 -0.662468 0
M  V30 9 C -0.529056 0.959588 -1.987015 0
M  V30 10 C 0.053696 0.380734 -3.118816 0
M  V30 11 N 0.930058 -0.697954 -2.830782 0
M  V30 12 C 2.368113 -0.643903 -2.554731 0
M  V30 13 C 2.675956 -1.420303 -1.277968 0
M  V30 14 N 2.292335 -2.746161 -1.469164 0
M  V30 15 C 2.310563 -3.656849 -0.393215 0
M  V30 16 C 1.263441 -3.320403 0.603738 0
M  V30 17 O 0.460763 -2.344188 0.492382 0
M  V30 18 N 1.107525 -4.095775 1.759582 0
M  V30 19 C 0.057629 -3.713812 2.703606 0
M  V30 20 N -0.754205 -2.786641 2.659268 0
M  V30 21 C -1.643824 -2.590792 3.616029 0
M  V30 22 C -1.662216 -3.463021 4.708687 0
M  V30 23 S -0.230658 -4.615632 4.195624 0
M  V30 24 C 1.516625 -3.075930 -2.598912 0
M  V30 25 C 0.403427 -2.046131 -2.793155 0
M  V30 26 C -0.267279 0.887222 -4.372444 0
M  V30 27 Cl 0.506454 0.102709 -5.720774 0
M  V30 28 C -1.161031 1.957555 -4.468858 0
M  V30 29 N -1.687656 2.472293 -3.365633 0
M  V30 30 C -1.418939 2.029266 -2.120489 0
M  V30 31 N -1.833683 2.401943 -0.875435 0
M  V30 32 C -2.169427 2.501146 2.135182 0
M  V30 33 C -2.329273 2.556678 3.500061 0
M  V30 34 H -1.123442 0.905023 7.508247 0
M  V30 35 H 0.086393 0.789052 6.204144 0
M  V30 36 H -1.306231 -0.324405 6.194751 0
M  V30 37 H -0.230973 0.014054 4.262493 0
M  V30 38 H -0.018248 0.005541 1.815616 0
M  V30 39 H 2.733317 0.389718 -2.523839 0
M  V30 40 H 2.862231 -1.152725 -3.406465 0
M  V30 41 H 3.756856 -1.340536 -1.051031 0
M  V30 42 H 2.152492 -0.985181 -0.407722 0
M  V30 43 H 2.252108 -4.719776 -0.720627 0
M  V30 44 H 3.289177 -3.577436 0.132078 0
M  V30 45 H 1.706564 -4.925849 1.968009 0
M  V30 46 H -2.295004 -1.727294 3.434047 0
M  V30 47 H -2.422816 -3.273518 5.498876 0
M  V30 48 H 2.159978 -3.063539 -3.501264 0
M  V30 49 H 1.105891 -4.084741 -2.456393 0
M  V30 50 H -0.438186 -2.186948 -2.100320 0
M  V30 51 H -0.050861 -2.200008 -3.817464 0
M  V30 52 H -1.376252 2.312668 -5.473362 0
M  V30 53 H -2.507764 3.180501 -0.648644 0
M  V30 54 H -2.747243 3.235538 1.551402 0
M  V30 55 H -2.987928 3.288641 3.950935 0
M  V30 END ATOM
M  V30 BEGIN BOND
M  V30 1 1 1 2
M  V30 2 1 2 3
M  V30 3 2 3 4
M  V30 4 1 4 5
M  V30 5 2 5 6
M  V30 6 1 6 7
M  V30 7 2 7 8
M  V30 8 1 8 9
M  V30 9 2 9 10
M  V30 10 1 10 11
M  V30 11 1 11 12
M  V30 12 1 12 13
M  V30 13 1 13 14
M  V30 14 1 14 15
M  V30 15 1 15 16
M  V30 16 2 16 17
M  V30 17 1 16 18
M  V30 18 1 18 19
M  V30 19 2 19 20
M  V30 20 1 20 21
M  V30 21 2 21 22
M  V30 22 1 22 23
M  V30 23 1 14 24
M  V30 24 1 24 25
M  V30 25 1 10 26
M  V30 26 1 26 27
M  V30 27 2 26 28
M  V30 28 1 28 29
M  V30 29 2 29 30
M  V30 30 1 30 31
M  V30 31 1 6 32
M  V30 32 2 32 33
M  V30 33 1 33 3
M  V30 34 1 31 7
M  V30 35 1 30 9
M  V30 36 1 25 11
M  V30 37 1 23 19
M  V30 38 1 1 34
M  V30 39 1 1 35
M  V30 40 1 1 36
M  V30 41 1 4 37
M  V30 42 1 5 38
M  V30 43 1 12 39
M  V30 44 1 12 40
M  V30 45 1 13 41
M  V30 46 1 13 42
M  V30 47 1 15 43
M  V30 48 1 15 44
M  V30 49 1 18 45
M  V30 50 1 21 46
M  V30 51 1 22 47
M  V30 52 1 24 48
M  V30 53 1 24 49
M  V30 54 1 25 50
M  V30 55 1 25 51
M  V30 56 1 28 52
M  V30 57 1 31 53
M  V30 58 1 32 54
M  V30 59 1 33 55
M  V30 END BOND
M  V30 END CTAB
M  END
>  <Dataset>  (503) 
ChEMBL_Kinases

>  <Ligand_Instance>  (503) 
nan

>  <PDB_ID>  (503) 
nan

>  <Standardized_SMILES>  (503) 
COc1ccc(-c2nc3c(N4CCN(CC(=O)Nc5nccs5)CC4)c(Cl)cnc3[nH]2)cc1

>  <Name>  (503) 
nan

>  <Pocket>  (503) 
nan

>  <ATP_Site>  (503) 
nan

>  <Peripheral>  (503) 
nan

>  <Num_H_Atoms_ProtBoundConf>  (503) 
nan

>  <Num_Resolved_Atoms>  (503) 
nan

>  <Num_Not_Resolved_Atoms>  (503) 
nan

$$$$
CHEMBL106072
     RDKit          3D

  0  0  0  0  0  0  0  0  0  0999 V3000
M  V30 BEGIN CTAB
M  V30 COUNTS 19 19 0 0 0
M  V30 BEGIN ATOM
M  V30 1 O -0.493570 -1.618460 3.191898 0
M  V30 2 C 0.152363 -0.600994 2.864838 0
M  V30 3 C 0.493596 0.324261 3.968319 0
M  V30 4 Br -0.203630 -0.376331 5.630750 0
M  V30 5 C 0.573380 -0.287213 1.501624 0
M  V30 6 C 1.288312 0.824311 1.091592 0
M  V30 7 C 1.603852 0.969158 -0.227415 0
M  V30 8 C 1.240140 0.046734 -1.193775 0
M  V30 9 N 1.618974 0.287425 -2.557484 0 CHG=1 VAL=4
M  V30 10 O 1.269760 -0.571406 -3.397043 0
M  V30 11 O 2.330953 1.411992 -2.907823 0 CHG=-1 VAL=1
M  V30 12 C 0.536781 -1.050100 -0.801244 0
M  V30 13 C 0.212754 -1.207378 0.525131 0
M  V30 14 H 1.586403 0.379564 4.059800 0
M  V30 15 H -0.008782 1.289242 3.755008 0
M  V30 16 H 1.542435 1.505003 1.885945 0
M  V30 17 H 2.158350 1.857970 -0.457451 0
M  V30 18 H 0.246051 -1.781314 -1.553534 0
M  V30 19 H -0.349624 -2.110836 0.751794 0
M  V30 END ATOM
M  V30 BEGIN BOND
M  V30 1 2 1 2
M  V30 2 1 2 3
M  V30 3 1 3 4
M  V30 4 1 2 5
M  V30 5 2 5 6
M  V30 6 1 6 7
M  V30 7 2 7 8
M  V30 8 1 8 9
M  V30 9 2 9 10
M  V30 10 1 9 11
M  V30 11 1 8 12
M  V30 12 2 12 13
M  V30 13 1 13 5
M  V30 14 1 3 14
M  V30 15 1 3 15
M  V30 16 1 6 16
M  V30 17 1 7 17
M  V30 18 1 12 18
M  V30 19 1 13 19
M  V30 END BOND
M  V30 END CTAB
M  END
>  <Dataset>  (504) 
ChEMBL_Kinases

>  <Ligand_Instance>  (504) 
nan

>  <PDB_ID>  (504) 
nan

>  <Standardized_SMILES>  (504) 
O=C(CBr)c1ccc([N+](=O)[O-])cc1

>  <Name>  (504) 
nan

>  <Pocket>  (504) 
nan

>  <ATP_Site>  (504) 
nan

>  <Peripheral>  (504) 
nan

>  <Num_H_Atoms_ProtBoundConf>  (504) 
nan

>  <Num_Resolved_Atoms>  (504) 
nan

>  <Num_Not_Resolved_Atoms>  (504) 
nan

$$$$
CHEMBL106061
     RDKit          3D

  0  0  0  0  0  0  0  0  0  0999 V3000
M  V30 BEGIN CTAB
M  V30 COUNTS 67 72 0 0 0
M  V30 BEGIN ATOM
M  V30 1 C 2.553240 0.751810 1.614407 0
M  V30 2 N 2.888618 -0.669467 1.813610 0
M  V30 3 C 2.991939 -1.026818 3.186837 0
M  V30 4 C 1.744134 -0.868204 3.968133 0
M  V30 5 O 0.615481 -1.487924 3.500347 0
M  V30 6 C -0.465563 -1.312061 4.369187 0
M  V30 7 C -1.787592 -1.712489 3.816158 0
M  V30 8 N -2.198314 -0.845849 2.721207 0
M  V30 9 C -2.328084 -1.101541 1.408246 0
M  V30 10 C -2.731159 0.074690 0.783464 0
M  V30 11 C -2.832921 1.037337 1.782702 0
M  V30 12 C -3.204603 2.382436 1.684382 0
M  V30 13 C -3.264000 3.211566 2.788108 0
M  V30 14 C -2.935856 2.640769 3.999713 0
M  V30 15 C -2.577928 1.323630 4.050473 0
M  V30 16 C -2.502127 0.455332 2.978523 0
M  V30 17 C -2.997695 0.194314 -0.631595 0
M  V30 18 C -2.312356 -0.126235 -1.706057 0
M  V30 19 C -3.113539 0.241484 -2.908790 0
M  V30 20 O -2.901419 0.139395 -4.169136 0
M  V30 21 N -4.374959 0.825318 -2.534150 0
M  V30 22 C -4.277640 0.783616 -1.116198 0
M  V30 23 O -5.265397 1.239951 -0.431665 0
M  V30 24 C -1.034350 -0.748086 -2.030315 0
M  V30 25 C 0.239954 -0.227988 -2.108388 0
M  V30 26 N 1.098435 -1.199236 -2.480975 0
M  V30 27 C 0.442007 -2.380244 -2.659614 0
M  V30 28 C 0.698996 -3.662836 -3.017622 0
M  V30 29 C -0.220212 -4.678911 -3.121545 0
M  V30 30 C -1.549867 -4.422405 -2.845970 0
M  V30 31 C -1.858262 -3.116643 -2.474992 0
M  V30 32 C -0.907386 -2.107729 -2.377468 0
M  V30 33 C 2.498963 -0.996903 -2.689699 0
M  V30 34 C 3.452049 -1.952028 -2.154274 0
M  V30 35 O 3.489845 -1.977443 -0.777873 0
M  V30 36 C 4.190400 -0.848309 -0.292316 0
M  V30 37 C 4.223581 -0.851293 1.210397 0
M  V30 38 H 3.429601 1.323223 2.003482 0
M  V30 39 H 1.699096 0.970626 2.269937 0
M  V30 40 H 2.337457 0.943305 0.548581 0
M  V30 41 H 3.745017 -0.314731 3.643036 0
M  V30 42 H 3.461196 -2.022676 3.274571 0
M  V30 43 H 1.942932 -1.320542 4.984148 0
M  V30 44 H 1.498333 0.194892 4.187212 0
M  V30 45 H -0.435578 -0.265623 4.665494 0
M  V30 46 H -0.299588 -1.894787 5.315907 0
M  V30 47 H -1.762567 -2.773457 3.482110 0
M  V30 48 H -2.550579 -1.667763 4.606513 0
M  V30 49 H -2.136286 -2.069066 0.988255 0
M  V30 50 H -3.470192 2.890050 0.757064 0
M  V30 51 H -3.541138 4.234673 2.746835 0
M  V30 52 H -2.970924 3.255910 4.886353 0
M  V30 53 H -2.351424 0.952151 5.038979 0
M  V30 54 H -5.144883 1.179989 -3.116251 0
M  V30 55 H 0.582525 0.779422 -1.919194 0
M  V30 56 H 1.673964 -3.978562 -3.260891 0
M  V30 57 H 0.029551 -5.688927 -3.410438 0
M  V30 58 H -2.293185 -5.195680 -2.916949 0
M  V30 59 H -2.919475 -2.978736 -2.271501 0
M  V30 60 H 2.749884 0.035764 -2.389046 0
M  V30 61 H 2.625538 -0.978506 -3.817933 0
M  V30 62 H 3.572850 -2.933039 -2.644623 0
M  V30 63 H 4.489244 -1.482537 -2.409641 0
M  V30 64 H 5.231435 -1.004728 -0.637454 0
M  V30 65 H 3.847939 0.092513 -0.723292 0
M  V30 66 H 4.808358 0.032268 1.533569 0
M  V30 67 H 4.675250 -1.796650 1.542689 0
M  V30 END ATOM
M  V30 BEGIN BOND
M  V30 1 1 1 2
M  V30 2 1 2 3
M  V30 3 1 3 4
M  V30 4 1 4 5
M  V30 5 1 5 6
M  V30 6 1 6 7
M  V30 7 1 7 8
M  V30 8 1 8 9
M  V30 9 2 9 10
M  V30 10 1 10 11
M  V30 11 2 11 12
M  V30 12 1 12 13
M  V30 13 2 13 14
M  V30 14 1 14 15
M  V30 15 2 15 16
M  V30 16 1 10 17
M  V30 17 2 17 18
M  V30 18 1 18 19
M  V30 19 2 19 20
M  V30 20 1 19 21
M  V30 21 1 21 22
M  V30 22 2 22 23
M  V30 23 1 18 24
M  V30 24 2 24 25
M  V30 25 1 25 26
M  V30 26 1 26 27
M  V30 27 2 27 28
M  V30 28 1 28 29
M  V30 29 2 29 30
M  V30 30 1 30 31
M  V30 31 2 31 32
M  V30 32 1 26 33
M  V30 33 1 33 34
M  V30 34 1 34 35
M  V30 35 1 35 36
M  V30 36 1 36 37
M  V30 37 1 37 2
M  V30 38 1 16 8
M  V30 39 1 22 17
M  V30 40 1 32 24
M  V30 41 1 16 11
M  V30 42 1 32 27
M  V30 43 1 1 38
M  V30 44 1 1 39
M  V30 45 1 1 40
M  V30 46 1 3 41
M  V30 47 1 3 42
M  V30 48 1 4 43
M  V30 49 1 4 44
M  V30 50 1 6 45
M  V30 51 1 6 46
M  V30 52 1 7 47
M  V30 53 1 7 48
M  V30 54 1 9 49
M  V30 55 1 12 50
M  V30 56 1 13 51
M  V30 57 1 14 52
M  V30 58 1 15 53
M  V30 59 1 21 54
M  V30 60 1 25 55
M  V30 61 1 28 56
M  V30 62 1 29 57
M  V30 63 1 30 58
M  V30 64 1 31 59
M  V30 65 1 33 60
M  V30 66 1 33 61
M  V30 67 1 34 62
M  V30 68 1 34 63
M  V30 69 1 36 64
M  V30 70 1 36 65
M  V30 71 1 37 66
M  V30 72 1 37 67
M  V30 END BOND
M  V30 END CTAB
M  END
>  <Dataset>  (505) 
ChEMBL_Kinases

>  <Ligand_Instance>  (505) 
nan

>  <PDB_ID>  (505) 
nan

>  <Standardized_SMILES>  (505) 
CN1CCOCCn2cc(c3ccccc32)C2=C(C(=O)NC2=O)c2cn(c3ccccc23)CCOCC1

>  <Name>  (505) 
nan

>  <Pocket>  (505) 
nan

>  <ATP_Site>  (505) 
nan

>  <Peripheral>  (505) 
nan

>  <Num_H_Atoms_ProtBoundConf>  (505) 
nan

>  <Num_Resolved_Atoms>  (505) 
nan

>  <Num_Not_Resolved_Atoms>  (505) 
nan

$$$$
CHEMBL105802
     RDKit          3D

  0  0  0  0  0  0  0  0  0  0999 V3000
M  V30 BEGIN CTAB
M  V30 COUNTS 45 48 0 0 0
M  V30 BEGIN ATOM
M  V30 1 O -1.981733 -2.240456 0.390530 0
M  V30 2 C -0.935536 -1.978285 -0.262126 0
M  V30 3 C 0.150522 -2.896703 -0.583498 0
M  V30 4 C -0.007826 -3.582693 -1.785447 0
M  V30 5 C 0.967480 -4.485601 -2.193145 0
M  V30 6 C 2.070427 -4.681888 -1.397937 0
M  V30 7 C 2.252051 -4.009973 -0.194332 0
M  V30 8 N 3.198121 -4.007585 0.747849 0
M  V30 9 C 2.852902 -3.135761 1.733327 0
M  V30 10 C 1.627804 -2.570678 1.378656 0
M  V30 11 C 1.273607 -3.121433 0.188370 0
M  V30 12 N -0.848554 -0.634590 -0.711829 0
M  V30 13 C -1.907174 0.320525 -0.416607 0
M  V30 14 C -1.355326 1.710858 -0.205379 0
M  V30 15 N -0.013267 1.639109 0.158257 0
M  V30 16 C 0.493858 2.377441 1.220049 0
M  V30 17 C -0.070251 2.156906 2.555507 0
M  V30 18 C 0.495505 1.195408 3.367143 0
M  V30 19 C 0.059584 0.895790 4.634411 0
M  V30 20 C -1.029116 1.600810 5.155762 0
M  V30 21 C -1.627976 2.573401 4.378797 0
M  V30 22 C -1.150063 2.834923 3.111260 0
M  V30 23 C 0.891036 1.001439 -0.722981 0
M  V30 24 C 0.287182 -0.165867 -1.475270 0
M  V30 25 H -0.844709 -3.491716 -2.477090 0
M  V30 26 H 0.876266 -5.036649 -3.122922 0
M  V30 27 H 2.809208 -5.390263 -1.744010 0
M  V30 28 H 4.055133 -4.597225 0.699946 0
M  V30 29 H 3.457239 -2.956505 2.605905 0
M  V30 30 H 1.078403 -1.844878 1.939090 0
M  V30 31 H -2.611976 0.270113 -1.276346 0
M  V30 32 H -2.485863 -0.000905 0.474215 0
M  V30 33 H -1.445620 2.221810 -1.206551 0
M  V30 34 H -1.929032 2.311707 0.493556 0
M  V30 35 H 0.372388 3.479450 1.003952 0
M  V30 36 H 1.584653 2.232652 1.293717 0
M  V30 37 H 1.340099 0.591891 3.065582 0
M  V30 38 H 0.503079 0.142210 5.270470 0
M  V30 39 H -1.425461 1.422224 6.137331 0
M  V30 40 H -2.467466 3.150037 4.720785 0
M  V30 41 H -1.611912 3.593482 2.496877 0
M  V30 42 H 1.289405 1.758545 -1.432368 0
M  V30 43 H 1.768514 0.631470 -0.139958 0
M  V30 44 H -0.164359 0.293592 -2.402466 0
M  V30 45 H 0.987591 -0.949145 -1.750936 0
M  V30 END ATOM
M  V30 BEGIN BOND
M  V30 1 2 1 2
M  V30 2 1 2 3
M  V30 3 2 3 4
M  V30 4 1 4 5
M  V30 5 2 5 6
M  V30 6 1 6 7
M  V30 7 1 7 8
M  V30 8 1 8 9
M  V30 9 2 9 10
M  V30 10 1 10 11
M  V30 11 1 2 12
M  V30 12 1 12 13
M  V30 13 1 13 14
M  V30 14 1 14 15
M  V30 15 1 15 16
M  V30 16 1 16 17
M  V30 17 2 17 18
M  V30 18 1 18 19
M  V30 19 2 19 20
M  V30 20 1 20 21
M  V30 21 2 21 22
M  V30 22 1 15 23
M  V30 23 1 23 24
M  V30 24 1 11 3
M  V30 25 1 24 12
M  V30 26 2 11 7
M  V30 27 1 22 17
M  V30 28 1 4 25
M  V30 29 1 5 26
M  V30 30 1 6 27
M  V30 31 1 8 28
M  V30 32 1 9 29
M  V30 33 1 10 30
M  V30 34 1 13 31
M  V30 35 1 13 32
M  V30 36 1 14 33
M  V30 37 1 14 34
M  V30 38 1 16 35
M  V30 39 1 16 36
M  V30 40 1 18 37
M  V30 41 1 19 38
M  V30 42 1 20 39
M  V30 43 1 21 40
M  V30 44 1 22 41
M  V30 45 1 23 42
M  V30 46 1 23 43
M  V30 47 1 24 44
M  V30 48 1 24 45
M  V30 END BOND
M  V30 END CTAB
M  END
>  <Dataset>  (506) 
ChEMBL_Kinases

>  <Ligand_Instance>  (506) 
nan

>  <PDB_ID>  (506) 
nan

>  <Standardized_SMILES>  (506) 
O=C(c1cccc2[nH]ccc12)N1CCN(Cc2ccccc2)CC1

>  <Name>  (506) 
nan

>  <Pocket>  (506) 
nan

>  <ATP_Site>  (506) 
nan

>  <Peripheral>  (506) 
nan

>  <Num_H_Atoms_ProtBoundConf>  (506) 
nan

>  <Num_Resolved_Atoms>  (506) 
nan

>  <Num_Not_Resolved_Atoms>  (506) 
nan

$$$$
CHEMBL105739
     RDKit          3D

  0  0  0  0  0  0  0  0  0  0999 V3000
M  V30 BEGIN CTAB
M  V30 COUNTS 32 34 0 0 0
M  V30 BEGIN ATOM
M  V30 1 C -1.547457 -3.649447 3.173729 0
M  V30 2 C -0.391223 -2.984687 2.515101 0
M  V30 3 C 0.917837 -2.766215 2.935699 0
M  V30 4 C 1.553780 -2.097153 1.912927 0
M  V30 5 C 3.006415 -1.733911 2.117099 0
M  V30 6 C 0.671919 -1.883395 0.842046 0
M  V30 7 C 1.229098 -1.251216 -0.325576 0
M  V30 8 C 0.907168 -0.175186 -0.994214 0
M  V30 9 C 1.479807 0.434381 -2.171847 0
M  V30 10 O 2.448590 -0.068076 -2.797647 0
M  V30 11 N 0.766458 1.628750 -2.445171 0
M  V30 12 C -0.236205 1.755604 -1.444512 0
M  V30 13 C -1.163580 2.760253 -1.282246 0
M  V30 14 C -2.047105 2.712532 -0.227473 0
M  V30 15 C -1.996041 1.649317 0.667890 0
M  V30 16 C -1.050376 0.667506 0.464061 0
M  V30 17 C -0.170068 0.696129 -0.573703 0
M  V30 18 N -0.483047 -2.450413 1.288744 0
M  V30 19 H -2.501686 -3.100148 3.049065 0
M  V30 20 H -1.666826 -4.691609 2.847078 0
M  V30 21 H -1.350033 -3.612710 4.285512 0
M  V30 22 H 1.265105 -3.096614 3.894631 0
M  V30 23 H 3.395184 -1.242416 1.206873 0
M  V30 24 H 3.112005 -1.069270 3.003997 0
M  V30 25 H 3.533865 -2.666960 2.356992 0
M  V30 26 H 2.105927 -1.750843 -0.778667 0
M  V30 27 H 1.016679 2.227855 -3.254901 0
M  V30 28 H -1.189492 3.561477 -1.978678 0
M  V30 29 H -2.744041 3.523721 -0.154806 0
M  V30 30 H -2.743245 1.739532 1.445895 0
M  V30 31 H -1.151987 -0.038504 1.250784 0
M  V30 32 H -1.279541 -2.372584 0.578694 0
M  V30 END ATOM
M  V30 BEGIN BOND
M  V30 1 1 1 2
M  V30 2 2 2 3
M  V30 3 1 3 4
M  V30 4 1 4 5
M  V30 5 2 4 6
M  V30 6 1 6 7
M  V30 7 2 7 8
M  V30 8 1 8 9
M  V30 9 2 9 10
M  V30 10 1 9 11
M  V30 11 1 11 12
M  V30 12 2 12 13
M  V30 13 1 13 14
M  V30 14 2 14 15
M  V30 15 1 15 16
M  V30 16 2 16 17
M  V30 17 1 6 18
M  V30 18 1 18 2
M  V30 19 1 17 8
M  V30 20 1 17 12
M  V30 21 1 1 19
M  V30 22 1 1 20
M  V30 23 1 1 21
M  V30 24 1 3 22
M  V30 25 1 5 23
M  V30 26 1 5 24
M  V30 27 1 5 25
M  V30 28 1 7 26
M  V30 29 1 11 27
M  V30 30 1 13 28
M  V30 31 1 14 29
M  V30 32 1 15 30
M  V30 33 1 16 31
M  V30 34 1 18 32
M  V30 END BOND
M  V30 END CTAB
M  END
>  <Dataset>  (507) 
ChEMBL_Kinases

>  <Ligand_Instance>  (507) 
nan

>  <PDB_ID>  (507) 
nan

>  <Standardized_SMILES>  (507) 
Cc1cc(C)c(/C=C2/C(=O)Nc3ccccc32)[nH]1

>  <Name>  (507) 
nan

>  <Pocket>  (507) 
nan

>  <ATP_Site>  (507) 
nan

>  <Peripheral>  (507) 
nan

>  <Num_H_Atoms_ProtBoundConf>  (507) 
nan

>  <Num_Resolved_Atoms>  (507) 
nan

>  <Num_Not_Resolved_Atoms>  (507) 
nan

$$$$
CHEMBL105712
     RDKit          3D

  0  0  0  0  0  0  0  0  0  0999 V3000
M  V30 BEGIN CTAB
M  V30 COUNTS 17 17 0 0 0
M  V30 BEGIN ATOM
M  V30 1 O 1.611500 -2.149858 2.232579 0
M  V30 2 C 0.896798 -1.377643 1.507469 0
M  V30 3 C -0.277185 -2.044910 0.835461 0
M  V30 4 Cl 0.192576 -2.059152 -0.917264 0
M  V30 5 C 1.198614 0.036753 1.343425 0
M  V30 6 C 2.324908 0.532887 1.954917 0
M  V30 7 C 2.614606 1.880855 1.783482 0
M  V30 8 C 1.786741 2.649148 1.031261 0
M  V30 9 C 0.634507 2.140621 0.408416 0
M  V30 10 C 0.343167 0.797544 0.575810 0
M  V30 11 H -0.380345 -3.104267 1.140649 0
M  V30 12 H -1.178527 -1.460137 0.945100 0
M  V30 13 H 2.960485 -0.122355 2.538098 0
M  V30 14 H 3.509649 2.268589 2.264719 0
M  V30 15 H 2.026372 3.710276 0.907788 0
M  V30 16 H 0.002800 2.812452 -0.173867 0
M  V30 17 H -0.549715 0.396253 0.098984 0
M  V30 END ATOM
M  V30 BEGIN BOND
M  V30 1 2 1 2
M  V30 2 1 2 3
M  V30 3 1 3 4
M  V30 4 1 2 5
M  V30 5 2 5 6
M  V30 6 1 6 7
M  V30 7 2 7 8
M  V30 8 1 8 9
M  V30 9 2 9 10
M  V30 10 1 10 5
M  V30 11 1 3 11
M  V30 12 1 3 12
M  V30 13 1 6 13
M  V30 14 1 7 14
M  V30 15 1 8 15
M  V30 16 1 9 16
M  V30 17 1 10 17
M  V30 END BOND
M  V30 END CTAB
M  END
>  <Dataset>  (508) 
ChEMBL_Kinases

>  <Ligand_Instance>  (508) 
nan

>  <PDB_ID>  (508) 
nan

>  <Standardized_SMILES>  (508) 
O=C(CCl)c1ccccc1

>  <Name>  (508) 
PHENACYL CHLORIDE

>  <Pocket>  (508) 
nan

>  <ATP_Site>  (508) 
nan

>  <Peripheral>  (508) 
nan

>  <Num_H_Atoms_ProtBoundConf>  (508) 
nan

>  <Num_Resolved_Atoms>  (508) 
nan

>  <Num_Not_Resolved_Atoms>  (508) 
nan

$$$$
CHEMBL105620
     RDKit          3D

  0  0  0  0  0  0  0  0  0  0999 V3000
M  V30 BEGIN CTAB
M  V30 COUNTS 78 83 0 0 0
M  V30 BEGIN ATOM
M  V30 1 C 3.284882 -2.889095 3.533213 0
M  V30 2 N 3.836037 -2.330301 2.380895 0
M  V30 3 C 4.130044 -3.081999 1.258851 0
M  V30 4 C 3.177934 -3.640228 0.303763 0
M  V30 5 O 2.414784 -2.804303 -0.499232 0
M  V30 6 C 1.713486 -3.603174 -1.370078 0
M  V30 7 C 1.026620 -3.101385 -2.536267 0
M  V30 8 O 0.041055 -2.257073 -2.751769 0
M  V30 9 C -1.224934 -2.394839 -2.346170 0
M  V30 10 C -2.279916 -1.471287 -2.887493 0
M  V30 11 N -2.184252 -0.081866 -2.683934 0
M  V30 12 C -1.102500 0.499801 -3.484226 0
M  V30 13 C -3.402200 0.677206 -2.899231 0
M  V30 14 C -3.299298 2.062377 -2.252642 0
M  V30 15 N -3.343756 1.920613 -0.797785 0
M  V30 16 C -2.622364 0.990180 -0.179050 0
M  V30 17 C -2.809534 0.910512 1.190310 0
M  V30 18 C -3.719377 1.884131 1.395175 0
M  V30 19 C -4.176630 2.090819 2.679539 0
M  V30 20 C -5.140414 3.115756 2.730636 0
M  V30 21 C -5.528130 3.795680 1.566567 0
M  V30 22 C -4.998658 3.500219 0.334442 0
M  V30 23 C -4.057058 2.516850 0.182187 0
M  V30 24 C -1.965353 -0.190304 1.610616 0
M  V30 25 C -0.748981 -0.491106 1.797929 0
M  V30 26 C -0.777648 -1.911907 2.240638 0
M  V30 27 O 0.129870 -2.774021 2.575981 0
M  V30 28 N -2.122380 -2.487860 2.323615 0
M  V30 29 C -2.876875 -1.316213 1.900582 0
M  V30 30 O -4.131415 -1.538349 1.880522 0
M  V30 31 C 0.661186 -0.181864 1.793628 0
M  V30 32 C 1.563573 -0.108746 2.817676 0
M  V30 33 N 2.756866 0.097096 2.249199 0
M  V30 34 C 2.765199 0.185292 0.913096 0
M  V30 35 C 3.668932 0.360944 -0.100120 0
M  V30 36 C 3.285541 0.356028 -1.427676 0
M  V30 37 C 1.938458 0.161874 -1.638386 0
M  V30 38 C 1.007088 -0.014298 -0.637864 0
M  V30 39 C 1.404145 -0.003374 0.665617 0
M  V30 40 C 3.921867 0.002455 3.157953 0
M  V30 41 C 4.722859 -1.247657 2.630344 0
M  V30 42 H 4.091436 -3.341490 4.219657 0
M  V30 43 H 2.541021 -3.697630 3.377669 0
M  V30 44 H 2.805335 -2.146317 4.181941 0
M  V30 45 H 4.803917 -3.951401 1.618828 0
M  V30 46 H 4.908477 -2.487322 0.664390 0
M  V30 47 H 2.467580 -4.387454 0.734870 0
M  V30 48 H 3.775253 -4.274229 -0.429236 0
M  V30 49 H 2.499570 -4.351990 -1.748839 0
M  V30 50 H 1.019185 -4.298772 -0.793791 0
M  V30 51 H 0.759935 -4.077862 -3.143155 0
M  V30 52 H 1.893991 -2.735329 -3.266600 0
M  V30 53 H -1.233490 -2.192327 -1.218465 0
M  V30 54 H -1.642070 -3.430269 -2.449255 0
M  V30 55 H -3.275817 -1.898412 -2.596229 0
M  V30 56 H -2.241934 -1.625142 -4.014926 0
M  V30 57 H -0.594372 1.235980 -2.831510 0
M  V30 58 H -1.530093 1.039887 -4.363948 0
M  V30 59 H -0.384199 -0.260313 -3.839675 0
M  V30 60 H -4.248895 0.102396 -2.481576 0
M  V30 61 H -3.559466 0.762005 -3.989969 0
M  V30 62 H -4.184031 2.636840 -2.590422 0
M  V30 63 H -2.383291 2.575634 -2.558580 0
M  V30 64 H -1.960154 0.384564 -0.739630 0
M  V30 65 H -3.889339 1.575040 3.576114 0
M  V30 66 H -5.623843 3.412474 3.675008 0
M  V30 67 H -6.275474 4.596035 1.581274 0
M  V30 68 H -5.231493 3.963130 -0.617492 0
M  V30 69 H -2.429638 -3.449506 2.599152 0
M  V30 70 H 1.323477 -0.204054 3.858411 0
M  V30 71 H 4.702236 0.522749 0.135853 0
M  V30 72 H 4.049034 0.499895 -2.169591 0
M  V30 73 H 1.646391 0.143873 -2.668196 0
M  V30 74 H 0.058914 -0.158829 -1.026719 0
M  V30 75 H 3.564808 -0.279839 4.147309 0
M  V30 76 H 4.584238 0.856079 3.095678 0
M  V30 77 H 5.432151 -1.482999 3.472696 0
M  V30 78 H 5.356751 -0.932150 1.799824 0
M  V30 END ATOM
M  V30 BEGIN BOND
M  V30 1 1 1 2
M  V30 2 1 2 3
M  V30 3 1 3 4
M  V30 4 1 4 5
M  V30 5 1 5 6
M  V30 6 1 6 7
M  V30 7 1 7 8
M  V30 8 1 8 9
M  V30 9 1 9 10
M  V30 10 1 10 11
M  V30 11 1 11 12
M  V30 12 1 11 13
M  V30 13 1 13 14
M  V30 14 1 14 15
M  V30 15 1 15 16
M  V30 16 2 16 17
M  V30 17 1 17 18
M  V30 18 2 18 19
M  V30 19 1 19 20
M  V30 20 2 20 21
M  V30 21 1 21 22
M  V30 22 2 22 23
M  V30 23 1 17 24
M  V30 24 2 24 25
M  V30 25 1 25 26
M  V30 26 2 26 27
M  V30 27 1 26 28
M  V30 28 1 28 29
M  V30 29 2 29 30
M  V30 30 1 25 31
M  V30 31 2 31 32
M  V30 32 1 32 33
M  V30 33 1 33 34
M  V30 34 2 34 35
M  V30 35 1 35 36
M  V30 36 2 36 37
M  V30 37 1 37 38
M  V30 38 2 38 39
M  V30 39 1 33 40
M  V30 40 1 40 41
M  V30 41 1 41 2
M  V30 42 1 23 15
M  V30 43 1 29 24
M  V30 44 1 39 31
M  V30 45 1 23 18
M  V30 46 1 39 34
M  V30 47 1 1 42
M  V30 48 1 1 43
M  V30 49 1 1 44
M  V30 50 1 3 45
M  V30 51 1 3 46
M  V30 52 1 4 47
M  V30 53 1 4 48
M  V30 54 1 6 49
M  V30 55 1 6 50
M  V30 56 1 7 51
M  V30 57 1 7 52
M  V30 58 1 9 53
M  V30 59 1 9 54
M  V30 60 1 10 55
M  V30 61 1 10 56
M  V30 62 1 12 57
M  V30 63 1 12 58
M  V30 64 1 12 59
M  V30 65 1 13 60
M  V30 66 1 13 61
M  V30 67 1 14 62
M  V30 68 1 14 63
M  V30 69 1 16 64
M  V30 70 1 19 65
M  V30 71 1 20 66
M  V30 72 1 21 67
M  V30 73 1 22 68
M  V30 74 1 28 69
M  V30 75 1 32 70
M  V30 76 1 35 71
M  V30 77 1 36 72
M  V30 78 1 37 73
M  V30 79 1 38 74
M  V30 80 1 40 75
M  V30 81 1 40 76
M  V30 82 1 41 77
M  V30 83 1 41 78
M  V30 END BOND
M  V30 END CTAB
M  END
>  <Dataset>  (509) 
ChEMBL_Kinases

>  <Ligand_Instance>  (509) 
nan

>  <PDB_ID>  (509) 
nan

>  <Standardized_SMILES>  (509) 
CN1CCOCCOCCN(C)CCn2cc(c3ccccc32)C2=C(C(=O)NC2=O)c2cn(c3ccccc23)CC1

>  <Name>  (509) 
nan

>  <Pocket>  (509) 
nan

>  <ATP_Site>  (509) 
nan

>  <Peripheral>  (509) 
nan

>  <Num_H_Atoms_ProtBoundConf>  (509) 
nan

>  <Num_Resolved_Atoms>  (509) 
nan

>  <Num_Not_Resolved_Atoms>  (509) 
nan

$$$$
CHEMBL105477
     RDKit          3D

  0  0  0  0  0  0  0  0  0  0999 V3000
M  V30 BEGIN CTAB
M  V30 COUNTS 71 76 0 0 0
M  V30 BEGIN ATOM
M  V30 1 C 0.884573 -3.793507 3.061609 0
M  V30 2 N 1.745670 -3.051238 2.098128 0
M  V30 3 C 2.310152 -3.938887 1.229633 0
M  V30 4 C 2.961966 -3.608584 -0.049042 0
M  V30 5 O 2.209445 -3.066977 -1.055964 0
M  V30 6 C 1.194726 -3.942717 -1.395667 0
M  V30 7 C 0.345791 -3.514325 -2.555815 0
M  V30 8 N -0.283727 -2.274353 -2.299843 0
M  V30 9 C 0.676683 -1.207979 -2.306748 0
M  V30 10 C -1.456433 -2.005051 -3.052369 0
M  V30 11 C -2.073653 -0.727478 -2.728807 0
M  V30 12 N -2.501450 -0.424347 -1.407234 0
M  V30 13 C -2.169416 0.765179 -0.840251 0
M  V30 14 C -2.710954 0.797045 0.426181 0
M  V30 15 C -3.384931 -0.382873 0.647165 0
M  V30 16 C -4.091378 -0.814582 1.774007 0
M  V30 17 C -4.675598 -2.067989 1.711488 0
M  V30 18 C -4.553680 -2.844525 0.571989 0
M  V30 19 C -3.843479 -2.366070 -0.512337 0
M  V30 20 C -3.242661 -1.141327 -0.518858 0
M  V30 21 C -2.536688 1.947776 1.297862 0
M  V30 22 C -1.428946 2.505683 1.756373 0
M  V30 23 C -1.776243 3.652756 2.606582 0
M  V30 24 O -0.964406 4.408128 3.202850 0
M  V30 25 N -3.191493 3.798664 2.667017 0
M  V30 26 C -3.664770 2.729603 1.846735 0
M  V30 27 O -4.919240 2.550059 1.668556 0
M  V30 28 C -0.093154 2.011938 1.442001 0
M  V30 29 C 0.232079 0.673300 1.626193 0
M  V30 30 N 1.522588 0.537129 1.260346 0
M  V30 31 C 1.987531 1.732816 0.864265 0
M  V30 32 C 3.208737 2.195442 0.392529 0
M  V30 33 C 3.442769 3.523010 0.039777 0
M  V30 34 C 2.398357 4.436803 0.166582 0
M  V30 35 C 1.171100 4.000727 0.634259 0
M  V30 36 C 1.002713 2.693248 0.961760 0
M  V30 37 C 2.182270 -0.778371 1.351144 0
M  V30 38 C 1.245542 -1.790055 1.918189 0
M  V30 39 H 0.074743 -4.266278 2.487158 0
M  V30 40 H 0.479879 -3.072791 3.786609 0
M  V30 41 H 1.471058 -4.546378 3.604536 0
M  V30 42 H 1.643659 -4.865857 1.038761 0
M  V30 43 H 3.156462 -4.484529 1.826949 0
M  V30 44 H 3.437380 -4.567148 -0.426022 0
M  V30 45 H 3.856103 -2.961373 0.170788 0
M  V30 46 H 0.577734 -4.050059 -0.457915 0
M  V30 47 H 1.680302 -4.931007 -1.571678 0
M  V30 48 H -0.368355 -4.350016 -2.760573 0
M  V30 49 H 1.056748 -3.472564 -3.437104 0
M  V30 50 H 1.658941 -1.615522 -2.705726 0
M  V30 51 H 0.833732 -0.724718 -1.336243 0
M  V30 52 H 0.423357 -0.415174 -3.060652 0
M  V30 53 H -2.145070 -2.869759 -3.152554 0
M  V30 54 H -1.090787 -1.899140 -4.124878 0
M  V30 55 H -1.470142 0.112086 -3.115201 0
M  V30 56 H -3.024718 -0.656797 -3.362955 0
M  V30 57 H -1.592548 1.540651 -1.292863 0
M  V30 58 H -4.173454 -0.198141 2.645808 0
M  V30 59 H -5.220856 -2.368820 2.618823 0
M  V30 60 H -5.025239 -3.814214 0.566485 0
M  V30 61 H -3.759665 -2.973387 -1.377074 0
M  V30 62 H -3.699171 4.518437 3.191370 0
M  V30 63 H -0.467569 -0.061909 1.993238 0
M  V30 64 H 4.016754 1.485424 0.295497 0
M  V30 65 H 4.427998 3.767952 -0.314942 0
M  V30 66 H 2.597894 5.467135 -0.110866 0
M  V30 67 H 0.408488 4.777412 0.704296 0
M  V30 68 H 3.115884 -0.673688 1.953692 0
M  V30 69 H 2.492229 -1.009238 0.344987 0
M  V30 70 H 0.293259 -1.836107 1.270152 0
M  V30 71 H 0.811853 -1.331984 2.877413 0
M  V30 END ATOM
M  V30 BEGIN BOND
M  V30 1 1 1 2
M  V30 2 1 2 3
M  V30 3 1 3 4
M  V30 4 1 4 5
M  V30 5 1 5 6
M  V30 6 1 6 7
M  V30 7 1 7 8
M  V30 8 1 8 9
M  V30 9 1 8 10
M  V30 10 1 10 11
M  V30 11 1 11 12
M  V30 12 1 12 13
M  V30 13 2 13 14
M  V30 14 1 14 15
M  V30 15 2 15 16
M  V30 16 1 16 17
M  V30 17 2 17 18
M  V30 18 1 18 19
M  V30 19 2 19 20
M  V30 20 1 14 21
M  V30 21 2 21 22
M  V30 22 1 22 23
M  V30 23 2 23 24
M  V30 24 1 23 25
M  V30 25 1 25 26
M  V30 26 2 26 27
M  V30 27 1 22 28
M  V30 28 2 28 29
M  V30 29 1 29 30
M  V30 30 1 30 31
M  V30 31 2 31 32
M  V30 32 1 32 33
M  V30 33 2 33 34
M  V30 34 1 34 35
M  V30 35 2 35 36
M  V30 36 1 30 37
M  V30 37 1 37 38
M  V30 38 1 38 2
M  V30 39 1 20 12
M  V30 40 1 26 21
M  V30 41 1 36 28
M  V30 42 1 20 15
M  V30 43 1 36 31
M  V30 44 1 1 39
M  V30 45 1 1 40
M  V30 46 1 1 41
M  V30 47 1 3 42
M  V30 48 1 3 43
M  V30 49 1 4 44
M  V30 50 1 4 45
M  V30 51 1 6 46
M  V30 52 1 6 47
M  V30 53 1 7 48
M  V30 54 1 7 49
M  V30 55 1 9 50
M  V30 56 1 9 51
M  V30 57 1 9 52
M  V30 58 1 10 53
M  V30 59 1 10 54
M  V30 60 1 11 55
M  V30 61 1 11 56
M  V30 62 1 13 57
M  V30 63 1 16 58
M  V30 64 1 17 59
M  V30 65 1 18 60
M  V30 66 1 19 61
M  V30 67 1 25 62
M  V30 68 1 29 63
M  V30 69 1 32 64
M  V30 70 1 33 65
M  V30 71 1 34 66
M  V30 72 1 35 67
M  V30 73 1 37 68
M  V30 74 1 37 69
M  V30 75 1 38 70
M  V30 76 1 38 71
M  V30 END BOND
M  V30 END CTAB
M  END
>  <Dataset>  (510) 
ChEMBL_Kinases

>  <Ligand_Instance>  (510) 
nan

>  <PDB_ID>  (510) 
nan

>  <Standardized_SMILES>  (510) 
CN1CCOCCN(C)CCn2cc(c3ccccc32)C2=C(C(=O)NC2=O)c2cn(c3ccccc23)CC1

>  <Name>  (510) 
nan

>  <Pocket>  (510) 
nan

>  <ATP_Site>  (510) 
nan

>  <Peripheral>  (510) 
nan

>  <Num_H_Atoms_ProtBoundConf>  (510) 
nan

>  <Num_Resolved_Atoms>  (510) 
nan

>  <Num_Not_Resolved_Atoms>  (510) 
nan

$$$$
CHEMBL105457
     RDKit          3D

  0  0  0  0  0  0  0  0  0  0999 V3000
M  V30 BEGIN CTAB
M  V30 COUNTS 29 29 0 0 0
M  V30 BEGIN ATOM
M  V30 1 C -0.036476 2.387704 2.255234 0
M  V30 2 C 0.957986 1.860483 1.265684 0 CFG=1
M  V30 3 O 1.954633 1.179391 1.953048 0
M  V30 4 C 2.123403 -0.062985 1.296340 0
M  V30 5 C 1.286370 -0.010396 0.104385 0 CFG=1
M  V30 6 C 0.672562 -1.231589 -0.447722 0
M  V30 7 N -0.243628 -1.972412 0.334640 0 CHG=1 VAL=4
M  V30 8 C -1.374779 -1.150874 0.735484 0
M  V30 9 C -0.829213 -2.959361 -0.595300 0
M  V30 10 C 0.299439 -2.740165 1.412246 0
M  V30 11 O 0.313475 0.945208 0.436654 0
M  V30 12 H 0.535363 2.662453 3.181658 0
M  V30 13 H -0.510042 3.326200 1.872786 0
M  V30 14 H -0.800290 1.654691 2.517531 0
M  V30 15 H 1.392072 2.704645 0.712746 0
M  V30 16 H 1.939039 -0.808332 2.067864 0
M  V30 17 H 3.225319 -0.106993 1.057977 0
M  V30 18 H 1.873161 0.462841 -0.712299 0
M  V30 19 H 1.455091 -1.930790 -0.808719 0
M  V30 20 H 0.126036 -0.931229 -1.372463 0
M  V30 21 H -1.135434 -0.566716 1.673189 0
M  V30 22 H -2.312941 -1.736191 0.828125 0
M  V30 23 H -1.578981 -0.349805 -0.005655 0
M  V30 24 H -0.040672 -3.716254 -0.771954 0
M  V30 25 H -1.656037 -3.423569 -0.018300 0
M  V30 26 H -1.184371 -2.488090 -1.521171 0
M  V30 27 H -0.186379 -3.756315 1.503287 0
M  V30 28 H 0.089420 -2.298300 2.426880 0
M  V30 29 H 1.368769 -2.995651 1.266519 0
M  V30 END ATOM
M  V30 BEGIN BOND
M  V30 1 1 1 2
M  V30 2 1 2 3
M  V30 3 1 3 4
M  V30 4 1 4 5
M  V30 5 1 5 6
M  V30 6 1 6 7
M  V30 7 1 7 8
M  V30 8 1 7 9
M  V30 9 1 7 10
M  V30 10 1 5 11
M  V30 11 1 11 2
M  V30 12 1 1 12
M  V30 13 1 1 13
M  V30 14 1 1 14
M  V30 15 1 2 15 CFG=3
M  V30 16 1 4 16
M  V30 17 1 4 17
M  V30 18 1 5 18 CFG=3
M  V30 19 1 6 19
M  V30 20 1 6 20
M  V30 21 1 8 21
M  V30 22 1 8 22
M  V30 23 1 8 23
M  V30 24 1 9 24
M  V30 25 1 9 25
M  V30 26 1 9 26
M  V30 27 1 10 27
M  V30 28 1 10 28
M  V30 29 1 10 29
M  V30 END BOND
M  V30 END CTAB
M  END
>  <Dataset>  (511) 
ChEMBL_Kinases

>  <Ligand_Instance>  (511) 
nan

>  <PDB_ID>  (511) 
nan

>  <Standardized_SMILES>  (511) 
C[C@H]1OC[C@@H](C[N+](C)(C)C)O1

>  <Name>  (511) 
nan

>  <Pocket>  (511) 
nan

>  <ATP_Site>  (511) 
nan

>  <Peripheral>  (511) 
nan

>  <Num_H_Atoms_ProtBoundConf>  (511) 
nan

>  <Num_Resolved_Atoms>  (511) 
nan

>  <Num_Not_Resolved_Atoms>  (511) 
nan

$$$$
CHEMBL105248
     RDKit          3D

  0  0  0  0  0  0  0  0  0  0999 V3000
M  V30 BEGIN CTAB
M  V30 COUNTS 70 74 0 0 0
M  V30 BEGIN ATOM
M  V30 1 C 5.796677 -2.466873 4.242392 0
M  V30 2 C 4.624938 -3.092304 3.474531 0
M  V30 3 C 3.496851 -3.251925 4.467024 0
M  V30 4 C 4.282099 -2.151431 2.380323 0
M  V30 5 C 3.820300 -0.884541 2.652819 0
M  V30 6 C 3.591988 -0.256719 1.449057 0
M  V30 7 N 3.138699 0.980693 0.886511 0
M  V30 8 C 1.718875 1.072708 0.644269 0
M  V30 9 O 0.961628 0.082973 0.941835 0
M  V30 10 N 0.988694 2.183617 0.082548 0
M  V30 11 C -0.436309 1.952369 -0.020055 0
M  V30 12 C -0.852851 1.352691 -1.190626 0
M  V30 13 C -2.212952 1.155976 -1.227758 0
M  V30 14 C -3.165442 1.468629 -0.284620 0
M  V30 15 O -4.508337 1.336341 -0.199742 0
M  V30 16 C -5.508841 0.833096 -0.957927 0
M  V30 17 C -5.714502 -0.582801 -1.270282 0
M  V30 18 N -4.732758 -1.387826 -1.890721 0
M  V30 19 C -5.371595 -2.573428 -2.524095 0
M  V30 20 C -5.459771 -3.739945 -1.598627 0
M  V30 21 O -5.635835 -3.380810 -0.278255 0
M  V30 22 C -4.538494 -2.658131 0.174901 0
M  V30 23 C -3.789195 -2.022676 -0.959035 0
M  V30 24 C -2.667801 2.077021 0.881224 0
M  V30 25 C -3.419693 2.480831 1.962960 0
M  V30 26 C -2.845381 3.070334 3.067242 0
M  V30 27 C -1.487960 3.286928 3.147223 0
M  V30 28 C -0.693353 2.900534 2.090972 0
M  V30 29 C -1.289501 2.313165 0.997822 0
M  V30 30 N 3.915906 -1.144050 0.459299 0
M  V30 31 C 3.923098 -1.159784 -0.983770 0
M  V30 32 C 2.991237 -1.871892 -1.705477 0
M  V30 33 C 3.022922 -1.867455 -3.088105 0
M  V30 34 C 3.971629 -1.162705 -3.783350 0
M  V30 35 C 4.915640 -0.441426 -3.071009 0
M  V30 36 C 4.886189 -0.444167 -1.690344 0
M  V30 37 N 4.328107 -2.276191 1.045406 0
M  V30 38 H 5.430999 -1.478885 4.586806 0
M  V30 39 H 6.091727 -3.088520 5.104915 0
M  V30 40 H 6.614017 -2.277241 3.519174 0
M  V30 41 H 4.945601 -4.081187 3.086267 0
M  V30 42 H 2.847972 -4.117021 4.218028 0
M  V30 43 H 2.933608 -2.315256 4.542228 0
M  V30 44 H 3.937177 -3.470414 5.462329 0
M  V30 45 H 3.604442 -0.292802 3.504010 0
M  V30 46 H 3.619143 1.841289 0.604572 0
M  V30 47 H 1.603399 2.994574 -0.169501 0
M  V30 48 H -0.272563 1.038473 -2.031047 0
M  V30 49 H -2.699910 0.686925 -2.096412 0
M  V30 50 H -5.378501 1.342248 -1.999224 0
M  V30 51 H -6.509093 1.326948 -0.658534 0
M  V30 52 H -6.604991 -0.596808 -2.010706 0
M  V30 53 H -6.123439 -1.159917 -0.394986 0
M  V30 54 H -4.634223 -2.853091 -3.333085 0
M  V30 55 H -6.316626 -2.319324 -3.008669 0
M  V30 56 H -6.363998 -4.361847 -1.879956 0
M  V30 57 H -4.553210 -4.388597 -1.625498 0
M  V30 58 H -4.866925 -1.947868 0.931056 0
M  V30 59 H -3.873707 -3.415551 0.672990 0
M  V30 60 H -3.279203 -2.807055 -1.595095 0
M  V30 61 H -3.011927 -1.347749 -0.656467 0
M  V30 62 H -4.491738 2.311772 1.904142 0
M  V30 63 H -3.501622 3.370438 3.897783 0
M  V30 64 H -1.105192 3.751350 4.035762 0
M  V30 65 H 0.373778 3.066602 2.143304 0
M  V30 66 H 2.224440 -2.442430 -1.212291 0
M  V30 67 H 2.279384 -2.435622 -3.653409 0
M  V30 68 H 4.013301 -1.146080 -4.865531 0
M  V30 69 H 5.666099 0.116682 -3.600280 0
M  V30 70 H 5.638645 0.130814 -1.128732 0
M  V30 END ATOM
M  V30 BEGIN BOND
M  V30 1 1 1 2
M  V30 2 1 2 3
M  V30 3 1 2 4
M  V30 4 1 4 5
M  V30 5 2 5 6
M  V30 6 1 6 7
M  V30 7 1 7 8
M  V30 8 2 8 9
M  V30 9 1 8 10
M  V30 10 1 10 11
M  V30 11 2 11 12
M  V30 12 1 12 13
M  V30 13 2 13 14
M  V30 14 1 14 15
M  V30 15 1 15 16
M  V30 16 1 16 17
M  V30 17 1 17 18
M  V30 18 1 18 19
M  V30 19 1 19 20
M  V30 20 1 20 21
M  V30 21 1 21 22
M  V30 22 1 22 23
M  V30 23 1 14 24
M  V30 24 2 24 25
M  V30 25 1 25 26
M  V30 26 2 26 27
M  V30 27 1 27 28
M  V30 28 2 28 29
M  V30 29 1 6 30
M  V30 30 1 30 31
M  V30 31 2 31 32
M  V30 32 1 32 33
M  V30 33 2 33 34
M  V30 34 1 34 35
M  V30 35 2 35 36
M  V30 36 1 30 37
M  V30 37 2 37 4
M  V30 38 1 29 11
M  V30 39 1 36 31
M  V30 40 1 23 18
M  V30 41 1 29 24
M  V30 42 1 1 38
M  V30 43 1 1 39
M  V30 44 1 1 40
M  V30 45 1 2 41
M  V30 46 1 3 42
M  V30 47 1 3 43
M  V30 48 1 3 44
M  V30 49 1 5 45
M  V30 50 1 7 46
M  V30 51 1 10 47
M  V30 52 1 12 48
M  V30 53 1 13 49
M  V30 54 1 16 50
M  V30 55 1 16 51
M  V30 56 1 17 52
M  V30 57 1 17 53
M  V30 58 1 19 54
M  V30 59 1 19 55
M  V30 60 1 20 56
M  V30 61 1 20 57
M  V30 62 1 22 58
M  V30 63 1 22 59
M  V30 64 1 23 60
M  V30 65 1 23 61
M  V30 66 1 25 62
M  V30 67 1 26 63
M  V30 68 1 27 64
M  V30 69 1 28 65
M  V30 70 1 32 66
M  V30 71 1 33 67
M  V30 72 1 34 68
M  V30 73 1 35 69
M  V30 74 1 36 70
M  V30 END BOND
M  V30 END CTAB
M  END
>  <Dataset>  (512) 
ChEMBL_Kinases

>  <Ligand_Instance>  (512) 
nan

>  <PDB_ID>  (512) 
nan

>  <Standardized_SMILES>  (512) 
CC(C)c1cc(NC(=O)Nc2ccc(OCCN3CCOCC3)c3ccccc23)n(-c2ccccc2)n1

>  <Name>  (512) 
nan

>  <Pocket>  (512) 
nan

>  <ATP_Site>  (512) 
nan

>  <Peripheral>  (512) 
nan

>  <Num_H_Atoms_ProtBoundConf>  (512) 
nan

>  <Num_Resolved_Atoms>  (512) 
nan

>  <Num_Not_Resolved_Atoms>  (512) 
nan

$$$$
CHEMBL105082
     RDKit          3D

  0  0  0  0  0  0  0  0  0  0999 V3000
M  V30 BEGIN CTAB
M  V30 COUNTS 55 58 0 0 0
M  V30 BEGIN ATOM
M  V30 1 C 3.921116 -2.296330 2.278048 0
M  V30 2 O 3.104275 -1.228228 1.853474 0
M  V30 3 C 3.503694 -0.333889 0.895266 0
M  V30 4 C 4.765753 -0.496771 0.327267 0
M  V30 5 C 5.272019 0.335538 -0.639324 0
M  V30 6 N 6.439895 0.379639 -1.325357 0
M  V30 7 C 6.361639 1.450890 -2.163508 0
M  V30 8 C 5.137244 2.086174 -2.005201 0
M  V30 9 C 4.464922 1.371500 -1.042945 0
M  V30 10 C 3.212309 1.555843 -0.497879 0
M  V30 11 C 2.701140 0.724726 0.470502 0
M  V30 12 C 1.413036 0.801586 1.124403 0
M  V30 13 O 1.263704 1.457345 2.166507 0
M  V30 14 N 0.173895 0.207501 0.755968 0
M  V30 15 C -0.885048 0.552454 1.716362 0
M  V30 16 C -2.013144 -0.489252 1.620072 0 CFG=2
M  V30 17 C -1.458488 -1.759512 2.184555 0
M  V30 18 N -2.583824 -0.536070 0.339866 0
M  V30 19 C -3.414669 -1.587985 -0.052626 0
M  V30 20 C -4.652381 -1.825136 0.676958 0
M  V30 21 C -5.814068 -1.172919 0.268299 0
M  V30 22 C -7.034197 -1.324251 0.880723 0
M  V30 23 C -7.149122 -2.164439 1.967044 0
M  V30 24 C -6.025497 -2.850374 2.430863 0
M  V30 25 C -4.834541 -2.649539 1.766867 0
M  V30 26 C -1.652939 -0.214560 -0.717116 0
M  V30 27 C -0.237896 -0.643739 -0.343560 0 CFG=1
M  V30 28 C 0.663373 -0.483033 -1.545879 0
M  V30 29 H 4.843886 -1.935331 2.786594 0
M  V30 30 H 4.135513 -2.913640 1.378930 0
M  V30 31 H 3.283235 -2.878737 3.004529 0
M  V30 32 H 5.379266 -1.318242 0.662054 0
M  V30 33 H 7.234586 -0.290727 -1.215770 0
M  V30 34 H 7.120681 1.787112 -2.862522 0
M  V30 35 H 4.748193 2.962712 -2.510134 0
M  V30 36 H 2.542643 2.365380 -0.791554 0
M  V30 37 H -1.313638 1.530273 1.403917 0
M  V30 38 H -0.520025 0.544404 2.742647 0
M  V30 39 H -2.772299 -0.106155 2.341993 0
M  V30 40 H -0.366220 -1.710541 2.372428 0
M  V30 41 H -1.648329 -2.662942 1.594801 0
M  V30 42 H -1.891316 -1.993891 3.201673 0
M  V30 43 H -3.698467 -1.382095 -1.129695 0
M  V30 44 H -2.895916 -2.587645 -0.147865 0
M  V30 45 H -5.813413 -0.504344 -0.564522 0
M  V30 46 H -7.928206 -0.820944 0.564486 0
M  V30 47 H -8.086032 -2.318403 2.484473 0
M  V30 48 H -6.100345 -3.514717 3.284309 0
M  V30 49 H -3.969145 -3.183271 2.128048 0
M  V30 50 H -1.624622 0.881079 -0.901335 0
M  V30 51 H -1.920331 -0.788963 -1.616995 0
M  V30 52 H -0.170267 -1.677027 -0.017231 0
M  V30 53 H 0.264769 -1.032031 -2.397875 0
M  V30 54 H 0.797903 0.607808 -1.791192 0
M  V30 55 H 1.670779 -0.867226 -1.286594 0
M  V30 END ATOM
M  V30 BEGIN BOND
M  V30 1 1 1 2
M  V30 2 1 2 3
M  V30 3 2 3 4
M  V30 4 1 4 5
M  V30 5 1 5 6
M  V30 6 1 6 7
M  V30 7 2 7 8
M  V30 8 1 8 9
M  V30 9 1 9 10
M  V30 10 2 10 11
M  V30 11 1 11 12
M  V30 12 2 12 13
M  V30 13 1 12 14
M  V30 14 1 14 15
M  V30 15 1 15 16
M  V30 16 1 16 17
M  V30 17 1 16 18
M  V30 18 1 18 19
M  V30 19 1 19 20
M  V30 20 2 20 21
M  V30 21 1 21 22
M  V30 22 2 22 23
M  V30 23 1 23 24
M  V30 24 2 24 25
M  V30 25 1 18 26
M  V30 26 1 26 27
M  V30 27 1 27 28
M  V30 28 1 11 3
M  V30 29 1 27 14
M  V30 30 2 9 5
M  V30 31 1 25 20
M  V30 32 1 1 29
M  V30 33 1 1 30
M  V30 34 1 1 31
M  V30 35 1 4 32
M  V30 36 1 6 33
M  V30 37 1 7 34
M  V30 38 1 8 35
M  V30 39 1 10 36
M  V30 40 1 15 37
M  V30 41 1 15 38
M  V30 42 1 16 39 CFG=1
M  V30 43 1 17 40
M  V30 44 1 17 41
M  V30 45 1 17 42
M  V30 46 1 19 43
M  V30 47 1 19 44
M  V30 48 1 21 45
M  V30 49 1 22 46
M  V30 50 1 23 47
M  V30 51 1 24 48
M  V30 52 1 25 49
M  V30 53 1 26 50
M  V30 54 1 26 51
M  V30 55 1 27 52 CFG=1
M  V30 56 1 28 53
M  V30 57 1 28 54
M  V30 58 1 28 55
M  V30 END BOND
M  V30 END CTAB
M  END
>  <Dataset>  (513) 
ChEMBL_Kinases

>  <Ligand_Instance>  (513) 
nan

>  <PDB_ID>  (513) 
nan

>  <Standardized_SMILES>  (513) 
COc1cc2[nH]ccc2cc1C(=O)N1C[C@H](C)N(Cc2ccccc2)C[C@H]1C

>  <Name>  (513) 
nan

>  <Pocket>  (513) 
nan

>  <ATP_Site>  (513) 
nan

>  <Peripheral>  (513) 
nan

>  <Num_H_Atoms_ProtBoundConf>  (513) 
nan

>  <Num_Resolved_Atoms>  (513) 
nan

>  <Num_Not_Resolved_Atoms>  (513) 
nan

$$$$
CHEMBL104749
     RDKit          3D

  0  0  0  0  0  0  0  0  0  0999 V3000
M  V30 BEGIN CTAB
M  V30 COUNTS 66 69 0 0 0
M  V30 BEGIN ATOM
M  V30 1 C 5.822012 2.214871 2.391274 0
M  V30 2 N 4.663474 1.555597 2.994216 0
M  V30 3 N 4.575301 1.153324 4.241322 0
M  V30 4 C 3.368505 0.576953 4.494445 0
M  V30 5 C 2.808601 -0.019021 5.736080 0
M  V30 6 C 3.794114 0.064785 6.861995 0
M  V30 7 C 2.447658 -1.459088 5.409177 0
M  V30 8 C 1.550091 0.722653 6.155708 0
M  V30 9 C 2.720490 0.663168 3.280854 0
M  V30 10 C 3.521014 1.271898 2.341577 0
M  V30 11 N 3.277327 1.571394 0.974083 0
M  V30 12 C 2.071378 1.266027 0.289918 0
M  V30 13 O 1.141313 0.692161 0.907334 0
M  V30 14 N 1.805194 1.556850 -1.073979 0
M  V30 15 C 0.479358 1.096206 -1.409641 0
M  V30 16 C 0.436469 -0.184583 -1.869587 0
M  V30 17 C -0.772068 -0.720383 -2.213874 0
M  V30 18 C -1.970080 -0.050370 -2.128549 0
M  V30 19 O -3.244823 -0.412910 -2.420580 0
M  V30 20 C -3.760867 -1.602609 -2.900605 0
M  V30 21 C -3.573729 -2.812161 -2.048637 0
M  V30 22 N -4.167493 -3.972883 -2.703281 0
M  V30 23 C -3.481048 -4.386820 -3.886225 0
M  V30 24 C -2.749080 -5.702622 -3.690845 0
M  V30 25 O -3.592337 -6.734404 -3.348946 0
M  V30 26 C -4.676114 -6.309700 -2.582453 0
M  V30 27 C -4.341624 -5.070493 -1.781818 0
M  V30 28 C -1.895690 1.254985 -1.656170 0
M  V30 29 C -2.988423 2.098000 -1.496284 0
M  V30 30 C -2.881458 3.387385 -1.025116 0
M  V30 31 C -1.647430 3.895734 -0.687443 0
M  V30 32 C -0.524471 3.109865 -0.823327 0
M  V30 33 C -0.677162 1.836289 -1.294635 0
M  V30 34 H 5.715101 3.314419 2.468395 0
M  V30 35 H 6.764889 1.947404 2.912844 0
M  V30 36 H 5.936502 1.904389 1.332466 0
M  V30 37 H 3.971371 -0.971062 7.224891 0
M  V30 38 H 3.390657 0.669142 7.723245 0
M  V30 39 H 4.741576 0.543263 6.551687 0
M  V30 40 H 3.050631 -1.841630 4.536468 0
M  V30 41 H 2.701368 -2.125057 6.253932 0
M  V30 42 H 1.392984 -1.542420 5.069217 0
M  V30 43 H 1.707157 1.255867 7.132314 0
M  V30 44 H 1.304938 1.553173 5.437347 0
M  V30 45 H 0.693216 0.049327 6.269443 0
M  V30 46 H 1.727406 0.296875 3.119518 0
M  V30 47 H 3.994302 2.043576 0.394983 0
M  V30 48 H 2.550807 2.034069 -1.623755 0
M  V30 49 H 1.311283 -0.817301 -1.982536 0
M  V30 50 H -0.847402 -1.716822 -2.585696 0
M  V30 51 H -3.337388 -1.742002 -3.940188 0
M  V30 52 H -4.855278 -1.421479 -3.110641 0
M  V30 53 H -4.227579 -2.656108 -1.133638 0
M  V30 54 H -2.578744 -3.002198 -1.669071 0
M  V30 55 H -2.716624 -3.651323 -4.146489 0
M  V30 56 H -4.204518 -4.549391 -4.728401 0
M  V30 57 H -2.268743 -5.949619 -4.661206 0
M  V30 58 H -1.945102 -5.523680 -2.930257 0
M  V30 59 H -5.049720 -7.121517 -1.914921 0
M  V30 60 H -5.506925 -6.069924 -3.275401 0
M  V30 61 H -5.212867 -4.879644 -1.115120 0
M  V30 62 H -3.416540 -5.297119 -1.189983 0
M  V30 63 H -3.957705 1.702579 -1.759745 0
M  V30 64 H -3.736986 4.021655 -0.908820 0
M  V30 65 H -1.523731 4.908830 -0.312236 0
M  V30 66 H 0.450046 3.509328 -0.557394 0
M  V30 END ATOM
M  V30 BEGIN BOND
M  V30 1 1 1 2
M  V30 2 1 2 3
M  V30 3 2 3 4
M  V30 4 1 4 5
M  V30 5 1 5 6
M  V30 6 1 5 7
M  V30 7 1 5 8
M  V30 8 1 4 9
M  V30 9 2 9 10
M  V30 10 1 10 11
M  V30 11 1 11 12
M  V30 12 2 12 13
M  V30 13 1 12 14
M  V30 14 1 14 15
M  V30 15 2 15 16
M  V30 16 1 16 17
M  V30 17 2 17 18
M  V30 18 1 18 19
M  V30 19 1 19 20
M  V30 20 1 20 21
M  V30 21 1 21 22
M  V30 22 1 22 23
M  V30 23 1 23 24
M  V30 24 1 24 25
M  V30 25 1 25 26
M  V30 26 1 26 27
M  V30 27 1 18 28
M  V30 28 2 28 29
M  V30 29 1 29 30
M  V30 30 2 30 31
M  V30 31 1 31 32
M  V30 32 2 32 33
M  V30 33 1 10 2
M  V30 34 1 33 15
M  V30 35 1 27 22
M  V30 36 1 33 28
M  V30 37 1 1 34
M  V30 38 1 1 35
M  V30 39 1 1 36
M  V30 40 1 6 37
M  V30 41 1 6 38
M  V30 42 1 6 39
M  V30 43 1 7 40
M  V30 44 1 7 41
M  V30 45 1 7 42
M  V30 46 1 8 43
M  V30 47 1 8 44
M  V30 48 1 8 45
M  V30 49 1 9 46
M  V30 50 1 11 47
M  V30 51 1 14 48
M  V30 52 1 16 49
M  V30 53 1 17 50
M  V30 54 1 20 51
M  V30 55 1 20 52
M  V30 56 1 21 53
M  V30 57 1 21 54
M  V30 58 1 23 55
M  V30 59 1 23 56
M  V30 60 1 24 57
M  V30 61 1 24 58
M  V30 62 1 26 59
M  V30 63 1 26 60
M  V30 64 1 27 61
M  V30 65 1 27 62
M  V30 66 1 29 63
M  V30 67 1 30 64
M  V30 68 1 31 65
M  V30 69 1 32 66
M  V30 END BOND
M  V30 END CTAB
M  END
>  <Dataset>  (514) 
ChEMBL_Kinases

>  <Ligand_Instance>  (514) 
nan

>  <PDB_ID>  (514) 
nan

>  <Standardized_SMILES>  (514) 
Cn1nc(C(C)(C)C)cc1NC(=O)Nc1ccc(OCCN2CCOCC2)c2ccccc12

>  <Name>  (514) 
nan

>  <Pocket>  (514) 
nan

>  <ATP_Site>  (514) 
nan

>  <Peripheral>  (514) 
nan

>  <Num_H_Atoms_ProtBoundConf>  (514) 
nan

>  <Num_Resolved_Atoms>  (514) 
nan

>  <Num_Not_Resolved_Atoms>  (514) 
nan

$$$$
CHEMBL104119
     RDKit          3D

  0  0  0  0  0  0  0  0  0  0999 V3000
M  V30 BEGIN CTAB
M  V30 COUNTS 61 65 0 0 0
M  V30 BEGIN ATOM
M  V30 1 O -0.468632 -3.918596 0.553298 0
M  V30 2 C -0.245538 -4.266562 1.722870 0
M  V30 3 N 0.168448 -3.363913 2.709482 0
M  V30 4 C 0.297685 -2.015216 2.199376 0
M  V30 5 C 1.574768 -1.756094 1.710654 0
M  V30 6 C 1.844167 -0.495774 1.187739 0
M  V30 7 C 0.853444 0.477631 1.157944 0
M  V30 8 O 1.184571 1.718104 0.622848 0
M  V30 9 C 2.478539 2.003378 0.119510 0
M  V30 10 C 2.475962 3.428039 -0.374606 0
M  V30 11 N 2.169362 4.383801 0.638581 0
M  V30 12 C 2.209529 5.711262 -0.004470 0
M  V30 13 C 0.861613 6.037814 -0.608523 0
M  V30 14 O 0.003435 6.392994 0.415122 0
M  V30 15 C 0.180867 5.542458 1.474119 0
M  V30 16 C 0.795871 4.230311 1.084165 0
M  V30 17 C -0.401274 0.188255 1.650173 0
M  V30 18 C -1.393945 1.147176 1.625784 0
M  V30 19 C -2.638730 0.804428 2.133341 0
M  V30 20 C -2.902916 -0.456469 2.654838 0
M  V30 21 C -1.903626 -1.420159 2.678811 0
M  V30 22 C -0.688554 -1.051865 2.171634 0
M  V30 23 N -0.502865 -5.630251 1.722993 0
M  V30 24 C -0.898551 -6.740503 0.970608 0
M  V30 25 C -1.057524 -8.062966 1.328349 0
M  V30 26 C -1.462776 -8.703811 0.185357 0
M  V30 27 N -1.537565 -7.779159 -0.810499 0
M  V30 28 N -1.191744 -6.583210 -0.323587 0
M  V30 29 C -1.287467 -5.669587 -1.393684 0
M  V30 30 C -0.236125 -5.370111 -2.271988 0
M  V30 31 C -0.352586 -4.486004 -3.323398 0
M  V30 32 C -1.574522 -3.891927 -3.482371 0
M  V30 33 C -2.672181 -4.093282 -2.704772 0
M  V30 34 C -2.480875 -4.987881 -1.676081 0
M  V30 35 H 0.312567 -3.814040 3.639169 0
M  V30 36 H 2.397433 -2.466779 1.701392 0
M  V30 37 H 2.835011 -0.276963 0.802370 0
M  V30 38 H 3.238311 1.801221 0.871000 0
M  V30 39 H 2.630690 1.312470 -0.729523 0
M  V30 40 H 1.854773 3.511510 -1.288600 0
M  V30 41 H 3.531161 3.633202 -0.718966 0
M  V30 42 H 2.950429 5.734522 -0.829369 0
M  V30 43 H 2.465192 6.445331 0.757306 0
M  V30 44 H 0.475115 5.201750 -1.232685 0
M  V30 45 H 1.032631 6.881155 -1.312056 0
M  V30 46 H -0.818404 5.368978 1.923213 0
M  V30 47 H 0.775217 6.015991 2.308403 0
M  V30 48 H 0.221540 3.810925 0.233614 0
M  V30 49 H 0.746541 3.580625 1.989195 0
M  V30 50 H -1.196565 2.130654 1.221552 0
M  V30 51 H -3.454153 1.532469 2.134052 0
M  V30 52 H -3.892588 -0.694641 3.046401 0
M  V30 53 H -2.103699 -2.409540 3.085723 0
M  V30 54 H -0.308778 -5.895897 2.711860 0
M  V30 55 H -0.874825 -8.440506 2.345192 0
M  V30 56 H -1.642274 -9.769156 0.267237 0
M  V30 57 H 0.706479 -5.858076 -2.112210 0
M  V30 58 H 0.472105 -4.272552 -3.985553 0
M  V30 59 H -1.648000 -3.191901 -4.323806 0
M  V30 60 H -3.635909 -3.622213 -2.833316 0
M  V30 61 H -3.298080 -5.231466 -0.979782 0
M  V30 END ATOM
M  V30 BEGIN BOND
M  V30 1 2 1 2
M  V30 2 1 2 3
M  V30 3 1 3 4
M  V30 4 2 4 5
M  V30 5 1 5 6
M  V30 6 2 6 7
M  V30 7 1 7 8
M  V30 8 1 8 9
M  V30 9 1 9 10
M  V30 10 1 10 11
M  V30 11 1 11 12
M  V30 12 1 12 13
M  V30 13 1 13 14
M  V30 14 1 14 15
M  V30 15 1 15 16
M  V30 16 1 7 17
M  V30 17 2 17 18
M  V30 18 1 18 19
M  V30 19 2 19 20
M  V30 20 1 20 21
M  V30 21 2 21 22
M  V30 22 1 2 23
M  V30 23 1 23 24
M  V30 24 2 24 25
M  V30 25 1 25 26
M  V30 26 2 26 27
M  V30 27 1 27 28
M  V30 28 1 28 29
M  V30 29 2 29 30
M  V30 30 1 30 31
M  V30 31 2 31 32
M  V30 32 1 32 33
M  V30 33 2 33 34
M  V30 34 1 22 4
M  V30 35 1 28 24
M  V30 36 1 34 29
M  V30 37 1 16 11
M  V30 38 1 22 17
M  V30 39 1 3 35
M  V30 40 1 5 36
M  V30 41 1 6 37
M  V30 42 1 9 38
M  V30 43 1 9 39
M  V30 44 1 10 40
M  V30 45 1 10 41
M  V30 46 1 12 42
M  V30 47 1 12 43
M  V30 48 1 13 44
M  V30 49 1 13 45
M  V30 50 1 15 46
M  V30 51 1 15 47
M  V30 52 1 16 48
M  V30 53 1 16 49
M  V30 54 1 18 50
M  V30 55 1 19 51
M  V30 56 1 20 52
M  V30 57 1 21 53
M  V30 58 1 23 54
M  V30 59 1 25 55
M  V30 60 1 26 56
M  V30 61 1 30 57
M  V30 62 1 31 58
M  V30 63 1 32 59
M  V30 64 1 33 60
M  V30 65 1 34 61
M  V30 END BOND
M  V30 END CTAB
M  END
>  <Dataset>  (515) 
ChEMBL_Kinases

>  <Ligand_Instance>  (515) 
nan

>  <PDB_ID>  (515) 
nan

>  <Standardized_SMILES>  (515) 
O=C(Nc1ccc(OCCN2CCOCC2)c2ccccc12)Nc1ccnn1-c1ccccc1

>  <Name>  (515) 
nan

>  <Pocket>  (515) 
nan

>  <ATP_Site>  (515) 
nan

>  <Peripheral>  (515) 
nan

>  <Num_H_Atoms_ProtBoundConf>  (515) 
nan

>  <Num_Resolved_Atoms>  (515) 
nan

>  <Num_Not_Resolved_Atoms>  (515) 
nan

$$$$
CHEMBL103506
     RDKit          3D

  0  0  0  0  0  0  0  0  0  0999 V3000
M  V30 BEGIN CTAB
M  V30 COUNTS 70 75 0 0 0
M  V30 BEGIN ATOM
M  V30 1 C 4.487733 -2.507971 3.889319 0
M  V30 2 C 4.466437 -1.920084 2.487855 0
M  V30 3 N 3.177725 -1.989056 1.867561 0
M  V30 4 C 2.768066 -3.309167 1.561835 0
M  V30 5 C 3.489259 -3.829035 0.319352 0
M  V30 6 O 3.043775 -3.102329 -0.817417 0
M  V30 7 C 1.791957 -3.607080 -1.187636 0
M  V30 8 C 1.078016 -2.916309 -2.264613 0
M  V30 9 O 0.702288 -1.593986 -2.041379 0
M  V30 10 C 0.050610 -1.204352 -3.205191 0
M  V30 11 C -0.671026 0.081810 -3.174592 0
M  V30 12 N -1.804368 0.109094 -2.272608 0
M  V30 13 C -1.968741 0.860467 -1.160188 0
M  V30 14 C -3.189845 0.564189 -0.595011 0
M  V30 15 C -3.821669 -0.395440 -1.357044 0
M  V30 16 C -5.031051 -1.045012 -1.262585 0
M  V30 17 C -5.425515 -1.984088 -2.190809 0
M  V30 18 C -4.565899 -2.263377 -3.234517 0
M  V30 19 C -3.361882 -1.597924 -3.301634 0
M  V30 20 C -2.913977 -0.640148 -2.388395 0
M  V30 21 C -3.686121 1.211797 0.615727 0
M  V30 22 C -3.095931 1.533481 1.753057 0
M  V30 23 C -3.922306 2.182407 2.755605 0
M  V30 24 O -3.438609 2.521708 3.870640 0
M  V30 25 N -5.206986 2.268783 2.131365 0
M  V30 26 C -5.068653 1.687917 0.846616 0
M  V30 27 O -6.140071 1.690823 0.156321 0
M  V30 28 C -1.680226 1.180983 1.729375 0
M  V30 29 C -1.096972 -0.053811 1.551199 0
M  V30 30 N 0.232124 0.129475 1.565728 0
M  V30 31 C 0.534331 1.441791 1.749097 0
M  V30 32 C 1.668535 2.215335 1.839816 0
M  V30 33 C 1.683626 3.565544 2.024681 0
M  V30 34 C 0.499313 4.262759 2.135202 0
M  V30 35 C -0.671106 3.524671 2.048378 0
M  V30 36 C -0.656188 2.134639 1.857477 0
M  V30 37 C 1.170987 -0.899353 1.371138 0
M  V30 38 C 2.253892 -1.083212 2.401970 0
M  V30 39 H 4.630764 -3.593249 3.878107 0
M  V30 40 H 3.599084 -2.225811 4.486888 0
M  V30 41 H 5.364761 -2.022793 4.394203 0
M  V30 42 H 4.695003 -0.822956 2.604967 0
M  V30 43 H 5.279752 -2.402991 1.917767 0
M  V30 44 H 3.201528 -3.964107 2.389708 0
M  V30 45 H 1.703435 -3.541112 1.582647 0
M  V30 46 H 3.231013 -4.872477 0.191894 0
M  V30 47 H 4.565350 -3.722252 0.497900 0
M  V30 48 H 1.903967 -4.716066 -1.373504 0
M  V30 49 H 1.132371 -3.555601 -0.264458 0
M  V30 50 H 1.646667 -3.001547 -3.241779 0
M  V30 51 H 0.144234 -3.522666 -2.488026 0
M  V30 52 H 0.889490 -1.080549 -3.967045 0
M  V30 53 H -0.566045 -2.005050 -3.630579 0
M  V30 54 H -1.039151 0.387152 -4.169596 0
M  V30 55 H -0.002516 0.920769 -2.823676 0
M  V30 56 H -1.175330 1.524121 -0.912265 0
M  V30 57 H -5.723586 -0.873992 -0.475682 0
M  V30 58 H -6.374333 -2.490620 -2.112019 0
M  V30 59 H -4.891345 -3.001288 -3.953704 0
M  V30 60 H -2.795520 -1.894355 -4.163034 0
M  V30 61 H -5.997205 2.708316 2.659469 0
M  V30 62 H -1.554093 -1.017534 1.419687 0
M  V30 63 H 2.643491 1.799650 1.754034 0
M  V30 64 H 2.587873 4.157991 2.093824 0
M  V30 65 H 0.463519 5.325151 2.281673 0
M  V30 66 H -1.580187 4.077503 2.135728 0
M  V30 67 H 1.604173 -0.755703 0.355054 0
M  V30 68 H 0.601999 -1.859078 1.319831 0
M  V30 69 H 1.765157 -1.631988 3.291807 0
M  V30 70 H 2.645920 -0.187133 2.862993 0
M  V30 END ATOM
M  V30 BEGIN BOND
M  V30 1 1 1 2
M  V30 2 1 2 3
M  V30 3 1 3 4
M  V30 4 1 4 5
M  V30 5 1 5 6
M  V30 6 1 6 7
M  V30 7 1 7 8
M  V30 8 1 8 9
M  V30 9 1 9 10
M  V30 10 1 10 11
M  V30 11 1 11 12
M  V30 12 1 12 13
M  V30 13 2 13 14
M  V30 14 1 14 15
M  V30 15 2 15 16
M  V30 16 1 16 17
M  V30 17 2 17 18
M  V30 18 1 18 19
M  V30 19 2 19 20
M  V30 20 1 14 21
M  V30 21 2 21 22
M  V30 22 1 22 23
M  V30 23 2 23 24
M  V30 24 1 23 25
M  V30 25 1 25 26
M  V30 26 2 26 27
M  V30 27 1 22 28
M  V30 28 2 28 29
M  V30 29 1 29 30
M  V30 30 1 30 31
M  V30 31 2 31 32
M  V30 32 1 32 33
M  V30 33 2 33 34
M  V30 34 1 34 35
M  V30 35 2 35 36
M  V30 36 1 30 37
M  V30 37 1 37 38
M  V30 38 1 38 3
M  V30 39 1 20 12
M  V30 40 1 26 21
M  V30 41 1 36 28
M  V30 42 1 20 15
M  V30 43 1 36 31
M  V30 44 1 1 39
M  V30 45 1 1 40
M  V30 46 1 1 41
M  V30 47 1 2 42
M  V30 48 1 2 43
M  V30 49 1 4 44
M  V30 50 1 4 45
M  V30 51 1 5 46
M  V30 52 1 5 47
M  V30 53 1 7 48
M  V30 54 1 7 49
M  V30 55 1 8 50
M  V30 56 1 8 51
M  V30 57 1 10 52
M  V30 58 1 10 53
M  V30 59 1 11 54
M  V30 60 1 11 55
M  V30 61 1 13 56
M  V30 62 1 16 57
M  V30 63 1 17 58
M  V30 64 1 18 59
M  V30 65 1 19 60
M  V30 66 1 25 61
M  V30 67 1 29 62
M  V30 68 1 32 63
M  V30 69 1 33 64
M  V30 70 1 34 65
M  V30 71 1 35 66
M  V30 72 1 37 67
M  V30 73 1 37 68
M  V30 74 1 38 69
M  V30 75 1 38 70
M  V30 END BOND
M  V30 END CTAB
M  END
>  <Dataset>  (516) 
ChEMBL_Kinases

>  <Ligand_Instance>  (516) 
nan

>  <PDB_ID>  (516) 
nan

>  <Standardized_SMILES>  (516) 
CCN1CCOCCOCCn2cc(c3ccccc32)C2=C(C(=O)NC2=O)c2cn(c3ccccc23)CC1

>  <Name>  (516) 
nan

>  <Pocket>  (516) 
nan

>  <ATP_Site>  (516) 
nan

>  <Peripheral>  (516) 
nan

>  <Num_H_Atoms_ProtBoundConf>  (516) 
nan

>  <Num_Resolved_Atoms>  (516) 
nan

>  <Num_Not_Resolved_Atoms>  (516) 
nan

$$$$
CHEMBL103421
     RDKit          3D

  0  0  0  0  0  0  0  0  0  0999 V3000
M  V30 BEGIN CTAB
M  V30 COUNTS 84 89 0 0 0
M  V30 BEGIN ATOM
M  V30 1 C -0.067208 -2.453068 3.943522 0
M  V30 2 C 1.275601 -1.822997 4.004843 0
M  V30 3 N 1.817509 -1.575277 2.593206 0
M  V30 4 C 1.986622 -2.915731 2.060553 0
M  V30 5 C 2.087963 -3.286666 0.679168 0
M  V30 6 O 1.013971 -3.079474 -0.193706 0
M  V30 7 C 1.321426 -3.702030 -1.395971 0
M  V30 8 C 0.345568 -3.690729 -2.491774 0
M  V30 9 N -0.045991 -2.499931 -3.130222 0
M  V30 10 C 0.900592 -1.873941 -3.952081 0
M  V30 11 C 1.232637 -2.678601 -5.209306 0
M  V30 12 C -1.295893 -1.938653 -2.869019 0
M  V30 13 C -1.598752 -0.608037 -3.551841 0
M  V30 14 N -2.739019 0.038167 -2.936838 0
M  V30 15 C -2.408274 0.080823 -1.609181 0
M  V30 16 C -3.318061 0.661565 -0.716214 0
M  V30 17 C -4.279840 0.994246 -1.613972 0
M  V30 18 C -5.452523 1.603255 -1.256767 0
M  V30 19 C -6.300613 1.829821 -2.351584 0
M  V30 20 C -5.951299 1.459273 -3.660760 0
M  V30 21 C -4.734392 0.835849 -3.973894 0
M  V30 22 C -3.931076 0.627066 -2.893446 0
M  V30 23 C -2.787875 0.561890 0.629757 0
M  V30 24 C -1.757148 0.939134 1.289985 0
M  V30 25 C -1.949573 0.418700 2.640110 0
M  V30 26 O -1.301313 0.445395 3.745707 0
M  V30 27 N -3.203318 -0.332408 2.800046 0
M  V30 28 C -3.741324 -0.221220 1.451731 0
M  V30 29 O -4.855267 -0.793382 1.286005 0
M  V30 30 C -0.469771 1.602491 1.420990 0
M  V30 31 C -0.082713 2.673434 2.190914 0
M  V30 32 N 1.209996 2.792687 1.963757 0
M  V30 33 C 1.779581 1.900684 1.080421 0
M  V30 34 C 3.045044 1.624188 0.546248 0
M  V30 35 C 3.236059 0.577262 -0.314948 0
M  V30 36 C 2.099820 -0.140517 -0.585132 0
M  V30 37 C 0.860922 0.121842 -0.075108 0
M  V30 38 C 0.628673 1.147367 0.770642 0
M  V30 39 C 2.169317 3.615520 2.746746 0
M  V30 40 C 2.723440 2.511392 3.792235 0
M  V30 41 O 2.746945 1.335971 3.055816 0
M  V30 42 C 3.223913 0.236123 3.622615 0
M  V30 43 C 3.188577 -1.065683 2.909659 0
M  V30 44 H -0.053286 -3.548722 4.171162 0
M  V30 45 H -0.692234 -2.025532 4.779156 0
M  V30 46 H -0.635129 -2.252461 3.017550 0
M  V30 47 H 1.158997 -0.812034 4.413524 0
M  V30 48 H 1.970189 -2.406077 4.571517 0
M  V30 49 H 1.167845 -3.551925 2.535382 0
M  V30 50 H 2.907009 -3.346180 2.598924 0
M  V30 51 H 3.043911 -2.915209 0.175472 0
M  V30 52 H 2.244941 -4.412749 0.628638 0
M  V30 53 H 1.485051 -4.791015 -1.096736 0
M  V30 54 H 2.346443 -3.410423 -1.748705 0
M  V30 55 H 0.601737 -4.511461 -3.251133 0
M  V30 56 H -0.620628 -4.129166 -2.053963 0
M  V30 57 H 1.877672 -1.674284 -3.469932 0
M  V30 58 H 0.529180 -0.911774 -4.335898 0
M  V30 59 H 1.762294 -3.576528 -4.886054 0
M  V30 60 H 1.958907 -2.048137 -5.778989 0
M  V30 61 H 0.355898 -2.828126 -5.846965 0
M  V30 62 H -1.462840 -1.905792 -1.787028 0
M  V30 63 H -2.151563 -2.626120 -3.228047 0
M  V30 64 H -0.725330 0.074663 -3.335113 0
M  V30 65 H -1.724270 -0.756298 -4.623476 0
M  V30 66 H -1.552104 -0.262373 -1.146615 0
M  V30 67 H -5.696249 1.876653 -0.248098 0
M  V30 68 H -7.254586 2.305066 -2.183051 0
M  V30 69 H -6.601265 1.630139 -4.506021 0
M  V30 70 H -4.397449 0.525286 -4.944112 0
M  V30 71 H -3.613800 -0.821154 3.631740 0
M  V30 72 H -0.537150 3.364096 2.864205 0
M  V30 73 H 3.864782 2.257888 0.813209 0
M  V30 74 H 4.229461 0.424269 -0.682169 0
M  V30 75 H 2.268993 -0.966725 -1.258448 0
M  V30 76 H 0.189947 -0.590405 -0.407455 0
M  V30 77 H 1.590264 4.344592 3.298705 0
M  V30 78 H 3.019480 3.891632 2.180936 0
M  V30 79 H 3.658034 2.854143 4.193994 0
M  V30 80 H 1.901656 2.459894 4.515120 0
M  V30 81 H 2.901820 0.081350 4.700013 0
M  V30 82 H 4.352675 0.425962 3.788965 0
M  V30 83 H 3.629073 -1.830002 3.568462 0
M  V30 84 H 3.744959 -1.073924 1.978760 0
M  V30 END ATOM
M  V30 BEGIN BOND
M  V30 1 1 1 2
M  V30 2 1 2 3
M  V30 3 1 3 4
M  V30 4 1 4 5
M  V30 5 1 5 6
M  V30 6 1 6 7
M  V30 7 1 7 8
M  V30 8 1 8 9
M  V30 9 1 9 10
M  V30 10 1 10 11
M  V30 11 1 9 12
M  V30 12 1 12 13
M  V30 13 1 13 14
M  V30 14 1 14 15
M  V30 15 2 15 16
M  V30 16 1 16 17
M  V30 17 2 17 18
M  V30 18 1 18 19
M  V30 19 2 19 20
M  V30 20 1 20 21
M  V30 21 2 21 22
M  V30 22 1 16 23
M  V30 23 2 23 24
M  V30 24 1 24 25
M  V30 25 2 25 26
M  V30 26 1 25 27
M  V30 27 1 27 28
M  V30 28 2 28 29
M  V30 29 1 24 30
M  V30 30 2 30 31
M  V30 31 1 31 32
M  V30 32 1 32 33
M  V30 33 2 33 34
M  V30 34 1 34 35
M  V30 35 2 35 36
M  V30 36 1 36 37
M  V30 37 2 37 38
M  V30 38 1 32 39
M  V30 39 1 39 40
M  V30 40 1 40 41
M  V30 41 1 41 42
M  V30 42 1 42 43
M  V30 43 1 43 3
M  V30 44 1 22 14
M  V30 45 1 28 23
M  V30 46 1 38 30
M  V30 47 1 22 17
M  V30 48 1 38 33
M  V30 49 1 1 44
M  V30 50 1 1 45
M  V30 51 1 1 46
M  V30 52 1 2 47
M  V30 53 1 2 48
M  V30 54 1 4 49
M  V30 55 1 4 50
M  V30 56 1 5 51
M  V30 57 1 5 52
M  V30 58 1 7 53
M  V30 59 1 7 54
M  V30 60 1 8 55
M  V30 61 1 8 56
M  V30 62 1 10 57
M  V30 63 1 10 58
M  V30 64 1 11 59
M  V30 65 1 11 60
M  V30 66 1 11 61
M  V30 67 1 12 62
M  V30 68 1 12 63
M  V30 69 1 13 64
M  V30 70 1 13 65
M  V30 71 1 15 66
M  V30 72 1 18 67
M  V30 73 1 19 68
M  V30 74 1 20 69
M  V30 75 1 21 70
M  V30 76 1 27 71
M  V30 77 1 31 72
M  V30 78 1 34 73
M  V30 79 1 35 74
M  V30 80 1 36 75
M  V30 81 1 37 76
M  V30 82 1 39 77
M  V30 83 1 39 78
M  V30 84 1 40 79
M  V30 85 1 40 80
M  V30 86 1 42 81
M  V30 87 1 42 82
M  V30 88 1 43 83
M  V30 89 1 43 84
M  V30 END BOND
M  V30 END CTAB
M  END
>  <Dataset>  (517) 
ChEMBL_Kinases

>  <Ligand_Instance>  (517) 
nan

>  <PDB_ID>  (517) 
nan

>  <Standardized_SMILES>  (517) 
CCN1CCOCCN(CC)CCn2cc(c3ccccc32)C2=C(C(=O)NC2=O)c2cn(c3ccccc23)CCOCC1

>  <Name>  (517) 
nan

>  <Pocket>  (517) 
nan

>  <ATP_Site>  (517) 
nan

>  <Peripheral>  (517) 
nan

>  <Num_H_Atoms_ProtBoundConf>  (517) 
nan

>  <Num_Resolved_Atoms>  (517) 
nan

>  <Num_Not_Resolved_Atoms>  (517) 
nan

$$$$
CHEMBL103115
     RDKit          3D

  0  0  0  0  0  0  0  0  0  0999 V3000
M  V30 BEGIN CTAB
M  V30 COUNTS 37 39 0 0 0
M  V30 BEGIN ATOM
M  V30 1 N 0.634129 -4.115599 5.558371 0
M  V30 2 S 1.346109 -5.000388 4.234847 0
M  V30 3 O 2.585235 -5.706575 4.731364 0
M  V30 4 O 0.344297 -5.958650 3.665466 0
M  V30 5 C 1.820479 -3.816837 3.026382 0
M  V30 6 C 3.064849 -3.231684 2.944345 0
M  V30 7 C 3.280643 -2.323158 1.951286 0
M  V30 8 C 2.364606 -1.918952 0.999080 0
M  V30 9 N 2.713172 -0.973011 0.006223 0
M  V30 10 C 1.911878 -0.019178 -0.671076 0
M  V30 11 C 0.609113 0.348792 -0.529523 0
M  V30 12 C 0.266897 1.328944 -1.435627 0
M  V30 13 C -1.045731 1.947378 -1.559541 0
M  V30 14 C -1.290342 2.937055 -2.517746 0
M  V30 15 C -2.548297 3.540037 -2.651719 0
M  V30 16 C -3.537667 3.100257 -1.780469 0
M  V30 17 O -4.822210 3.671595 -1.870211 0
M  V30 18 C -3.341466 2.128570 -0.821643 0
M  V30 19 F -4.337666 1.726625 0.010524 0
M  V30 20 C -2.082857 1.569911 -0.735168 0
M  V30 21 N 1.409807 1.516610 -2.104038 0
M  V30 22 N 2.382836 0.739471 -1.673463 0
M  V30 23 C 1.136485 -2.544492 1.137182 0
M  V30 24 C 0.856426 -3.470472 2.119306 0
M  V30 25 H 1.331899 -3.782172 6.232613 0
M  V30 26 H 0.060210 -3.310492 5.170716 0
M  V30 27 H 3.804826 -3.525325 3.673684 0
M  V30 28 H 4.275142 -1.876416 1.910090 0
M  V30 29 H 3.748970 -1.025365 -0.239217 0
M  V30 30 H -0.092246 -0.045854 0.190378 0
M  V30 31 H -0.492608 3.263611 -3.190217 0
M  V30 32 H -2.720438 4.304225 -3.398377 0
M  V30 33 H -5.618843 3.207200 -1.463956 0
M  V30 34 H -1.965980 0.802547 0.038306 0
M  V30 35 H 3.334033 0.776471 -2.102529 0
M  V30 36 H 0.356264 -2.310363 0.439581 0
M  V30 37 H -0.144306 -3.910742 2.147750 0
M  V30 END ATOM
M  V30 BEGIN BOND
M  V30 1 1 1 2
M  V30 2 2 2 3
M  V30 3 2 2 4
M  V30 4 1 2 5
M  V30 5 2 5 6
M  V30 6 1 6 7
M  V30 7 2 7 8
M  V30 8 1 8 9
M  V30 9 1 9 10
M  V30 10 2 10 11
M  V30 11 1 11 12
M  V30 12 1 12 13
M  V30 13 2 13 14
M  V30 14 1 14 15
M  V30 15 2 15 16
M  V30 16 1 16 17
M  V30 17 1 16 18
M  V30 18 1 18 19
M  V30 19 2 18 20
M  V30 20 2 12 21
M  V30 21 1 21 22
M  V30 22 1 8 23
M  V30 23 2 23 24
M  V30 24 1 24 5
M  V30 25 1 22 10
M  V30 26 1 20 13
M  V30 27 1 1 25
M  V30 28 1 1 26
M  V30 29 1 6 27
M  V30 30 1 7 28
M  V30 31 1 9 29
M  V30 32 1 11 30
M  V30 33 1 14 31
M  V30 34 1 15 32
M  V30 35 1 17 33
M  V30 36 1 20 34
M  V30 37 1 22 35
M  V30 38 1 23 36
M  V30 39 1 24 37
M  V30 END BOND
M  V30 END CTAB
M  END
>  <Dataset>  (518) 
ChEMBL_Kinases

>  <Ligand_Instance>  (518) 
nan

>  <PDB_ID>  (518) 
nan

>  <Standardized_SMILES>  (518) 
NS(=O)(=O)c1ccc(Nc2cc(-c3ccc(O)c(F)c3)n[nH]2)cc1

>  <Name>  (518) 
GW831091X

>  <Pocket>  (518) 
nan

>  <ATP_Site>  (518) 
nan

>  <Peripheral>  (518) 
nan

>  <Num_H_Atoms_ProtBoundConf>  (518) 
nan

>  <Num_Resolved_Atoms>  (518) 
nan

>  <Num_Not_Resolved_Atoms>  (518) 
nan

$$$$
CHEMBL1081128
     RDKit          3D

  0  0  0  0  0  0  0  0  0  0999 V3000
M  V30 BEGIN CTAB
M  V30 COUNTS 44 47 0 0 0
M  V30 BEGIN ATOM
M  V30 1 C -0.242164 -6.804464 -0.373684 0
M  V30 2 O -0.931189 -5.586621 -0.223448 0
M  V30 3 C -0.412824 -4.554394 0.536135 0
M  V30 4 C 0.783868 -4.616491 1.202840 0
M  V30 5 C 1.269931 -3.556696 1.952260 0
M  V30 6 C 0.460832 -2.447211 1.973265 0
M  V30 7 C -0.745786 -2.249893 1.360676 0
M  V30 8 C -1.639283 -1.111026 1.274343 0
M  V30 9 C -1.537630 0.188935 0.936677 0
M  V30 10 C -0.445046 1.038122 0.498199 0
M  V30 11 C -0.553637 1.626396 -0.772695 0
M  V30 12 N 0.527631 2.390877 -1.032402 0
M  V30 13 C 0.790682 3.166867 -2.246451 0
M  V30 14 C 1.349657 2.331182 0.024426 0
M  V30 15 C 2.567706 2.923449 0.280404 0
M  V30 16 C 3.153991 2.648700 1.519123 0
M  V30 17 C 4.466080 3.310490 1.737421 0
M  V30 18 C 2.540476 1.815350 2.456641 0
M  V30 19 C 1.324441 1.242947 2.160530 0
M  V30 20 C 0.762263 1.512233 0.956551 0
M  V30 21 C -2.884693 0.789985 1.092742 0
M  V30 22 O -3.232543 1.997797 0.879180 0
M  V30 23 N -3.833360 -0.176575 1.538775 0
M  V30 24 C -3.053890 -1.352488 1.648563 0
M  V30 25 O -3.625041 -2.430163 2.037144 0
M  V30 26 C -1.157194 -3.378946 0.624658 0
M  V30 27 H 0.859498 -6.674628 -0.347431 0
M  V30 28 H -0.525160 -7.547046 0.419044 0
M  V30 29 H -0.490994 -7.284177 -1.348225 0
M  V30 30 H 1.402272 -5.498671 1.173501 0
M  V30 31 H 2.193771 -3.544511 2.496048 0
M  V30 32 H 0.797953 -1.607531 2.548318 0
M  V30 33 H -1.352069 1.546368 -1.526598 0
M  V30 34 H 0.309148 4.163543 -2.054521 0
M  V30 35 H 1.859366 3.342869 -2.377184 0
M  V30 36 H 0.268044 2.739900 -3.128918 0
M  V30 37 H 2.988081 3.553342 -0.481307 0
M  V30 38 H 5.309551 2.676458 1.362278 0
M  V30 39 H 4.620368 3.571870 2.802611 0
M  V30 40 H 4.505587 4.286976 1.194867 0
M  V30 41 H 3.047562 1.642739 3.394782 0
M  V30 42 H 0.842529 0.622074 2.889439 0
M  V30 43 H -4.840853 -0.023916 1.729045 0
M  V30 44 H -2.100044 -3.354843 0.089967 0
M  V30 END ATOM
M  V30 BEGIN BOND
M  V30 1 1 1 2
M  V30 2 1 2 3
M  V30 3 2 3 4
M  V30 4 1 4 5
M  V30 5 2 5 6
M  V30 6 1 6 7
M  V30 7 1 7 8
M  V30 8 2 8 9
M  V30 9 1 9 10
M  V30 10 2 10 11
M  V30 11 1 11 12
M  V30 12 1 12 13
M  V30 13 1 12 14
M  V30 14 2 14 15
M  V30 15 1 15 16
M  V30 16 1 16 17
M  V30 17 2 16 18
M  V30 18 1 18 19
M  V30 19 2 19 20
M  V30 20 1 9 21
M  V30 21 2 21 22
M  V30 22 1 21 23
M  V30 23 1 23 24
M  V30 24 2 24 25
M  V30 25 2 7 26
M  V30 26 1 26 3
M  V30 27 1 24 8
M  V30 28 1 20 10
M  V30 29 1 20 14
M  V30 30 1 1 27
M  V30 31 1 1 28
M  V30 32 1 1 29
M  V30 33 1 4 30
M  V30 34 1 5 31
M  V30 35 1 6 32
M  V30 36 1 11 33
M  V30 37 1 13 34
M  V30 38 1 13 35
M  V30 39 1 13 36
M  V30 40 1 15 37
M  V30 41 1 17 38
M  V30 42 1 17 39
M  V30 43 1 17 40
M  V30 44 1 18 41
M  V30 45 1 19 42
M  V30 46 1 23 43
M  V30 47 1 26 44
M  V30 END BOND
M  V30 END CTAB
M  END
>  <Dataset>  (519) 
ChEMBL_Kinases

>  <Ligand_Instance>  (519) 
nan

>  <PDB_ID>  (519) 
nan

>  <Standardized_SMILES>  (519) 
COc1cccc(C2=C(c3cn(C)c4cc(C)ccc34)C(=O)NC2=O)c1

>  <Name>  (519) 
nan

>  <Pocket>  (519) 
nan

>  <ATP_Site>  (519) 
nan

>  <Peripheral>  (519) 
nan

>  <Num_H_Atoms_ProtBoundConf>  (519) 
nan

>  <Num_Resolved_Atoms>  (519) 
nan

>  <Num_Not_Resolved_Atoms>  (519) 
nan

$$$$
CHEMBL100473
     RDKit          3D

  0  0  0  0  0  0  0  0  0  0999 V3000
M  V30 BEGIN CTAB
M  V30 COUNTS 42 43 0 0 0
M  V30 BEGIN ATOM
M  V30 1 N 4.319580 -3.054991 2.343232 0
M  V30 2 C 3.687572 -2.128536 2.134002 0
M  V30 3 C 2.898164 -0.966340 1.896486 0
M  V30 4 C 2.518845 -0.697414 0.661335 0
M  V30 5 N 1.733267 0.441188 0.350207 0
M  V30 6 S 3.008096 -1.798186 -0.655646 0
M  V30 7 C 2.399100 -1.257423 -2.227077 0
M  V30 8 C 3.176078 -0.409225 -2.987177 0
M  V30 9 C 2.810014 0.070727 -4.210521 0
M  V30 10 C 1.577017 -0.350590 -4.666673 0
M  V30 11 C 0.753098 -1.195154 -3.959231 0
M  V30 12 C 1.173617 -1.660325 -2.709031 0
M  V30 13 N 0.340379 -2.536502 -1.953341 0
M  V30 14 C 2.526780 -0.111459 3.016633 0
M  V30 15 C 3.648532 0.471957 3.708810 0
M  V30 16 N 4.548327 0.952996 4.286456 0
M  V30 17 C 1.267313 0.104457 3.360796 0
M  V30 18 N 1.145060 0.970200 4.480704 0
M  V30 19 S 0.049495 -0.726014 2.365573 0
M  V30 20 C -1.620482 -0.393744 2.897297 0
M  V30 21 C -2.090291 0.383477 3.932164 0
M  V30 22 C -3.445641 0.487093 4.147582 0
M  V30 23 C -4.368467 -0.159269 3.365615 0
M  V30 24 C -3.911669 -0.934833 2.333712 0
M  V30 25 C -2.548306 -1.060986 2.088605 0
M  V30 26 N -2.259085 -1.904225 0.979604 0
M  V30 27 H 0.998799 0.356638 -0.415808 0
M  V30 28 H 1.373152 1.412682 0.393322 0
M  V30 29 H 4.144718 -0.097861 -2.593711 0
M  V30 30 H 3.370410 0.731102 -4.846483 0
M  V30 31 H 1.158932 -0.057281 -5.605482 0
M  V30 32 H -0.207165 -1.543067 -4.278519 0
M  V30 33 H 0.652031 -3.465175 -2.368322 0
M  V30 34 H -0.204710 -1.896698 -1.331245 0
M  V30 35 H 1.650666 0.688970 5.348901 0
M  V30 36 H 0.842835 1.787172 5.040734 0
M  V30 37 H -1.276831 0.839947 4.475619 0
M  V30 38 H -3.721175 1.119359 4.983026 0
M  V30 39 H -5.389013 0.014199 3.651457 0
M  V30 40 H -4.682788 -1.424059 1.746329 0
M  V30 41 H -1.933342 -2.895244 0.898904 0
M  V30 42 H -2.248021 -1.900109 -0.047123 0
M  V30 END ATOM
M  V30 BEGIN BOND
M  V30 1 3 1 2
M  V30 2 1 2 3
M  V30 3 2 3 4
M  V30 4 1 4 5
M  V30 5 1 4 6
M  V30 6 1 6 7
M  V30 7 2 7 8
M  V30 8 1 8 9
M  V30 9 2 9 10
M  V30 10 1 10 11
M  V30 11 2 11 12
M  V30 12 1 12 13
M  V30 13 1 3 14
M  V30 14 1 14 15
M  V30 15 3 15 16
M  V30 16 2 14 17
M  V30 17 1 17 18
M  V30 18 1 17 19
M  V30 19 1 19 20
M  V30 20 2 20 21
M  V30 21 1 21 22
M  V30 22 2 22 23
M  V30 23 1 23 24
M  V30 24 2 24 25
M  V30 25 1 25 26
M  V30 26 1 12 7
M  V30 27 1 25 20
M  V30 28 1 5 27
M  V30 29 1 5 28
M  V30 30 1 8 29
M  V30 31 1 9 30
M  V30 32 1 10 31
M  V30 33 1 11 32
M  V30 34 1 13 33
M  V30 35 1 13 34
M  V30 36 1 18 35
M  V30 37 1 18 36
M  V30 38 1 21 37
M  V30 39 1 22 38
M  V30 40 1 23 39
M  V30 41 1 24 40
M  V30 42 1 26 41
M  V30 43 1 26 42
M  V30 END BOND
M  V30 END CTAB
M  END
>  <Dataset>  (520) 
ChEMBL_Kinases

>  <Ligand_Instance>  (520) 
nan

>  <PDB_ID>  (520) 
nan

>  <Standardized_SMILES>  (520) 
N#CC(=C(/N)Sc1ccccc1N)/C(C#N)=C(/N)Sc1ccccc1N

>  <Name>  (520) 
U-0126

>  <Pocket>  (520) 
nan

>  <ATP_Site>  (520) 
nan

>  <Peripheral>  (520) 
nan

>  <Num_H_Atoms_ProtBoundConf>  (520) 
nan

>  <Num_Resolved_Atoms>  (520) 
nan

>  <Num_Not_Resolved_Atoms>  (520) 
nan

$$$$
CHEMBL100714
     RDKit          3D

  0  0  0  0  0  0  0  0  0  0999 V3000
M  V30 BEGIN CTAB
M  V30 COUNTS 44 46 0 0 0
M  V30 BEGIN ATOM
M  V30 1 C -0.795648 -6.588069 0.636399 0
M  V30 2 O -1.053894 -5.308759 0.098389 0
M  V30 3 C -0.189301 -4.248256 0.239370 0
M  V30 4 C 0.954948 -4.517488 0.950580 0
M  V30 5 C 1.873240 -3.504627 1.135754 0
M  V30 6 C 1.643795 -2.252818 0.616812 0
M  V30 7 N 2.542536 -1.166087 0.783950 0
M  V30 8 C 2.466216 0.114304 0.171864 0
M  V30 9 N 3.246194 0.257190 -0.941471 0
M  V30 10 C 3.260722 1.426727 -1.622009 0
M  V30 11 N 2.517239 2.497874 -1.243112 0
M  V30 12 C 1.746455 2.385545 -0.159567 0
M  V30 13 C 0.935999 3.395902 0.331267 0
M  V30 14 C 0.155488 3.193999 1.468573 0
M  V30 15 O -0.615345 4.276337 1.866459 0
M  V30 16 C -0.594752 5.500445 1.144224 0
M  V30 17 C 0.136127 2.003132 2.167669 0
M  V30 18 O -0.685182 1.972138 3.260279 0
M  V30 19 C -0.853426 0.861374 4.105405 0
M  V30 20 C 0.942401 1.001106 1.678021 0
M  V30 21 C 1.713798 1.203589 0.552114 0
M  V30 22 C 0.483764 -2.052625 -0.081474 0
M  V30 23 C -0.480840 -2.994081 -0.314295 0
M  V30 24 O -1.676570 -2.939554 -0.985574 0
M  V30 25 C -2.115496 -1.759415 -1.594403 0
M  V30 26 H -1.516691 -7.326583 0.190895 0
M  V30 27 H 0.211621 -6.988087 0.352116 0
M  V30 28 H -0.917238 -6.600754 1.750940 0
M  V30 29 H 1.160253 -5.491478 1.367635 0
M  V30 30 H 2.818730 -3.614555 1.689646 0
M  V30 31 H 3.350952 -1.294015 1.414516 0
M  V30 32 H 3.875292 1.561947 -2.510724 0
M  V30 33 H 0.930473 4.335730 -0.190442 0
M  V30 34 H -1.264391 6.247807 1.618936 0
M  V30 35 H -0.993843 5.364513 0.110780 0
M  V30 36 H 0.420050 5.932751 1.048437 0
M  V30 37 H -0.413694 -0.075353 3.724256 0
M  V30 38 H -1.919421 0.698956 4.382781 0
M  V30 39 H -0.328428 1.111762 5.072224 0
M  V30 40 H 0.930707 0.075987 2.218348 0
M  V30 41 H 0.295952 -1.090389 -0.483596 0
M  V30 42 H -2.974056 -1.393980 -0.957892 0
M  V30 43 H -2.458524 -1.930817 -2.640462 0
M  V30 44 H -1.368327 -0.952145 -1.546032 0
M  V30 END ATOM
M  V30 BEGIN BOND
M  V30 1 1 1 2
M  V30 2 1 2 3
M  V30 3 2 3 4
M  V30 4 1 4 5
M  V30 5 2 5 6
M  V30 6 1 6 7
M  V30 7 1 7 8
M  V30 8 2 8 9
M  V30 9 1 9 10
M  V30 10 2 10 11
M  V30 11 1 11 12
M  V30 12 2 12 13
M  V30 13 1 13 14
M  V30 14 1 14 15
M  V30 15 1 15 16
M  V30 16 2 14 17
M  V30 17 1 17 18
M  V30 18 1 18 19
M  V30 19 1 17 20
M  V30 20 2 20 21
M  V30 21 1 6 22
M  V30 22 2 22 23
M  V30 23 1 23 24
M  V30 24 1 24 25
M  V30 25 1 23 3
M  V30 26 1 21 8
M  V30 27 1 21 12
M  V30 28 1 1 26
M  V30 29 1 1 27
M  V30 30 1 1 28
M  V30 31 1 4 29
M  V30 32 1 5 30
M  V30 33 1 7 31
M  V30 34 1 10 32
M  V30 35 1 13 33
M  V30 36 1 16 34
M  V30 37 1 16 35
M  V30 38 1 16 36
M  V30 39 1 19 37
M  V30 40 1 19 38
M  V30 41 1 19 39
M  V30 42 1 20 40
M  V30 43 1 22 41
M  V30 44 1 25 42
M  V30 45 1 25 43
M  V30 46 1 25 44
M  V30 END BOND
M  V30 END CTAB
M  END
>  <Dataset>  (521) 
ChEMBL_Kinases

>  <Ligand_Instance>  (521) 
nan

>  <PDB_ID>  (521) 
nan

>  <Standardized_SMILES>  (521) 
COc1ccc(Nc2ncnc3cc(OC)c(OC)cc23)cc1OC

>  <Name>  (521) 
nan

>  <Pocket>  (521) 
nan

>  <ATP_Site>  (521) 
nan

>  <Peripheral>  (521) 
nan

>  <Num_H_Atoms_ProtBoundConf>  (521) 
nan

>  <Num_Resolved_Atoms>  (521) 
nan

>  <Num_Not_Resolved_Atoms>  (521) 
nan

$$$$
CHEMBL100739
     RDKit          3D

  0  0  0  0  0  0  0  0  0  0999 V3000
M  V30 BEGIN CTAB
M  V30 COUNTS 66 67 0 0 0
M  V30 BEGIN ATOM
M  V30 1 C -0.879915 1.257601 4.169521 0
M  V30 2 C -0.217339 0.227657 3.309292 0
M  V30 3 C 1.205457 -0.040696 3.735355 0
M  V30 4 C 2.070446 1.170550 3.639512 0
M  V30 5 C 2.149614 1.762711 2.244608 0
M  V30 6 C 2.664003 0.725617 1.298204 0
M  V30 7 C 2.860541 1.220113 -0.075243 0
M  V30 8 C 1.526682 1.735773 -0.693585 0
M  V30 9 C 1.849210 2.259024 -2.051187 0
M  V30 10 C 0.873702 2.887124 -2.920440 0
M  V30 11 C -0.259687 2.232101 -3.508772 0
M  V30 12 C -1.400009 1.631938 -2.839264 0
M  V30 13 O -1.361533 0.559272 -2.008434 0
M  V30 14 C -0.952472 -0.729035 -2.158832 0
M  V30 15 C -0.381578 -1.456784 -3.178913 0
M  V30 16 C -0.047258 -2.784118 -3.058097 0
M  V30 17 C -0.286640 -3.434689 -1.869496 0
M  V30 18 C -0.858413 -2.745744 -0.819394 0
M  V30 19 C -1.200107 -1.390068 -0.946644 0
M  V30 20 C -1.781588 -1.139553 0.340417 0
M  V30 21 O -2.250296 -0.005264 0.671842 0
M  V30 22 O -1.784751 -2.244306 1.171037 0
M  V30 23 C -1.177807 -3.327096 0.547769 0 CFG=2
M  V30 24 C 0.153167 -3.695927 1.176447 0
M  V30 25 O 0.679243 -4.800240 0.495496 0
M  V30 26 C -2.088406 -4.497300 0.413291 0
M  V30 27 O -2.613788 -5.077490 1.523579 0
M  V30 28 C -3.459776 -4.667218 2.477935 0
M  V30 29 C -4.285533 -4.679428 3.674906 0
M  V30 30 O -3.680895 -3.502981 2.048704 0
M  V30 31 H -0.774237 2.268471 3.749896 0
M  V30 32 H -0.516956 1.175427 5.204660 0
M  V30 33 H -1.976660 1.062538 4.224198 0
M  V30 34 H -0.767703 -0.719906 3.327359 0
M  V30 35 H -0.205050 0.601430 2.242660 0
M  V30 36 H 1.598488 -0.893846 3.183937 0
M  V30 37 H 1.155383 -0.332286 4.809847 0
M  V30 38 H 1.743889 1.962197 4.345322 0
M  V30 39 H 3.106083 0.891684 3.937482 0
M  V30 40 H 1.180626 2.155540 1.943561 0
M  V30 41 H 2.868595 2.587844 2.284950 0
M  V30 42 H 3.614018 0.296232 1.687836 0
M  V30 43 H 1.957636 -0.161124 1.321638 0
M  V30 44 H 3.608964 2.034073 -0.167600 0
M  V30 45 H 3.160770 0.393437 -0.774094 0
M  V30 46 H 0.908790 0.851171 -0.742826 0
M  V30 47 H 1.179783 2.536417 -0.032066 0
M  V30 48 H 2.796370 2.924021 -1.942063 0
M  V30 49 H 2.325056 1.378205 -2.641731 0
M  V30 50 H 1.518411 3.332529 -3.805361 0
M  V30 51 H 0.526885 3.904980 -2.437553 0
M  V30 52 H -0.672733 3.012962 -4.295978 0
M  V30 53 H 0.176952 1.494052 -4.297441 0
M  V30 54 H -2.097752 2.455674 -2.390199 0
M  V30 55 H -2.117206 1.306992 -3.698223 0
M  V30 56 H -0.247342 -0.841816 -4.050646 0
M  V30 57 H 0.388858 -3.219359 -3.941736 0
M  V30 58 H -0.000424 -4.476803 -1.850738 0
M  V30 59 H 0.119631 -3.799607 2.262135 0
M  V30 60 H 0.889481 -2.867061 0.975692 0
M  V30 61 H 0.839322 -5.549524 1.110497 0
M  V30 62 H -1.451200 -5.302952 -0.089812 0
M  V30 63 H -2.869459 -4.323835 -0.390394 0
M  V30 64 H -5.352100 -4.433374 3.488265 0
M  V30 65 H -4.298554 -5.721362 4.108626 0
M  V30 66 H -3.824108 -4.008864 4.447517 0
M  V30 END ATOM
M  V30 BEGIN BOND
M  V30 1 1 1 2
M  V30 2 1 2 3
M  V30 3 1 3 4
M  V30 4 1 4 5
M  V30 5 1 5 6
M  V30 6 1 6 7
M  V30 7 1 7 8
M  V30 8 1 8 9
M  V30 9 1 9 10
M  V30 10 1 10 11
M  V30 11 1 11 12
M  V30 12 1 12 13
M  V30 13 1 13 14
M  V30 14 2 14 15
M  V30 15 1 15 16
M  V30 16 2 16 17
M  V30 17 1 17 18
M  V30 18 2 18 19
M  V30 19 1 19 20
M  V30 20 2 20 21
M  V30 21 1 20 22
M  V30 22 1 22 23
M  V30 23 1 23 24 CFG=1
M  V30 24 1 24 25
M  V30 25 1 23 26
M  V30 26 1 26 27
M  V30 27 1 27 28
M  V30 28 1 28 29
M  V30 29 2 28 30
M  V30 30 1 19 14
M  V30 31 1 23 18
M  V30 32 1 1 31
M  V30 33 1 1 32
M  V30 34 1 1 33
M  V30 35 1 2 34
M  V30 36 1 2 35
M  V30 37 1 3 36
M  V30 38 1 3 37
M  V30 39 1 4 38
M  V30 40 1 4 39
M  V30 41 1 5 40
M  V30 42 1 5 41
M  V30 43 1 6 42
M  V30 44 1 6 43
M  V30 45 1 7 44
M  V30 46 1 7 45
M  V30 47 1 8 46
M  V30 48 1 8 47
M  V30 49 1 9 48
M  V30 50 1 9 49
M  V30 51 1 10 50
M  V30 52 1 10 51
M  V30 53 1 11 52
M  V30 54 1 11 53
M  V30 55 1 12 54
M  V30 56 1 12 55
M  V30 57 1 15 56
M  V30 58 1 16 57
M  V30 59 1 17 58
M  V30 60 1 24 59
M  V30 61 1 24 60
M  V30 62 1 25 61
M  V30 63 1 26 62
M  V30 64 1 26 63
M  V30 65 1 29 64
M  V30 66 1 29 65
M  V30 67 1 29 66
M  V30 END BOND
M  V30 END CTAB
M  END
>  <Dataset>  (522) 
ChEMBL_Kinases

>  <Ligand_Instance>  (522) 
nan

>  <PDB_ID>  (522) 
nan

>  <Standardized_SMILES>  (522) 
CCCCCCCCCCCCOc1cccc2c1C(=O)O[C@@]2(CO)COC(C)=O

>  <Name>  (522) 
nan

>  <Pocket>  (522) 
nan

>  <ATP_Site>  (522) 
nan

>  <Peripheral>  (522) 
nan

>  <Num_H_Atoms_ProtBoundConf>  (522) 
nan

>  <Num_Resolved_Atoms>  (522) 
nan

>  <Num_Not_Resolved_Atoms>  (522) 
nan

$$$$
CHEMBL100818
     RDKit          3D

  0  0  0  0  0  0  0  0  0  0999 V3000
M  V30 BEGIN CTAB
M  V30 COUNTS 32 34 0 0 0
M  V30 BEGIN ATOM
M  V30 1 C 0.239551 -4.898004 2.536785 0
M  V30 2 O 1.490505 -4.332588 2.909495 0
M  V30 3 C 1.839879 -3.038589 2.524176 0
M  V30 4 C 3.073473 -2.589502 2.938385 0
M  V30 5 C 3.425563 -1.323970 2.566703 0
M  V30 6 C 2.497489 -0.608576 1.801398 0
M  V30 7 S 2.665733 1.146124 1.129443 0
M  V30 8 C 1.079598 1.098674 0.368642 0
M  V30 9 C 0.534172 -0.141878 0.633649 0
M  V30 10 C 1.256640 -1.016831 1.365980 0
M  V30 11 C 0.965223 -2.301064 1.775633 0
M  V30 12 N -0.778074 -0.487364 0.133469 0
M  V30 13 C -1.488621 0.081102 -1.021924 0
M  V30 14 C -1.864362 1.529902 -0.742748 0 CFG=2
M  V30 15 C -2.999496 1.997909 -1.586890 0
M  V30 16 N -0.716941 2.408131 -1.012808 0
M  V30 17 C 0.572602 2.255844 -0.379292 0
M  V30 18 O 1.394336 3.201104 -0.449459 0
M  V30 19 H 0.155814 -4.800351 1.414650 0
M  V30 20 H 0.208769 -5.960375 2.771862 0
M  V30 21 H -0.625792 -4.345691 2.949729 0
M  V30 22 H 3.806430 -3.116040 3.526227 0
M  V30 23 H 4.357068 -0.852809 2.822609 0
M  V30 24 H 0.025991 -2.767376 1.513911 0
M  V30 25 H -1.273871 -1.251868 0.685201 0
M  V30 26 H -2.449577 -0.469431 -1.096038 0
M  V30 27 H -0.874789 -0.041997 -1.929173 0
M  V30 28 H -2.127288 1.603666 0.317740 0
M  V30 29 H -3.632146 1.161608 -1.968493 0
M  V30 30 H -3.664789 2.635414 -0.968466 0
M  V30 31 H -2.651596 2.660898 -2.432288 0
M  V30 32 H -0.743609 3.219631 -1.690734 0
M  V30 END ATOM
M  V30 BEGIN BOND
M  V30 1 1 1 2
M  V30 2 1 2 3
M  V30 3 2 3 4
M  V30 4 1 4 5
M  V30 5 2 5 6
M  V30 6 1 6 7
M  V30 7 1 7 8
M  V30 8 2 8 9
M  V30 9 1 9 10
M  V30 10 2 10 11
M  V30 11 1 9 12
M  V30 12 1 12 13
M  V30 13 1 13 14
M  V30 14 1 14 15
M  V30 15 1 14 16
M  V30 16 1 16 17
M  V30 17 2 17 18
M  V30 18 1 11 3
M  V30 19 1 10 6
M  V30 20 1 17 8
M  V30 21 1 1 19
M  V30 22 1 1 20
M  V30 23 1 1 21
M  V30 24 1 4 22
M  V30 25 1 5 23
M  V30 26 1 11 24
M  V30 27 1 12 25
M  V30 28 1 13 26
M  V30 29 1 13 27
M  V30 30 1 14 28 CFG=1
M  V30 31 1 15 29
M  V30 32 1 15 30
M  V30 33 1 15 31
M  V30 34 1 16 32
M  V30 END BOND
M  V30 END CTAB
M  END
>  <Dataset>  (523) 
ChEMBL_Kinases

>  <Ligand_Instance>  (523) 
nan

>  <PDB_ID>  (523) 
nan

>  <Standardized_SMILES>  (523) 
COc1ccc2sc3c(c2c1)NC[C@H](C)NC3=O

>  <Name>  (523) 
nan

>  <Pocket>  (523) 
nan

>  <ATP_Site>  (523) 
nan

>  <Peripheral>  (523) 
nan

>  <Num_H_Atoms_ProtBoundConf>  (523) 
nan

>  <Num_Resolved_Atoms>  (523) 
nan

>  <Num_Not_Resolved_Atoms>  (523) 
nan

$$$$
CHEMBL100914
     RDKit          3D

  0  0  0  0  0  0  0  0  0  0999 V3000
M  V30 BEGIN CTAB
M  V30 COUNTS 60 61 0 0 0
M  V30 BEGIN ATOM
M  V30 1 C -1.055619 -1.161472 7.282948 0
M  V30 2 C -0.023630 -0.889141 6.225642 0
M  V30 3 C 0.246039 0.600371 6.152277 0
M  V30 4 C 1.292591 0.874443 5.079712 0
M  V30 5 C 1.596415 2.334926 4.965844 0
M  V30 6 C 2.628241 2.643015 3.913727 0
M  V30 7 C 2.218173 2.209333 2.536781 0
M  V30 8 C 0.965537 2.864410 2.075997 0
M  V30 9 C 0.536746 2.449386 0.708983 0
M  V30 10 C 0.276891 0.989087 0.594325 0
M  V30 11 O -0.136286 0.566274 -0.709223 0
M  V30 12 C -0.389444 -0.810125 -0.848123 0
M  V30 13 C -0.251554 -1.719058 0.207029 0
M  V30 14 C -0.508650 -3.055040 0.029472 0
M  V30 15 C -0.909221 -3.500649 -1.213270 0
M  V30 16 C -1.037140 -2.582660 -2.236284 0
M  V30 17 C -0.787307 -1.239599 -2.090224 0
M  V30 18 C -1.046351 -0.677727 -3.396142 0
M  V30 19 O -0.925577 0.552284 -3.668551 0
M  V30 20 O -1.431772 -1.686877 -4.249284 0
M  V30 21 C -1.466807 -2.944914 -3.637504 0 CFG=2
M  V30 22 C -2.862866 -3.519728 -3.635153 0
M  V30 23 O -3.232856 -3.620557 -4.985656 0
M  V30 24 C -0.463419 -3.908707 -4.157323 0
M  V30 25 O -0.531305 -4.244785 -5.498231 0
M  V30 26 C -0.354988 -3.329968 -6.507491 0
M  V30 27 C -0.459807 -3.823178 -7.915234 0
M  V30 28 O -0.112069 -2.107485 -6.395495 0
M  V30 29 H -1.169629 -0.307075 7.995340 0
M  V30 30 H -0.798821 -2.033270 7.911902 0
M  V30 31 H -2.048948 -1.433995 6.823334 0
M  V30 32 H -0.427580 -1.287087 5.252818 0
M  V30 33 H 0.909687 -1.426009 6.498651 0
M  V30 34 H -0.684119 1.116785 5.903033 0
M  V30 35 H 0.678842 0.871979 7.142071 0
M  V30 36 H 0.945984 0.464862 4.108037 0
M  V30 37 H 2.171674 0.262494 5.380073 0
M  V30 38 H 0.665664 2.893623 4.863380 0
M  V30 39 H 2.053822 2.661022 5.940358 0
M  V30 40 H 2.884073 3.705655 3.932705 0
M  V30 41 H 3.542475 2.069220 4.186032 0
M  V30 42 H 2.243624 1.122766 2.514439 0
M  V30 43 H 3.037144 2.570871 1.856669 0
M  V30 44 H 1.185759 3.967955 2.020690 0
M  V30 45 H 0.107335 2.743559 2.759648 0
M  V30 46 H -0.423046 2.970530 0.476328 0
M  V30 47 H 1.239218 2.820921 -0.090062 0
M  V30 48 H 1.177261 0.433900 0.917671 0
M  V30 49 H -0.604037 0.770000 1.261150 0
M  V30 50 H 0.069100 -1.314071 1.173357 0
M  V30 51 H -0.365074 -3.667058 0.930653 0
M  V30 52 H -1.099483 -4.561963 -1.301760 0
M  V30 53 H -3.581926 -2.875234 -3.133823 0
M  V30 54 H -2.892402 -4.525320 -3.217105 0
M  V30 55 H -3.294875 -4.565471 -5.289534 0
M  V30 56 H 0.558125 -3.490772 -3.884469 0
M  V30 57 H -0.516085 -4.834361 -3.522183 0
M  V30 58 H -0.783843 -4.877334 -7.967591 0
M  V30 59 H -1.145520 -3.133363 -8.446888 0
M  V30 60 H 0.548311 -3.720581 -8.359604 0
M  V30 END ATOM
M  V30 BEGIN BOND
M  V30 1 1 1 2
M  V30 2 1 2 3
M  V30 3 1 3 4
M  V30 4 1 4 5
M  V30 5 1 5 6
M  V30 6 1 6 7
M  V30 7 1 7 8
M  V30 8 1 8 9
M  V30 9 1 9 10
M  V30 10 1 10 11
M  V30 11 1 11 12
M  V30 12 2 12 13
M  V30 13 1 13 14
M  V30 14 2 14 15
M  V30 15 1 15 16
M  V30 16 2 16 17
M  V30 17 1 17 18
M  V30 18 2 18 19
M  V30 19 1 18 20
M  V30 20 1 20 21
M  V30 21 1 21 22 CFG=1
M  V30 22 1 22 23
M  V30 23 1 21 24
M  V30 24 1 24 25
M  V30 25 1 25 26
M  V30 26 1 26 27
M  V30 27 2 26 28
M  V30 28 1 17 12
M  V30 29 1 21 16
M  V30 30 1 1 29
M  V30 31 1 1 30
M  V30 32 1 1 31
M  V30 33 1 2 32
M  V30 34 1 2 33
M  V30 35 1 3 34
M  V30 36 1 3 35
M  V30 37 1 4 36
M  V30 38 1 4 37
M  V30 39 1 5 38
M  V30 40 1 5 39
M  V30 41 1 6 40
M  V30 42 1 6 41
M  V30 43 1 7 42
M  V30 44 1 7 43
M  V30 45 1 8 44
M  V30 46 1 8 45
M  V30 47 1 9 46
M  V30 48 1 9 47
M  V30 49 1 10 48
M  V30 50 1 10 49
M  V30 51 1 13 50
M  V30 52 1 14 51
M  V30 53 1 15 52
M  V30 54 1 22 53
M  V30 55 1 22 54
M  V30 56 1 23 55
M  V30 57 1 24 56
M  V30 58 1 24 57
M  V30 59 1 27 58
M  V30 60 1 27 59
M  V30 61 1 27 60
M  V30 END BOND
M  V30 END CTAB
M  END
>  <Dataset>  (524) 
ChEMBL_Kinases

>  <Ligand_Instance>  (524) 
nan

>  <PDB_ID>  (524) 
nan

>  <Standardized_SMILES>  (524) 
CCCCCCCCCCOc1cccc2c1C(=O)O[C@@]2(CO)COC(C)=O

>  <Name>  (524) 
nan

>  <Pocket>  (524) 
nan

>  <ATP_Site>  (524) 
nan

>  <Peripheral>  (524) 
nan

>  <Num_H_Atoms_ProtBoundConf>  (524) 
nan

>  <Num_Resolved_Atoms>  (524) 
nan

>  <Num_Not_Resolved_Atoms>  (524) 
nan

$$$$
CHEMBL101253
     RDKit          3D

  0  0  0  0  0  0  0  0  0  0999 V3000
M  V30 BEGIN CTAB
M  V30 COUNTS 40 43 0 0 0
M  V30 BEGIN ATOM
M  V30 1 Cl 0.700987 -7.718246 2.247884 0
M  V30 2 C 1.166182 -6.006127 2.233686 0
M  V30 3 C 0.921075 -5.207068 1.120963 0
M  V30 4 C 1.250346 -3.855228 1.029708 0
M  V30 5 C 1.861309 -3.359360 2.176682 0
M  V30 6 N 2.193872 -1.958731 2.204791 0
M  V30 7 C 1.668090 -1.068246 1.202497 0
M  V30 8 N 2.360069 -0.420154 0.256695 0
M  V30 9 N 1.807182 0.367988 -0.630784 0
M  V30 10 C 0.464258 0.626718 -0.699227 0
M  V30 11 C -0.052598 1.560395 -1.690903 0
M  V30 12 C -0.201855 2.968819 -1.263877 0
M  V30 13 C 0.821943 3.874690 -1.685932 0
M  V30 14 C 0.762418 5.201439 -1.332391 0
M  V30 15 N -0.237401 5.714189 -0.582228 0
M  V30 16 C -1.241978 4.937861 -0.137668 0
M  V30 17 C -1.139329 3.623149 -0.518686 0
M  V30 18 C -0.219766 -0.066489 0.295003 0
M  V30 19 C -1.591640 0.112852 0.283453 0
M  V30 20 C -2.464640 -0.506673 1.185760 0
M  V30 21 C -1.918610 -1.348806 2.145042 0
M  V30 22 C -0.534192 -1.510997 2.131941 0
M  V30 23 C 0.319415 -0.902463 1.244600 0
M  V30 24 C 2.143019 -4.064080 3.313844 0
M  V30 25 C 1.786323 -5.395849 3.328039 0
M  V30 26 H 0.445033 -5.669854 0.278466 0
M  V30 27 H 1.043017 -3.269353 0.156445 0
M  V30 28 H 2.834595 -1.535525 2.935291 0
M  V30 29 H -0.976142 1.189721 -2.203360 0
M  V30 30 H 0.690734 1.559238 -2.540960 0
M  V30 31 H 1.647245 3.512395 -2.287719 0
M  V30 32 H 1.578885 5.844079 -1.697040 0
M  V30 33 H -2.060254 5.272514 0.457246 0
M  V30 34 H -1.942899 2.986924 -0.167471 0
M  V30 35 H -2.073158 0.727666 -0.432529 0
M  V30 36 H -3.531240 -0.370398 1.180941 0
M  V30 37 H -2.530228 -1.880083 2.881958 0
M  V30 38 H -0.152824 -2.172082 2.895927 0
M  V30 39 H 2.632208 -3.603885 4.185514 0
M  V30 40 H 1.974028 -6.039387 4.204227 0
M  V30 END ATOM
M  V30 BEGIN BOND
M  V30 1 1 1 2
M  V30 2 2 2 3
M  V30 3 1 3 4
M  V30 4 2 4 5
M  V30 5 1 5 6
M  V30 6 1 6 7
M  V30 7 2 7 8
M  V30 8 1 8 9
M  V30 9 2 9 10
M  V30 10 1 10 11
M  V30 11 1 11 12
M  V30 12 2 12 13
M  V30 13 1 13 14
M  V30 14 2 14 15
M  V30 15 1 15 16
M  V30 16 2 16 17
M  V30 17 1 10 18
M  V30 18 2 18 19
M  V30 19 1 19 20
M  V30 20 2 20 21
M  V30 21 1 21 22
M  V30 22 2 22 23
M  V30 23 1 5 24
M  V30 24 2 24 25
M  V30 25 1 25 2
M  V30 26 1 23 7
M  V30 27 1 17 12
M  V30 28 1 23 18
M  V30 29 1 3 26
M  V30 30 1 4 27
M  V30 31 1 6 28
M  V30 32 1 11 29
M  V30 33 1 11 30
M  V30 34 1 13 31
M  V30 35 1 14 32
M  V30 36 1 16 33
M  V30 37 1 17 34
M  V30 38 1 19 35
M  V30 39 1 20 36
M  V30 40 1 21 37
M  V30 41 1 22 38
M  V30 42 1 24 39
M  V30 43 1 25 40
M  V30 END BOND
M  V30 END CTAB
M  END
>  <Dataset>  (525) 
ChEMBL_Kinases

>  <Ligand_Instance>  (525) 
nan

>  <PDB_ID>  (525) 
nan

>  <Standardized_SMILES>  (525) 
Clc1ccc(Nc2nnc(Cc3ccncc3)c3ccccc23)cc1

>  <Name>  (525) 
VATALANIB

>  <Pocket>  (525) 
nan

>  <ATP_Site>  (525) 
nan

>  <Peripheral>  (525) 
nan

>  <Num_H_Atoms_ProtBoundConf>  (525) 
nan

>  <Num_Resolved_Atoms>  (525) 
nan

>  <Num_Not_Resolved_Atoms>  (525) 
nan

$$$$
CHEMBL101616
     RDKit          3D

  0  0  0  0  0  0  0  0  0  0999 V3000
M  V30 BEGIN CTAB
M  V30 COUNTS 39 40 0 0 0
M  V30 BEGIN ATOM
M  V30 1 C 3.786768 -4.651045 4.067220 0
M  V30 2 C 3.619684 -4.672304 2.748325 0
M  V30 3 C 3.962932 -3.526444 1.852813 0
M  V30 4 C 2.772802 -3.039791 1.113283 0
M  V30 5 O 1.716429 -3.668215 1.370964 0
M  V30 6 O 2.913088 -1.991506 0.247331 0
M  V30 7 C 1.901714 -1.439805 -0.500220 0
M  V30 8 C 1.534359 -1.833126 -1.767754 0
M  V30 9 C 0.486128 -1.211440 -2.458840 0
M  V30 10 C -0.233686 -0.158317 -1.882864 0
M  V30 11 C 0.147499 0.227181 -0.605569 0
M  V30 12 C 1.182925 -0.400361 0.054502 0
M  V30 13 C 1.191723 0.339378 1.309927 0
M  V30 14 O 1.983622 0.132033 2.272033 0
M  V30 15 O 0.223100 1.323337 1.358222 0
M  V30 16 C -0.490998 1.314321 0.162190 0 CFG=1
M  V30 17 C -0.515948 2.624387 -0.556584 0
M  V30 18 O -1.259993 2.451772 -1.718390 0
M  V30 19 C -1.907964 0.861741 0.514208 0
M  V30 20 O -2.497317 1.760961 1.443574 0
M  V30 21 C -3.776527 1.570942 1.918798 0
M  V30 22 C -4.375778 2.523588 2.891378 0
M  V30 23 O -4.318662 0.532408 1.430471 0
M  V30 24 H 4.199980 -3.710321 4.424042 0
M  V30 25 H 3.487099 -5.567857 4.575587 0
M  V30 26 H 3.220943 -5.507762 2.167529 0
M  V30 27 H 4.714230 -3.884680 1.141366 0
M  V30 28 H 4.416227 -2.700288 2.470412 0
M  V30 29 H 2.082911 -2.638202 -2.210906 0
M  V30 30 H 0.285732 -1.607356 -3.454550 0
M  V30 31 H -0.996094 0.213791 -2.519848 0
M  V30 32 H 0.496820 2.974765 -0.738741 0
M  V30 33 H -1.105834 3.322073 0.075369 0
M  V30 34 H -2.227753 2.480608 -1.536529 0
M  V30 35 H -1.864545 -0.114515 1.039056 0
M  V30 36 H -2.509680 0.755144 -0.413191 0
M  V30 37 H -5.398512 2.187110 3.135424 0
M  V30 38 H -4.440197 3.551438 2.475506 0
M  V30 39 H -3.820263 2.535555 3.850571 0
M  V30 END ATOM
M  V30 BEGIN BOND
M  V30 1 2 1 2
M  V30 2 1 2 3
M  V30 3 1 3 4
M  V30 4 2 4 5
M  V30 5 1 4 6
M  V30 6 1 6 7
M  V30 7 2 7 8
M  V30 8 1 8 9
M  V30 9 2 9 10
M  V30 10 1 10 11
M  V30 11 2 11 12
M  V30 12 1 12 13
M  V30 13 2 13 14
M  V30 14 1 13 15
M  V30 15 1 15 16
M  V30 16 1 16 17 CFG=3
M  V30 17 1 17 18
M  V30 18 1 16 19
M  V30 19 1 19 20
M  V30 20 1 20 21
M  V30 21 1 21 22
M  V30 22 2 21 23
M  V30 23 1 12 7
M  V30 24 1 16 11
M  V30 25 1 1 24
M  V30 26 1 1 25
M  V30 27 1 2 26
M  V30 28 1 3 27
M  V30 29 1 3 28
M  V30 30 1 8 29
M  V30 31 1 9 30
M  V30 32 1 10 31
M  V30 33 1 17 32
M  V30 34 1 17 33
M  V30 35 1 18 34
M  V30 36 1 19 35
M  V30 37 1 19 36
M  V30 38 1 22 37
M  V30 39 1 22 38
M  V30 40 1 22 39
M  V30 END BOND
M  V30 END CTAB
M  END
>  <Dataset>  (526) 
ChEMBL_Kinases

>  <Ligand_Instance>  (526) 
nan

>  <PDB_ID>  (526) 
nan

>  <Standardized_SMILES>  (526) 
C=CCC(=O)Oc1cccc2c1C(=O)O[C@]2(CO)COC(C)=O

>  <Name>  (526) 
nan

>  <Pocket>  (526) 
nan

>  <ATP_Site>  (526) 
nan

>  <Peripheral>  (526) 
nan

>  <Num_H_Atoms_ProtBoundConf>  (526) 
nan

>  <Num_Resolved_Atoms>  (526) 
nan

>  <Num_Not_Resolved_Atoms>  (526) 
nan

$$$$
CHEMBL103104
     RDKit          3D

  0  0  0  0  0  0  0  0  0  0999 V3000
M  V30 BEGIN CTAB
M  V30 COUNTS 37 39 0 0 0
M  V30 BEGIN ATOM
M  V30 1 N -0.496222 -4.745714 2.712804 0
M  V30 2 S 1.151672 -4.946767 2.358963 0
M  V30 3 O 1.892269 -5.029284 3.680516 0
M  V30 4 O 1.397574 -6.232980 1.651163 0
M  V30 5 C 1.769596 -3.608455 1.376638 0
M  V30 6 C 1.848904 -3.642505 0.005497 0
M  V30 7 C 2.331073 -2.525193 -0.644138 0
M  V30 8 C 2.718074 -1.417451 0.077899 0
M  V30 9 N 3.249357 -0.193210 -0.477868 0
M  V30 10 C 2.402467 0.919064 -0.114964 0
M  V30 11 C 1.013183 0.780859 -0.277731 0
M  V30 12 C 0.303546 1.926025 0.115427 0
M  V30 13 C -1.139016 2.071245 0.069061 0
M  V30 14 C -1.726185 3.243754 0.500955 0
M  V30 15 C -3.089758 3.335041 0.424273 0
M  V30 16 C -3.847597 2.318109 -0.057459 0
M  V30 17 C -3.324792 1.136412 -0.498946 0
M  V30 18 O -4.013596 0.033785 -1.007536 0
M  V30 19 C -1.926975 1.049760 -0.416217 0
M  V30 20 N 1.296476 2.733818 0.508822 0
M  V30 21 N 2.489688 2.186222 0.387703 0
M  V30 22 C 2.630303 -1.406851 1.473949 0
M  V30 23 C 2.149821 -2.510881 2.151577 0
M  V30 24 H -0.753223 -4.627026 3.688872 0
M  V30 25 H -1.143912 -5.169044 2.057569 0
M  V30 26 H 1.533078 -4.524858 -0.527902 0
M  V30 27 H 2.427792 -2.478890 -1.734432 0
M  V30 28 H 4.093233 0.046616 -1.073164 0
M  V30 29 H 0.500625 -0.111101 -0.664205 0
M  V30 30 H -1.073281 4.036596 0.884366 0
M  V30 31 H -3.559107 4.262880 0.769778 0
M  V30 32 H -4.946178 2.385853 -0.121595 0
M  V30 33 H -3.576556 -0.859541 -0.950713 0
M  V30 34 H -1.484972 0.120519 -0.760353 0
M  V30 35 H 3.468473 2.491999 0.581141 0
M  V30 36 H 2.935538 -0.540277 2.074680 0
M  V30 37 H 2.096272 -2.464955 3.218542 0
M  V30 END ATOM
M  V30 BEGIN BOND
M  V30 1 1 1 2
M  V30 2 2 2 3
M  V30 3 2 2 4
M  V30 4 1 2 5
M  V30 5 2 5 6
M  V30 6 1 6 7
M  V30 7 2 7 8
M  V30 8 1 8 9
M  V30 9 1 9 10
M  V30 10 2 10 11
M  V30 11 1 11 12
M  V30 12 1 12 13
M  V30 13 2 13 14
M  V30 14 1 14 15
M  V30 15 2 15 16
M  V30 16 1 16 17
M  V30 17 1 17 18
M  V30 18 2 17 19
M  V30 19 2 12 20
M  V30 20 1 20 21
M  V30 21 1 8 22
M  V30 22 2 22 23
M  V30 23 1 23 5
M  V30 24 1 21 10
M  V30 25 1 19 13
M  V30 26 1 1 24
M  V30 27 1 1 25
M  V30 28 1 6 26
M  V30 29 1 7 27
M  V30 30 1 9 28
M  V30 31 1 11 29
M  V30 32 1 14 30
M  V30 33 1 15 31
M  V30 34 1 16 32
M  V30 35 1 18 33
M  V30 36 1 19 34
M  V30 37 1 21 35
M  V30 38 1 22 36
M  V30 39 1 23 37
M  V30 END BOND
M  V30 END CTAB
M  END
>  <Dataset>  (527) 
ChEMBL_Kinases

>  <Ligand_Instance>  (527) 
nan

>  <PDB_ID>  (527) 
nan

>  <Standardized_SMILES>  (527) 
NS(=O)(=O)c1ccc(Nc2cc(-c3cccc(O)c3)n[nH]2)cc1

>  <Name>  (527) 
GW831090X

>  <Pocket>  (527) 
nan

>  <ATP_Site>  (527) 
nan

>  <Peripheral>  (527) 
nan

>  <Num_H_Atoms_ProtBoundConf>  (527) 
nan

>  <Num_Resolved_Atoms>  (527) 
nan

>  <Num_Not_Resolved_Atoms>  (527) 
nan

$$$$
CHEMBL106118
     RDKit          3D

  0  0  0  0  0  0  0  0  0  0999 V3000
M  V30 BEGIN CTAB
M  V30 COUNTS 51 54 0 0 0
M  V30 BEGIN ATOM
M  V30 1 C 0.127150 -0.292054 4.067260 0
M  V30 2 C 0.335674 -1.210412 2.901145 0 CFG=2
M  V30 3 C 1.640918 -0.923602 2.174823 0
M  V30 4 N 1.528514 0.089650 1.205465 0
M  V30 5 C 2.238758 1.284011 1.317787 0
M  V30 6 C 3.667419 1.115670 1.006806 0
M  V30 7 C 4.042349 1.372863 -0.319408 0
M  V30 8 C 5.302481 1.291265 -0.869955 0
M  V30 9 C 6.321784 0.905510 0.005675 0
M  V30 10 C 5.993801 0.643247 1.315904 0
M  V30 11 C 4.720977 0.740177 1.810437 0
M  V30 12 C 0.468208 -0.009532 0.285805 0 CFG=1
M  V30 13 C 0.835226 -0.046790 -1.174225 0
M  V30 14 C -0.355358 -1.275647 0.531969 0
M  V30 15 N -0.745325 -1.203391 1.938147 0
M  V30 16 C -2.156600 -1.139031 2.230251 0
M  V30 17 O -2.836184 -1.061689 3.309301 0
M  V30 18 C -3.101378 -1.162803 1.109367 0
M  V30 19 C -3.825616 -0.177562 0.468460 0
M  V30 20 C -4.654324 -0.507990 -0.583711 0
M  V30 21 C -4.776665 -1.816504 -1.015235 0
M  V30 22 N -5.534606 -2.305712 -2.016630 0
M  V30 23 C -5.344640 -3.645752 -2.083797 0
M  V30 24 C -4.445338 -3.954268 -1.088122 0
M  V30 25 C -4.060383 -2.828374 -0.390108 0
M  V30 26 C -3.219393 -2.492433 0.677813 0
M  V30 27 H 1.063343 -0.308430 4.668749 0
M  V30 28 H -0.201114 0.733995 3.798446 0
M  V30 29 H -0.676494 -0.697831 4.720869 0
M  V30 30 H 0.363821 -2.253173 3.296633 0
M  V30 31 H 1.928299 -1.884448 1.658124 0
M  V30 32 H 2.428574 -0.693763 2.893829 0
M  V30 33 H 1.807084 2.019275 0.575689 0
M  V30 34 H 2.108199 1.814245 2.303091 0
M  V30 35 H 3.266116 1.686356 -1.036498 0
M  V30 36 H 5.470808 1.521712 -1.914464 0
M  V30 37 H 7.308110 0.846488 -0.434068 0
M  V30 38 H 6.822578 0.343860 1.953554 0
M  V30 39 H 4.461343 0.531998 2.834710 0
M  V30 40 H -0.239471 0.822676 0.470778 0
M  V30 41 H 0.270504 -0.851131 -1.738937 0
M  V30 42 H 1.888694 -0.230267 -1.386988 0
M  V30 43 H 0.500404 0.917492 -1.660704 0
M  V30 44 H -1.193052 -1.247861 -0.155309 0
M  V30 45 H 0.241731 -2.202299 0.361533 0
M  V30 46 H -3.618312 0.779144 0.925290 0
M  V30 47 H -5.175810 0.334805 -1.016239 0
M  V30 48 H -6.175849 -1.773032 -2.661312 0
M  V30 49 H -5.777950 -4.389853 -2.759191 0
M  V30 50 H -4.049869 -4.949506 -0.836815 0
M  V30 51 H -2.741431 -3.386006 1.048663 0
M  V30 END ATOM
M  V30 BEGIN BOND
M  V30 1 1 1 2
M  V30 2 1 2 3
M  V30 3 1 3 4
M  V30 4 1 4 5
M  V30 5 1 5 6
M  V30 6 2 6 7
M  V30 7 1 7 8
M  V30 8 2 8 9
M  V30 9 1 9 10
M  V30 10 2 10 11
M  V30 11 1 4 12
M  V30 12 1 12 13
M  V30 13 1 12 14
M  V30 14 1 14 15
M  V30 15 1 15 16
M  V30 16 2 16 17
M  V30 17 1 16 18
M  V30 18 2 18 19
M  V30 19 1 19 20
M  V30 20 2 20 21
M  V30 21 1 21 22
M  V30 22 1 22 23
M  V30 23 2 23 24
M  V30 24 1 24 25
M  V30 25 2 25 26
M  V30 26 1 15 2
M  V30 27 1 26 18
M  V30 28 1 11 6
M  V30 29 1 25 21
M  V30 30 1 1 27
M  V30 31 1 1 28
M  V30 32 1 1 29
M  V30 33 1 2 30 CFG=1
M  V30 34 1 3 31
M  V30 35 1 3 32
M  V30 36 1 5 33
M  V30 37 1 5 34
M  V30 38 1 7 35
M  V30 39 1 8 36
M  V30 40 1 9 37
M  V30 41 1 10 38
M  V30 42 1 11 39
M  V30 43 1 12 40 CFG=3
M  V30 44 1 13 41
M  V30 45 1 13 42
M  V30 46 1 13 43
M  V30 47 1 14 44
M  V30 48 1 14 45
M  V30 49 1 19 46
M  V30 50 1 20 47
M  V30 51 1 22 48
M  V30 52 1 23 49
M  V30 53 1 24 50
M  V30 54 1 26 51
M  V30 END BOND
M  V30 END CTAB
M  END
>  <Dataset>  (528) 
ChEMBL_Kinases

>  <Ligand_Instance>  (528) 
nan

>  <PDB_ID>  (528) 
nan

>  <Standardized_SMILES>  (528) 
C[C@@H]1CN(Cc2ccccc2)[C@@H](C)CN1C(=O)c1ccc2[nH]ccc2c1

>  <Name>  (528) 
nan

>  <Pocket>  (528) 
nan

>  <ATP_Site>  (528) 
nan

>  <Peripheral>  (528) 
nan

>  <Num_H_Atoms_ProtBoundConf>  (528) 
nan

>  <Num_Resolved_Atoms>  (528) 
nan

>  <Num_Not_Resolved_Atoms>  (528) 
nan

$$$$
CHEMBL102042
     RDKit          3D

  0  0  0  0  0  0  0  0  0  0999 V3000
M  V30 BEGIN CTAB
M  V30 COUNTS 42 41 0 0 0
M  V30 BEGIN ATOM
M  V30 1 C -4.004543 -2.779467 1.530987 0
M  V30 2 C -2.477817 -2.889651 1.464202 0
M  V30 3 C -2.043237 -3.697444 0.316267 0
M  V30 4 C -0.587557 -3.895508 0.117361 0
M  V30 5 C 0.216887 -2.643927 -0.083738 0
M  V30 6 C -0.224290 -1.874593 -1.278483 0
M  V30 7 C 0.518776 -0.612832 -1.557663 0
M  V30 8 C 0.421735 0.379557 -0.435662 0
M  V30 9 O -0.237336 0.133980 0.604435 0
M  V30 10 O 1.131193 1.532410 -0.718268 0
M  V30 11 C 1.154281 2.576621 0.227334 0
M  V30 12 C 1.771243 2.176562 1.546829 0 CFG=2
M  V30 13 C 1.668297 3.302671 2.563369 0
M  V30 14 O 2.429157 4.378054 2.154179 0
M  V30 15 O 3.108696 1.747858 1.400747 0
M  V30 16 C 3.509142 0.469541 1.751021 0
M  V30 17 C 4.964556 0.224307 1.516343 0
M  V30 18 O 2.764112 -0.409965 2.215496 0
M  V30 19 H -4.444313 -3.748537 1.171171 0
M  V30 20 H -4.361416 -1.926161 0.900196 0
M  V30 21 H -4.389496 -2.610934 2.535197 0
M  V30 22 H -2.176328 -3.355543 2.442928 0
M  V30 23 H -2.100167 -1.868869 1.523852 0
M  V30 24 H -2.517022 -4.698597 0.389188 0
M  V30 25 H -2.476327 -3.258739 -0.616219 0
M  V30 26 H -0.399308 -4.540559 -0.766350 0
M  V30 27 H -0.136121 -4.432081 0.983503 0
M  V30 28 H 1.250258 -3.022618 -0.355494 0
M  V30 29 H 0.386227 -2.092825 0.836359 0
M  V30 30 H -0.065484 -2.539702 -2.162337 0
M  V30 31 H -1.305654 -1.641323 -1.296863 0
M  V30 32 H 1.572677 -0.754564 -1.860544 0
M  V30 33 H 0.027592 -0.112199 -2.416944 0
M  V30 34 H 0.103509 2.880576 0.451694 0
M  V30 35 H 1.738643 3.437041 -0.182333 0
M  V30 36 H 1.138683 1.371452 1.961302 0
M  V30 37 H 2.049340 2.972363 3.550734 0
M  V30 38 H 0.594735 3.537198 2.709383 0
M  V30 39 H 3.366214 4.207367 2.467267 0
M  V30 40 H 5.107224 -0.251096 0.516993 0
M  V30 41 H 5.243636 -0.575935 2.245200 0
M  V30 42 H 5.574495 1.113568 1.669070 0
M  V30 END ATOM
M  V30 BEGIN BOND
M  V30 1 1 1 2
M  V30 2 1 2 3
M  V30 3 1 3 4
M  V30 4 1 4 5
M  V30 5 1 5 6
M  V30 6 1 6 7
M  V30 7 1 7 8
M  V30 8 2 8 9
M  V30 9 1 8 10
M  V30 10 1 10 11
M  V30 11 1 11 12
M  V30 12 1 12 13
M  V30 13 1 13 14
M  V30 14 1 12 15
M  V30 15 1 15 16
M  V30 16 1 16 17
M  V30 17 2 16 18
M  V30 18 1 1 19
M  V30 19 1 1 20
M  V30 20 1 1 21
M  V30 21 1 2 22
M  V30 22 1 2 23
M  V30 23 1 3 24
M  V30 24 1 3 25
M  V30 25 1 4 26
M  V30 26 1 4 27
M  V30 27 1 5 28
M  V30 28 1 5 29
M  V30 29 1 6 30
M  V30 30 1 6 31
M  V30 31 1 7 32
M  V30 32 1 7 33
M  V30 33 1 11 34
M  V30 34 1 11 35
M  V30 35 1 12 36 CFG=1
M  V30 36 1 13 37
M  V30 37 1 13 38
M  V30 38 1 14 39
M  V30 39 1 17 40
M  V30 40 1 17 41
M  V30 41 1 17 42
M  V30 END BOND
M  V30 END CTAB
M  END
>  <Dataset>  (529) 
ChEMBL_Kinases

>  <Ligand_Instance>  (529) 
nan

>  <PDB_ID>  (529) 
nan

>  <Standardized_SMILES>  (529) 
CCCCCCCC(=O)OC[C@H](CO)OC(C)=O

>  <Name>  (529) 
nan

>  <Pocket>  (529) 
nan

>  <ATP_Site>  (529) 
nan

>  <Peripheral>  (529) 
nan

>  <Num_H_Atoms_ProtBoundConf>  (529) 
nan

>  <Num_Resolved_Atoms>  (529) 
nan

>  <Num_Not_Resolved_Atoms>  (529) 
nan

$$$$
CHEMBL102106
     RDKit          3D

  0  0  0  0  0  0  0  0  0  0999 V3000
M  V30 BEGIN CTAB
M  V30 COUNTS 66 67 0 0 0
M  V30 BEGIN ATOM
M  V30 1 C 4.310467 2.790772 2.169367 0
M  V30 2 C 3.198499 1.965376 1.615375 0
M  V30 3 C 2.961241 0.693922 2.392073 0
M  V30 4 C 4.154977 -0.207345 2.423962 0
M  V30 5 C 4.641002 -0.676795 1.092435 0
M  V30 6 C 3.571682 -1.459660 0.363646 0
M  V30 7 C 4.090993 -1.933724 -0.999234 0
M  V30 8 C 3.064693 -2.702747 -1.714708 0
M  V30 9 C 1.774942 -2.038053 -2.036292 0
M  V30 10 C 1.785540 -0.842770 -2.882721 0
M  V30 11 C 0.461272 -0.233483 -3.169567 0
M  V30 12 C -0.374596 0.316027 -2.081809 0
M  V30 13 O -0.857674 -0.359290 -1.064490 0
M  V30 14 C -1.322766 -1.009700 -0.084691 0
M  V30 15 C -0.700024 -1.662857 0.956958 0
M  V30 16 C -1.302207 -2.343329 1.982223 0
M  V30 17 C -2.665863 -2.370353 1.958963 0
M  V30 18 C -3.418146 -1.762667 0.981702 0
M  V30 19 C -2.720529 -1.088749 -0.027523 0
M  V30 20 C -3.809059 -0.563065 -0.845657 0
M  V30 21 O -3.768763 0.121892 -1.888568 0
M  V30 22 O -5.059302 -0.922560 -0.318088 0
M  V30 23 C -4.889246 -1.722465 0.803726 0 CFG=1
M  V30 24 C -5.287477 -3.179012 0.516975 0
M  V30 25 O -5.074551 -3.867422 1.696816 0
M  V30 26 C -5.522866 -1.240594 2.068386 0
M  V30 27 O -5.080374 0.004325 2.495348 0
M  V30 28 C -5.239203 1.206569 1.844094 0
M  V30 29 C -4.650886 2.392831 2.533813 0
M  V30 30 O -5.825382 1.322775 0.759635 0
M  V30 31 H 5.165261 2.838744 1.447602 0
M  V30 32 H 4.651160 2.451722 3.169315 0
M  V30 33 H 3.978732 3.840470 2.299181 0
M  V30 34 H 2.253300 2.545891 1.665735 0
M  V30 35 H 3.395650 1.777774 0.540262 0
M  V30 36 H 2.056033 0.218869 2.008905 0
M  V30 37 H 2.766135 0.998359 3.441707 0
M  V30 38 H 4.936571 0.220151 3.060917 0
M  V30 39 H 3.817552 -1.135137 2.973380 0
M  V30 40 H 5.087140 0.110891 0.473895 0
M  V30 41 H 5.457617 -1.409441 1.292396 0
M  V30 42 H 3.254292 -2.321740 0.948039 0
M  V30 43 H 2.673076 -0.830139 0.127547 0
M  V30 44 H 4.959952 -2.576233 -0.753271 0
M  V30 45 H 4.455047 -1.024244 -1.484341 0
M  V30 46 H 3.537391 -3.111030 -2.655350 0
M  V30 47 H 2.823593 -3.614999 -1.128631 0
M  V30 48 H 1.218867 -1.830686 -1.113372 0
M  V30 49 H 1.147513 -2.822224 -2.551777 0
M  V30 50 H 2.479777 -0.033822 -2.548439 0
M  V30 51 H 2.218804 -1.096255 -3.907311 0
M  V30 52 H 0.509788 0.506649 -4.017064 0
M  V30 53 H -0.169980 -1.066526 -3.641287 0
M  V30 54 H 0.102329 1.294734 -1.682868 0
M  V30 55 H -1.272242 0.813434 -2.632648 0
M  V30 56 H 0.378690 -1.647505 1.010546 0
M  V30 57 H -0.751647 -2.832591 2.767008 0
M  V30 58 H -3.176041 -2.895373 2.748323 0
M  V30 59 H -6.347869 -3.219698 0.185208 0
M  V30 60 H -4.593660 -3.585803 -0.245639 0
M  V30 61 H -4.395772 -4.596936 1.582066 0
M  V30 62 H -5.267228 -1.965762 2.892441 0
M  V30 63 H -6.634482 -1.234248 1.907811 0
M  V30 64 H -4.912447 3.324556 1.984988 0
M  V30 65 H -5.120550 2.446813 3.540951 0
M  V30 66 H -3.571962 2.259188 2.668861 0
M  V30 END ATOM
M  V30 BEGIN BOND
M  V30 1 1 1 2
M  V30 2 1 2 3
M  V30 3 1 3 4
M  V30 4 1 4 5
M  V30 5 1 5 6
M  V30 6 1 6 7
M  V30 7 1 7 8
M  V30 8 1 8 9
M  V30 9 1 9 10
M  V30 10 1 10 11
M  V30 11 1 11 12
M  V30 12 1 12 13
M  V30 13 1 13 14
M  V30 14 2 14 15
M  V30 15 1 15 16
M  V30 16 2 16 17
M  V30 17 1 17 18
M  V30 18 2 18 19
M  V30 19 1 19 20
M  V30 20 2 20 21
M  V30 21 1 20 22
M  V30 22 1 22 23
M  V30 23 1 23 24 CFG=3
M  V30 24 1 24 25
M  V30 25 1 23 26
M  V30 26 1 26 27
M  V30 27 1 27 28
M  V30 28 1 28 29
M  V30 29 2 28 30
M  V30 30 1 19 14
M  V30 31 1 23 18
M  V30 32 1 1 31
M  V30 33 1 1 32
M  V30 34 1 1 33
M  V30 35 1 2 34
M  V30 36 1 2 35
M  V30 37 1 3 36
M  V30 38 1 3 37
M  V30 39 1 4 38
M  V30 40 1 4 39
M  V30 41 1 5 40
M  V30 42 1 5 41
M  V30 43 1 6 42
M  V30 44 1 6 43
M  V30 45 1 7 44
M  V30 46 1 7 45
M  V30 47 1 8 46
M  V30 48 1 8 47
M  V30 49 1 9 48
M  V30 50 1 9 49
M  V30 51 1 10 50
M  V30 52 1 10 51
M  V30 53 1 11 52
M  V30 54 1 11 53
M  V30 55 1 12 54
M  V30 56 1 12 55
M  V30 57 1 15 56
M  V30 58 1 16 57
M  V30 59 1 17 58
M  V30 60 1 24 59
M  V30 61 1 24 60
M  V30 62 1 25 61
M  V30 63 1 26 62
M  V30 64 1 26 63
M  V30 65 1 29 64
M  V30 66 1 29 65
M  V30 67 1 29 66
M  V30 END BOND
M  V30 END CTAB
M  END
>  <Dataset>  (530) 
ChEMBL_Kinases

>  <Ligand_Instance>  (530) 
nan

>  <PDB_ID>  (530) 
nan

>  <Standardized_SMILES>  (530) 
CCCCCCCCCCCCOc1cccc2c1C(=O)O[C@]2(CO)COC(C)=O

>  <Name>  (530) 
nan

>  <Pocket>  (530) 
nan

>  <ATP_Site>  (530) 
nan

>  <Peripheral>  (530) 
nan

>  <Num_H_Atoms_ProtBoundConf>  (530) 
nan

>  <Num_Resolved_Atoms>  (530) 
nan

>  <Num_Not_Resolved_Atoms>  (530) 
nan

$$$$
CHEMBL10284
     RDKit          3D

  0  0  0  0  0  0  0  0  0  0999 V3000
M  V30 BEGIN CTAB
M  V30 COUNTS 53 56 0 0 0
M  V30 BEGIN ATOM
M  V30 1 C -1.828391 -3.047412 -2.483116 0
M  V30 2 C -0.678908 -3.872792 -1.955171 0
M  V30 3 C -0.662415 -3.697207 -0.432239 0 CFG=2
M  V30 4 N -0.478074 -2.303503 -0.165551 0
M  V30 5 C -1.360781 -1.393700 0.467758 0
M  V30 6 O -2.313674 -2.182130 0.690325 0
M  V30 7 C -1.194840 0.011296 0.752653 0
M  V30 8 C -0.002688 0.682595 0.895911 0
M  V30 9 C 1.294683 -0.001706 0.870317 0
M  V30 10 C 0.091224 2.018724 1.116127 0
M  V30 11 C 1.338568 2.749041 1.282167 0
M  V30 12 C 2.508616 2.736511 0.553835 0
M  V30 13 C 3.573974 3.517603 0.912586 0
M  V30 14 C 3.575502 4.362705 2.000984 0
M  V30 15 C 2.423777 4.398769 2.748058 0
M  V30 16 C 1.351795 3.612694 2.387123 0
M  V30 17 N -1.046055 2.772575 1.207708 0
M  V30 18 C -2.249638 2.168459 1.076039 0
M  V30 19 C -3.327137 3.018982 1.180012 0
M  V30 20 C -4.596084 2.504090 1.054635 0
M  V30 21 C -4.732712 1.152887 0.829246 0
M  V30 22 C -3.601442 0.372659 0.738589 0
M  V30 23 C -2.316644 0.807494 0.851858 0
M  V30 24 C 0.422248 -4.535934 0.166107 0
M  V30 25 C 1.108909 -5.576483 -0.432286 0
M  V30 26 C 2.083687 -6.223753 0.309647 0
M  V30 27 C 2.367677 -5.856997 1.590717 0
M  V30 28 C 1.691250 -4.812490 2.217522 0
M  V30 29 C 0.710596 -4.162817 1.468241 0
M  V30 30 H -1.811704 -1.995750 -2.154437 0
M  V30 31 H -1.751200 -3.051836 -3.583847 0
M  V30 32 H -2.770883 -3.501180 -2.107335 0
M  V30 33 H -0.922615 -4.930792 -2.137426 0
M  V30 34 H 0.234396 -3.505433 -2.425227 0
M  V30 35 H -1.629820 -4.120437 -0.095793 0
M  V30 36 H 0.443116 -1.990792 -0.537862 0
M  V30 37 H 1.733730 -0.170575 -0.106996 0
M  V30 38 H 2.049566 0.525116 1.540299 0
M  V30 39 H 1.175764 -0.984007 1.391108 0
M  V30 40 H 2.465545 2.066439 -0.292448 0
M  V30 41 H 4.429483 3.397520 0.237387 0
M  V30 42 H 4.437461 4.941039 2.222124 0
M  V30 43 H 2.399196 5.051135 3.603726 0
M  V30 44 H 0.484216 3.718702 3.051488 0
M  V30 45 H -3.219856 4.080282 1.356934 0
M  V30 46 H -5.437768 3.173138 1.136727 0
M  V30 47 H -5.737592 0.798473 0.738505 0
M  V30 48 H -3.835273 -0.645256 0.558476 0
M  V30 49 H 0.804787 -5.782254 -1.445599 0
M  V30 50 H 2.593585 -7.035358 -0.209329 0
M  V30 51 H 3.140948 -6.381685 2.157748 0
M  V30 52 H 1.933549 -4.534249 3.244025 0
M  V30 53 H 0.224414 -3.356382 2.025556 0
M  V30 END ATOM
M  V30 BEGIN BOND
M  V30 1 1 1 2
M  V30 2 1 2 3
M  V30 3 1 3 4
M  V30 4 1 4 5
M  V30 5 2 5 6
M  V30 6 1 5 7
M  V30 7 2 7 8
M  V30 8 1 8 9
M  V30 9 1 8 10
M  V30 10 1 10 11
M  V30 11 2 11 12
M  V30 12 1 12 13
M  V30 13 2 13 14
M  V30 14 1 14 15
M  V30 15 2 15 16
M  V30 16 2 10 17
M  V30 17 1 17 18
M  V30 18 2 18 19
M  V30 19 1 19 20
M  V30 20 2 20 21
M  V30 21 1 21 22
M  V30 22 2 22 23
M  V30 23 1 3 24
M  V30 24 2 24 25
M  V30 25 1 25 26
M  V30 26 2 26 27
M  V30 27 1 27 28
M  V30 28 2 28 29
M  V30 29 1 23 7
M  V30 30 1 29 24
M  V30 31 1 16 11
M  V30 32 1 23 18
M  V30 33 1 1 30
M  V30 34 1 1 31
M  V30 35 1 1 32
M  V30 36 1 2 33
M  V30 37 1 2 34
M  V30 38 1 3 35 CFG=1
M  V30 39 1 4 36
M  V30 40 1 9 37
M  V30 41 1 9 38
M  V30 42 1 9 39
M  V30 43 1 12 40
M  V30 44 1 13 41
M  V30 45 1 14 42
M  V30 46 1 15 43
M  V30 47 1 16 44
M  V30 48 1 19 45
M  V30 49 1 20 46
M  V30 50 1 21 47
M  V30 51 1 22 48
M  V30 52 1 25 49
M  V30 53 1 26 50
M  V30 54 1 27 51
M  V30 55 1 28 52
M  V30 56 1 29 53
M  V30 END BOND
M  V30 END CTAB
M  END
>  <Dataset>  (531) 
ChEMBL_Kinases

>  <Ligand_Instance>  (531) 
nan

>  <PDB_ID>  (531) 
nan

>  <Standardized_SMILES>  (531) 
CC[C@H](NC(=O)c1c(C)c(-c2ccccc2)nc2ccccc12)c1ccccc1

>  <Name>  (531) 
SB-222200

>  <Pocket>  (531) 
nan

>  <ATP_Site>  (531) 
nan

>  <Peripheral>  (531) 
nan

>  <Num_H_Atoms_ProtBoundConf>  (531) 
nan

>  <Num_Resolved_Atoms>  (531) 
nan

>  <Num_Not_Resolved_Atoms>  (531) 
nan

$$$$
CHEMBL102936
     RDKit          3D

  0  0  0  0  0  0  0  0  0  0999 V3000
M  V30 BEGIN CTAB
M  V30 COUNTS 44 47 0 0 0
M  V30 BEGIN ATOM
M  V30 1 C -1.325193 -6.845684 -0.830395 0
M  V30 2 S -0.841994 -6.497535 -2.494280 0
M  V30 3 O 0.642312 -6.659318 -2.623127 0
M  V30 4 O -1.457379 -7.543061 -3.381728 0
M  V30 5 N -1.360496 -4.952226 -3.016677 0
M  V30 6 C -0.905947 -3.785703 -2.361121 0
M  V30 7 C 0.442057 -3.630262 -2.031324 0
M  V30 8 C 0.817264 -2.466296 -1.392001 0
M  V30 9 C -0.039330 -1.437376 -1.050636 0
M  V30 10 C 0.418641 -0.228964 -0.374051 0
M  V30 11 C -0.437429 0.446035 0.502402 0
M  V30 12 C -0.048842 1.599137 1.169748 0
M  V30 13 C 1.211449 2.112952 0.979708 0
M  V30 14 C 1.863457 3.215989 1.492517 0
M  V30 15 N 1.239254 4.105284 2.421903 0
M  V30 16 C 1.479261 3.670061 3.752315 0
M  V30 17 O 2.158433 2.636269 3.941179 0
M  V30 18 C 0.972711 4.366522 4.960632 0
M  V30 19 C 1.674684 4.238811 6.257665 0
M  V30 20 C 0.422711 3.400680 6.022267 0
M  V30 21 N 3.110241 3.219346 0.935877 0
M  V30 22 N 3.211387 2.165853 0.121590 0
M  V30 23 C 2.056856 1.446553 0.114273 0
M  V30 24 C 1.690051 0.296263 -0.560801 0
M  V30 25 C -1.384776 -1.607817 -1.387318 0
M  V30 26 C -1.766431 -2.761331 -2.022742 0
M  V30 27 H -0.733339 -7.698851 -0.469230 0
M  V30 28 H -1.191572 -6.016381 -0.130375 0
M  V30 29 H -2.384564 -7.154228 -0.792316 0
M  V30 30 H -2.013641 -4.813054 -3.816354 0
M  V30 31 H 1.171614 -4.396647 -2.268253 0
M  V30 32 H 1.851997 -2.297648 -1.114637 0
M  V30 33 H -1.419376 0.021332 0.632538 0
M  V30 34 H -0.748704 2.097235 1.846907 0
M  V30 35 H 0.670654 4.969946 2.279679 0
M  V30 36 H 0.368573 5.284331 4.810366 0
M  V30 37 H 1.592589 5.077203 6.979529 0
M  V30 38 H 2.663472 3.720539 6.322086 0
M  V30 39 H -0.455029 3.709407 6.620308 0
M  V30 40 H 0.649037 2.318814 5.911800 0
M  V30 41 H 4.043376 1.915584 -0.434205 0
M  V30 42 H 2.380160 -0.187245 -1.222991 0
M  V30 43 H -2.071162 -0.815608 -1.129584 0
M  V30 44 H -2.819153 -2.909731 -2.293556 0
M  V30 END ATOM
M  V30 BEGIN BOND
M  V30 1 1 1 2
M  V30 2 2 2 3
M  V30 3 2 2 4
M  V30 4 1 2 5
M  V30 5 1 5 6
M  V30 6 2 6 7
M  V30 7 1 7 8
M  V30 8 2 8 9
M  V30 9 1 9 10
M  V30 10 2 10 11
M  V30 11 1 11 12
M  V30 12 2 12 13
M  V30 13 1 13 14
M  V30 14 1 14 15
M  V30 15 1 15 16
M  V30 16 2 16 17
M  V30 17 1 16 18
M  V30 18 1 18 19
M  V30 19 1 19 20
M  V30 20 2 14 21
M  V30 21 1 21 22
M  V30 22 1 22 23
M  V30 23 2 23 24
M  V30 24 1 9 25
M  V30 25 2 25 26
M  V30 26 1 26 6
M  V30 27 1 24 10
M  V30 28 1 23 13
M  V30 29 1 20 18
M  V30 30 1 1 27
M  V30 31 1 1 28
M  V30 32 1 1 29
M  V30 33 1 5 30
M  V30 34 1 7 31
M  V30 35 1 8 32
M  V30 36 1 11 33
M  V30 37 1 12 34
M  V30 38 1 15 35
M  V30 39 1 18 36
M  V30 40 1 19 37
M  V30 41 1 19 38
M  V30 42 1 20 39
M  V30 43 1 20 40
M  V30 44 1 22 41
M  V30 45 1 24 42
M  V30 46 1 25 43
M  V30 47 1 26 44
M  V30 END BOND
M  V30 END CTAB
M  END
>  <Dataset>  (532) 
ChEMBL_Kinases

>  <Ligand_Instance>  (532) 
nan

>  <PDB_ID>  (532) 
nan

>  <Standardized_SMILES>  (532) 
CS(=O)(=O)Nc1ccc(-c2ccc3c(NC(=O)C4CC4)n[nH]c3c2)cc1

>  <Name>  (532) 
nan

>  <Pocket>  (532) 
nan

>  <ATP_Site>  (532) 
nan

>  <Peripheral>  (532) 
nan

>  <Num_H_Atoms_ProtBoundConf>  (532) 
nan

>  <Num_Resolved_Atoms>  (532) 
nan

>  <Num_Not_Resolved_Atoms>  (532) 
nan

$$$$
CHEMBL102953
     RDKit          3D

  0  0  0  0  0  0  0  0  0  0999 V3000
M  V30 BEGIN CTAB
M  V30 COUNTS 17 17 0 0 0
M  V30 BEGIN ATOM
M  V30 1 O 1.633159 -2.104725 2.205513 0
M  V30 2 C 0.881436 -1.350971 1.479766 0
M  V30 3 C -0.268923 -2.047919 0.856382 0
M  V30 4 Br 0.161843 -2.112699 -1.054984 0
M  V30 5 C 1.225389 0.040980 1.345980 0
M  V30 6 C 2.376461 0.499303 1.933815 0
M  V30 7 C 2.637184 1.847654 1.755150 0
M  V30 8 C 1.793257 2.634176 1.039671 0
M  V30 9 C 0.608671 2.173573 0.434767 0
M  V30 10 C 0.350331 0.825045 0.614873 0
M  V30 11 H -0.433586 -3.046219 1.272679 0
M  V30 12 H -1.222752 -1.469350 0.940627 0
M  V30 13 H 2.996227 -0.171818 2.477619 0
M  V30 14 H 3.529389 2.270614 2.185899 0
M  V30 15 H 2.010812 3.670646 0.926334 0
M  V30 16 H -0.009261 2.844601 -0.117678 0
M  V30 17 H -0.552688 0.404165 0.180612 0
M  V30 END ATOM
M  V30 BEGIN BOND
M  V30 1 2 1 2
M  V30 2 1 2 3
M  V30 3 1 3 4
M  V30 4 1 2 5
M  V30 5 2 5 6
M  V30 6 1 6 7
M  V30 7 2 7 8
M  V30 8 1 8 9
M  V30 9 2 9 10
M  V30 10 1 10 5
M  V30 11 1 3 11
M  V30 12 1 3 12
M  V30 13 1 6 13
M  V30 14 1 7 14
M  V30 15 1 8 15
M  V30 16 1 9 16
M  V30 17 1 10 17
M  V30 END BOND
M  V30 END CTAB
M  END
>  <Dataset>  (533) 
ChEMBL_Kinases

>  <Ligand_Instance>  (533) 
nan

>  <PDB_ID>  (533) 
nan

>  <Standardized_SMILES>  (533) 
O=C(CBr)c1ccccc1

>  <Name>  (533) 
nan

>  <Pocket>  (533) 
nan

>  <ATP_Site>  (533) 
nan

>  <Peripheral>  (533) 
nan

>  <Num_H_Atoms_ProtBoundConf>  (533) 
nan

>  <Num_Resolved_Atoms>  (533) 
nan

>  <Num_Not_Resolved_Atoms>  (533) 
nan

$$$$
CHEMBL1030
     RDKit          3D

  0  0  0  0  0  0  0  0  0  0999 V3000
M  V30 BEGIN CTAB
M  V30 COUNTS 31 32 0 0 0
M  V30 BEGIN ATOM
M  V30 1 O -0.419878 -1.973041 2.064319 0
M  V30 2 C 0.635300 -1.478450 2.590739 0
M  V30 3 O -0.077475 -1.031784 3.682587 0
M  V30 4 C 1.965513 -1.547891 1.969477 0
M  V30 5 C 1.843287 -2.240844 0.685002 0
M  V30 6 C 2.225539 -3.535361 0.417979 0
M  V30 7 C 2.038967 -4.024609 -0.847374 0
M  V30 8 C 1.479699 -3.263202 -1.867686 0
M  V30 9 C 1.100131 -1.951558 -1.571409 0
M  V30 10 C 1.284153 -1.434434 -0.278065 0
M  V30 11 N 0.787097 -0.105457 -0.316077 0
M  V30 12 C -0.185669 0.716935 0.299147 0
M  V30 13 C -0.072407 1.714208 1.235553 0
M  V30 14 Cl 1.533288 2.097414 1.736214 0
M  V30 15 C -1.150085 2.395585 1.748222 0
M  V30 16 C -2.409596 2.061197 1.298799 0
M  V30 17 O -3.472243 2.790415 1.857872 0
M  V30 18 C -2.577751 1.067823 0.358395 0
M  V30 19 C -1.468972 0.383145 -0.153399 0
M  V30 20 Cl -1.980452 -0.822647 -1.327895 0
M  V30 21 H -0.518155 -0.106163 3.677963 0
M  V30 22 H 2.556388 -0.643738 1.958652 0
M  V30 23 H 2.553274 -2.261605 2.632195 0
M  V30 24 H 2.649984 -4.051637 1.266705 0
M  V30 25 H 2.356384 -5.037630 -0.988776 0
M  V30 26 H 1.387537 -3.769274 -2.818204 0
M  V30 27 H 0.690145 -1.505069 -2.471784 0
M  V30 28 H 1.150453 0.624001 -0.947401 0
M  V30 29 H -0.972181 3.154230 2.472032 0
M  V30 30 H -4.159741 2.333713 2.447390 0
M  V30 31 H -3.617900 0.921416 0.104293 0
M  V30 END ATOM
M  V30 BEGIN BOND
M  V30 1 2 1 2
M  V30 2 1 2 3
M  V30 3 1 2 4
M  V30 4 1 4 5
M  V30 5 2 5 6
M  V30 6 1 6 7
M  V30 7 2 7 8
M  V30 8 1 8 9
M  V30 9 2 9 10
M  V30 10 1 10 11
M  V30 11 1 11 12
M  V30 12 2 12 13
M  V30 13 1 13 14
M  V30 14 1 13 15
M  V30 15 2 15 16
M  V30 16 1 16 17
M  V30 17 1 16 18
M  V30 18 2 18 19
M  V30 19 1 19 20
M  V30 20 1 10 5
M  V30 21 1 19 12
M  V30 22 1 3 21
M  V30 23 1 4 22
M  V30 24 1 4 23
M  V30 25 1 6 24
M  V30 26 1 7 25
M  V30 27 1 8 26
M  V30 28 1 9 27
M  V30 29 1 11 28
M  V30 30 1 15 29
M  V30 31 1 17 30
M  V30 32 1 18 31
M  V30 END BOND
M  V30 END CTAB
M  END
>  <Dataset>  (534) 
ChEMBL_Kinases

>  <Ligand_Instance>  (534) 
nan

>  <PDB_ID>  (534) 
nan

>  <Standardized_SMILES>  (534) 
O=C(O)Cc1ccccc1Nc1c(Cl)cc(O)cc1Cl

>  <Name>  (534) 
4'-HYDROXY-DICLOFENAC

>  <Pocket>  (534) 
nan

>  <ATP_Site>  (534) 
nan

>  <Peripheral>  (534) 
nan

>  <Num_H_Atoms_ProtBoundConf>  (534) 
nan

>  <Num_Resolved_Atoms>  (534) 
nan

>  <Num_Not_Resolved_Atoms>  (534) 
nan

$$$$
CHEMBL103080
     RDKit          3D

  0  0  0  0  0  0  0  0  0  0999 V3000
M  V30 BEGIN CTAB
M  V30 COUNTS 44 47 0 0 0
M  V30 BEGIN ATOM
M  V30 1 C 1.381831 -5.058608 -1.968059 0
M  V30 2 S 0.487807 -4.940469 -3.476052 0
M  V30 3 O 0.099218 -6.357178 -3.862441 0
M  V30 4 O 1.358342 -4.404357 -4.593037 0
M  V30 5 N -0.974428 -4.058259 -3.358836 0
M  V30 6 C -1.164729 -2.694501 -3.003259 0
M  V30 7 C -2.004707 -1.827968 -3.677324 0
M  V30 8 C -2.187852 -0.505896 -3.328032 0
M  V30 9 C -1.489569 0.006202 -2.227864 0
M  V30 10 C -0.649649 -0.855115 -1.551824 0
M  V30 11 C 0.076905 -0.292877 -0.391183 0
M  V30 12 C -0.607276 0.705326 0.306343 0
M  V30 13 C -0.066519 1.335877 1.416126 0
M  V30 14 C 1.194409 0.902555 1.775594 0
M  V30 15 C 2.012529 1.307588 2.811463 0
M  V30 16 N 1.791089 2.309451 3.830899 0
M  V30 17 C 1.171119 1.655173 4.928855 0
M  V30 18 O 0.754300 0.518292 5.312215 0
M  V30 19 C 0.735179 2.221780 6.225987 0
M  V30 20 C -0.174965 3.463538 6.069687 0
M  V30 21 C 1.164608 3.531426 6.720951 0
M  V30 22 N 3.149123 0.590061 2.753478 0
M  V30 23 N 3.097135 -0.256916 1.727198 0
M  V30 24 C 1.908244 -0.080833 1.115847 0
M  V30 25 C 1.337442 -0.689480 0.011451 0
M  V30 26 C -0.482964 -2.184642 -1.925172 0
M  V30 27 H 2.031039 -5.977954 -2.052554 0
M  V30 28 H 2.053770 -4.196682 -1.779729 0
M  V30 29 H 0.686878 -5.241683 -1.143481 0
M  V30 30 H -1.928766 -4.467262 -3.550405 0
M  V30 31 H -2.536820 -2.258357 -4.534723 0
M  V30 32 H -2.873073 0.096081 -3.924235 0
M  V30 33 H -1.668923 1.039929 -2.000288 0
M  V30 34 H -1.610323 1.062267 0.035648 0
M  V30 35 H -0.584306 2.108300 1.965604 0
M  V30 36 H 1.946579 3.314849 3.982996 0
M  V30 37 H 0.280973 1.460963 6.893137 0
M  V30 38 H -0.225920 3.949200 5.080348 0
M  V30 39 H -1.107528 3.505098 6.658704 0
M  V30 40 H 1.986375 4.070119 6.225879 0
M  V30 41 H 1.177498 3.679153 7.825057 0
M  V30 42 H 3.825819 -0.950438 1.416686 0
M  V30 43 H 1.821430 -1.461697 -0.559234 0
M  V30 44 H 0.206562 -2.742878 -1.304836 0
M  V30 END ATOM
M  V30 BEGIN BOND
M  V30 1 1 1 2
M  V30 2 2 2 3
M  V30 3 2 2 4
M  V30 4 1 2 5
M  V30 5 1 5 6
M  V30 6 2 6 7
M  V30 7 1 7 8
M  V30 8 2 8 9
M  V30 9 1 9 10
M  V30 10 1 10 11
M  V30 11 2 11 12
M  V30 12 1 12 13
M  V30 13 2 13 14
M  V30 14 1 14 15
M  V30 15 1 15 16
M  V30 16 1 16 17
M  V30 17 2 17 18
M  V30 18 1 17 19
M  V30 19 1 19 20
M  V30 20 1 20 21
M  V30 21 2 15 22
M  V30 22 1 22 23
M  V30 23 1 23 24
M  V30 24 2 24 25
M  V30 25 2 10 26
M  V30 26 1 26 6
M  V30 27 1 25 11
M  V30 28 1 24 14
M  V30 29 1 21 19
M  V30 30 1 1 27
M  V30 31 1 1 28
M  V30 32 1 1 29
M  V30 33 1 5 30
M  V30 34 1 7 31
M  V30 35 1 8 32
M  V30 36 1 9 33
M  V30 37 1 12 34
M  V30 38 1 13 35
M  V30 39 1 16 36
M  V30 40 1 19 37
M  V30 41 1 20 38
M  V30 42 1 20 39
M  V30 43 1 21 40
M  V30 44 1 21 41
M  V30 45 1 23 42
M  V30 46 1 25 43
M  V30 47 1 26 44
M  V30 END BOND
M  V30 END CTAB
M  END
>  <Dataset>  (535) 
ChEMBL_Kinases

>  <Ligand_Instance>  (535) 
nan

>  <PDB_ID>  (535) 
nan

>  <Standardized_SMILES>  (535) 
CS(=O)(=O)Nc1cccc(-c2ccc3c(NC(=O)C4CC4)n[nH]c3c2)c1

>  <Name>  (535) 
nan

>  <Pocket>  (535) 
nan

>  <ATP_Site>  (535) 
nan

>  <Peripheral>  (535) 
nan

>  <Num_H_Atoms_ProtBoundConf>  (535) 
nan

>  <Num_Resolved_Atoms>  (535) 
nan

>  <Num_Not_Resolved_Atoms>  (535) 
nan

$$$$
CHEMBL101801
     RDKit          3D

  0  0  0  0  0  0  0  0  0  0999 V3000
M  V30 BEGIN CTAB
M  V30 COUNTS 49 51 0 0 0
M  V30 BEGIN ATOM
M  V30 1 N 1.808446 -6.135201 1.599433 0
M  V30 2 C 0.972329 -6.132182 0.454995 0
M  V30 3 O 0.523658 -7.245008 0.120100 0
M  V30 4 C 0.691086 -4.896254 -0.238937 0
M  V30 5 C 1.225797 -3.721486 0.189641 0
M  V30 6 C 0.901396 -2.594931 -0.532641 0
M  V30 7 C 0.088640 -2.554056 -1.642282 0
M  V30 8 N -0.257419 -1.392008 -2.370216 0
M  V30 9 C -0.098106 -0.022232 -2.066277 0
M  V30 10 N -0.388403 0.950909 -2.950955 0
M  V30 11 C -0.243274 2.251797 -2.632777 0
M  V30 12 N -0.601559 3.103576 -3.701247 0
M  V30 13 C 0.222111 2.544184 -1.341694 0
M  V30 14 N 0.280452 3.992531 -1.277235 0
M  V30 15 O -0.346534 4.642749 -0.441378 0
M  V30 16 C 0.533978 1.555808 -0.393771 0
M  V30 17 O 0.932027 2.283953 0.672558 0
M  V30 18 C 1.344133 1.832429 1.906059 0
M  V30 19 C 0.371000 1.114412 2.735925 0
M  V30 20 C -0.869556 1.954874 3.078977 0
M  V30 21 C -1.338150 1.386424 4.400685 0
M  V30 22 C -1.770255 -0.016542 4.204652 0
M  V30 23 C -0.819481 -0.907922 3.455190 0
M  V30 24 C -0.163773 -0.188733 2.286535 0
M  V30 25 N 0.339568 0.332955 -0.857507 0
M  V30 26 C -0.418630 -3.776533 -2.022313 0
M  V30 27 C -0.130256 -4.934258 -1.341523 0
M  V30 28 H 2.607626 -6.690665 1.989618 0
M  V30 29 H 2.075036 -5.714482 2.501858 0
M  V30 30 H 1.878879 -3.670669 1.061305 0
M  V30 31 H 1.341651 -1.673483 -0.188135 0
M  V30 32 H -0.715316 -1.554673 -3.306464 0
M  V30 33 H 0.142417 3.580942 -4.274913 0
M  V30 34 H -1.529687 3.390045 -4.082074 0
M  V30 35 H 1.749400 2.754978 2.449465 0
M  V30 36 H 2.307996 1.216865 1.819790 0
M  V30 37 H 0.898355 0.903284 3.728714 0
M  V30 38 H -0.626288 3.025585 3.116878 0
M  V30 39 H -1.652748 1.728761 2.318510 0
M  V30 40 H -2.159750 1.956483 4.839223 0
M  V30 41 H -0.437203 1.365814 5.078212 0
M  V30 42 H -2.779512 -0.006567 3.736294 0
M  V30 43 H -1.922215 -0.489190 5.218397 0
M  V30 44 H -0.051538 -1.380303 4.095762 0
M  V30 45 H -1.420023 -1.728280 3.014626 0
M  V30 46 H -0.944437 -0.017308 1.490520 0
M  V30 47 H 0.647084 -0.812696 1.886668 0
M  V30 48 H -1.068298 -3.838626 -2.886834 0
M  V30 49 H -0.537755 -5.882521 -1.655816 0
M  V30 END ATOM
M  V30 BEGIN BOND
M  V30 1 1 1 2
M  V30 2 2 2 3
M  V30 3 1 2 4
M  V30 4 2 4 5
M  V30 5 1 5 6
M  V30 6 2 6 7
M  V30 7 1 7 8
M  V30 8 1 8 9
M  V30 9 2 9 10
M  V30 10 1 10 11
M  V30 11 1 11 12
M  V30 12 2 11 13
M  V30 13 1 13 14
M  V30 14 2 14 15
M  V30 15 1 13 16
M  V30 16 1 16 17
M  V30 17 1 17 18
M  V30 18 1 18 19
M  V30 19 1 19 20
M  V30 20 1 20 21
M  V30 21 1 21 22
M  V30 22 1 22 23
M  V30 23 1 23 24
M  V30 24 2 16 25
M  V30 25 1 7 26
M  V30 26 2 26 27
M  V30 27 1 27 4
M  V30 28 1 25 9
M  V30 29 1 24 19
M  V30 30 1 1 28
M  V30 31 1 1 29
M  V30 32 1 5 30
M  V30 33 1 6 31
M  V30 34 1 8 32
M  V30 35 1 12 33
M  V30 36 1 12 34
M  V30 37 1 18 35
M  V30 38 1 18 36
M  V30 39 1 19 37
M  V30 40 1 20 38
M  V30 41 1 20 39
M  V30 42 1 21 40
M  V30 43 1 21 41
M  V30 44 1 22 42
M  V30 45 1 22 43
M  V30 46 1 23 44
M  V30 47 1 23 45
M  V30 48 1 24 46
M  V30 49 1 24 47
M  V30 50 1 26 48
M  V30 51 1 27 49
M  V30 END BOND
M  V30 END CTAB
M  END
>  <Dataset>  (536) 
ChEMBL_Kinases

>  <Ligand_Instance>  (536) 
nan

>  <PDB_ID>  (536) 
nan

>  <Standardized_SMILES>  (536) 
NC(=O)c1ccc(Nc2nc(N)c(N=O)c(OCC3CCCCC3)n2)cc1

>  <Name>  (536) 
nan

>  <Pocket>  (536) 
nan

>  <ATP_Site>  (536) 
nan

>  <Peripheral>  (536) 
nan

>  <Num_H_Atoms_ProtBoundConf>  (536) 
nan

>  <Num_Resolved_Atoms>  (536) 
nan

>  <Num_Not_Resolved_Atoms>  (536) 
nan

$$$$
CHEMBL1081105
     RDKit          3D

  0  0  0  0  0  0  0  0  0  0999 V3000
M  V30 BEGIN CTAB
M  V30 COUNTS 50 53 0 0 0
M  V30 BEGIN ATOM
M  V30 1 N -2.101950 -0.724669 4.041256 0
M  V30 2 C -1.975853 -1.738184 2.981666 0 CFG=2
M  V30 3 C -0.925180 -2.726121 3.276796 0
M  V30 4 C 0.458627 -2.264745 3.504881 0
M  V30 5 C 1.181053 -1.572982 2.458032 0
M  V30 6 C 1.351347 -0.277851 2.040707 0
M  V30 7 C 2.186350 -0.214680 0.946087 0
M  V30 8 C 2.597307 0.985457 0.230567 0
M  V30 9 C 3.443345 0.879768 -0.852857 0
M  V30 10 C 3.824750 2.032058 -1.522747 0
M  V30 11 C 3.364237 3.280193 -1.113080 0
M  V30 12 C 3.709959 4.457888 -1.740449 0
M  V30 13 N 3.235369 5.654329 -1.304675 0
M  V30 14 C 2.413067 5.692294 -0.241854 0
M  V30 15 C 2.009310 4.568628 0.452759 0
M  V30 16 C 2.515581 3.355198 -0.021614 0
M  V30 17 C 2.130492 2.212781 0.651572 0
M  V30 18 N 2.496904 -1.495258 0.736187 0
M  V30 19 O 1.923188 -2.272679 1.599138 0
M  V30 20 C -2.131101 -1.176128 1.629631 0
M  V30 21 C -2.044663 -2.106341 0.501668 0
M  V30 22 C -3.247269 -2.764503 0.191796 0
M  V30 23 C -3.421242 -3.671880 -0.830429 0
M  V30 24 C -2.342696 -3.977740 -1.630987 0
M  V30 25 C -2.391105 -4.932687 -2.760309 0
M  V30 26 F -3.645100 -5.047837 -3.295140 0
M  V30 27 F -1.430054 -4.635170 -3.706053 0
M  V30 28 F -2.030673 -6.176160 -2.238616 0
M  V30 29 C -1.136550 -3.364002 -1.376515 0
M  V30 30 C -1.019421 -2.465300 -0.342382 0
M  V30 31 H -2.367979 -1.209854 4.914448 0
M  V30 32 H -2.915452 -0.125217 3.741977 0
M  V30 33 H -2.971919 -2.328484 3.148353 0
M  V30 34 H -1.250869 -3.268769 4.223795 0
M  V30 35 H -0.989286 -3.526452 2.495489 0
M  V30 36 H 0.429205 -1.648330 4.468378 0
M  V30 37 H 1.042396 -3.177556 3.864314 0
M  V30 38 H 0.851355 0.529855 2.568174 0
M  V30 39 H 3.821660 -0.061308 -1.202147 0
M  V30 40 H 4.492075 1.983211 -2.382532 0
M  V30 41 H 4.371828 4.425308 -2.595607 0
M  V30 42 H 2.020974 6.625243 0.126567 0
M  V30 43 H 1.356460 4.568181 1.301190 0
M  V30 44 H 1.470283 2.238147 1.505663 0
M  V30 45 H -3.152879 -0.675926 1.566767 0
M  V30 46 H -1.444240 -0.292250 1.458298 0
M  V30 47 H -4.165088 -2.585614 0.775106 0
M  V30 48 H -4.370424 -4.149173 -1.024233 0
M  V30 49 H -0.213898 -3.527246 -1.943014 0
M  V30 50 H -0.110708 -1.948879 -0.106762 0
M  V30 END ATOM
M  V30 BEGIN BOND
M  V30 1 1 1 2
M  V30 2 1 2 3
M  V30 3 1 3 4
M  V30 4 1 4 5
M  V30 5 2 5 6
M  V30 6 1 6 7
M  V30 7 1 7 8
M  V30 8 2 8 9
M  V30 9 1 9 10
M  V30 10 2 10 11
M  V30 11 1 11 12
M  V30 12 2 12 13
M  V30 13 1 13 14
M  V30 14 2 14 15
M  V30 15 1 15 16
M  V30 16 2 16 17
M  V30 17 2 7 18
M  V30 18 1 18 19
M  V30 19 1 2 20
M  V30 20 1 20 21
M  V30 21 2 21 22
M  V30 22 1 22 23
M  V30 23 2 23 24
M  V30 24 1 24 25
M  V30 25 1 25 26
M  V30 26 1 25 27
M  V30 27 1 25 28
M  V30 28 1 24 29
M  V30 29 2 29 30
M  V30 30 1 19 5
M  V30 31 1 30 21
M  V30 32 1 17 8
M  V30 33 1 16 11
M  V30 34 1 1 31
M  V30 35 1 1 32
M  V30 36 1 2 33 CFG=1
M  V30 37 1 3 34
M  V30 38 1 3 35
M  V30 39 1 4 36
M  V30 40 1 4 37
M  V30 41 1 6 38
M  V30 42 1 9 39
M  V30 43 1 10 40
M  V30 44 1 12 41
M  V30 45 1 14 42
M  V30 46 1 15 43
M  V30 47 1 17 44
M  V30 48 1 20 45
M  V30 49 1 20 46
M  V30 50 1 22 47
M  V30 51 1 23 48
M  V30 52 1 29 49
M  V30 53 1 30 50
M  V30 END BOND
M  V30 END CTAB
M  END
>  <Dataset>  (537) 
ChEMBL_Kinases

>  <Ligand_Instance>  (537) 
nan

>  <PDB_ID>  (537) 
nan

>  <Standardized_SMILES>  (537) 
N[C@H](CCc1cc(-c2ccc3cnccc3c2)no1)Cc1ccc(C(F)(F)F)cc1

>  <Name>  (537) 
nan

>  <Pocket>  (537) 
nan

>  <ATP_Site>  (537) 
nan

>  <Peripheral>  (537) 
nan

>  <Num_H_Atoms_ProtBoundConf>  (537) 
nan

>  <Num_Resolved_Atoms>  (537) 
nan

>  <Num_Not_Resolved_Atoms>  (537) 
nan

$$$$
CHEMBL1081037
     RDKit          3D

  0  0  0  0  0  0  0  0  0  0999 V3000
M  V30 BEGIN CTAB
M  V30 COUNTS 51 55 0 0 0
M  V30 BEGIN ATOM
M  V30 1 C -0.267596 0.894696 3.869477 0
M  V30 2 C 0.941838 1.244738 3.088026 0
M  V30 3 C 2.167079 1.416727 3.691566 0
M  V30 4 C 3.233209 1.751380 2.869982 0
M  V30 5 C 3.082287 1.909295 1.491830 0
M  V30 6 C 4.264493 2.257843 0.745477 0
M  V30 7 O 5.345635 2.400756 1.348703 0
M  V30 8 N 4.312293 2.459106 -0.653323 0
M  V30 9 C 5.490457 2.809416 -1.418577 0
M  V30 10 C 5.556298 2.332515 -2.864251 0
M  V30 11 C 5.282662 3.771966 -2.557001 0
M  V30 12 C 1.826030 1.720920 0.959673 0
M  V30 13 C 0.708963 1.381648 1.736725 0
M  V30 14 O -0.410777 1.253687 0.990018 0
M  V30 15 C -1.264352 0.258976 0.705352 0
M  V30 16 N -2.268207 0.741783 -0.089914 0
M  V30 17 N -3.253729 -0.050403 -0.517949 0
M  V30 18 C -3.343970 -1.357032 -0.213598 0
M  V30 19 C -4.434376 -2.249558 -0.682355 0
M  V30 20 C -2.369004 -1.914443 0.582702 0
M  V30 21 C -1.372446 -1.080226 1.006277 0
M  V30 22 C -0.464807 -1.762582 1.783176 0
M  V30 23 N -0.922169 -3.020878 1.827567 0
M  V30 24 N -2.056388 -3.110580 1.112452 0
M  V30 25 C -2.853887 -4.278113 0.910422 0
M  V30 26 C -2.869777 -4.967160 -0.309296 0
M  V30 27 C -3.647424 -6.096499 -0.488331 0
M  V30 28 C -4.440404 -6.580547 0.548088 0
M  V30 29 F -5.197166 -7.689914 0.354870 0
M  V30 30 C -4.422105 -5.896450 1.752949 0
M  V30 31 C -3.648170 -4.756345 1.960615 0
M  V30 32 F -3.685046 -4.145575 3.165225 0
M  V30 33 H -0.185044 -0.152884 4.209196 0
M  V30 34 H -0.246942 1.493698 4.827537 0
M  V30 35 H -1.211665 1.168840 3.392371 0
M  V30 36 H 2.242557 1.286178 4.756256 0
M  V30 37 H 4.185071 1.880741 3.369808 0
M  V30 38 H 3.450316 2.356138 -1.214620 0
M  V30 39 H 6.470266 2.941148 -0.885095 0
M  V30 40 H 6.510126 2.042455 -3.310095 0
M  V30 41 H 4.667658 1.761745 -3.213149 0
M  V30 42 H 4.252508 4.191771 -2.700315 0
M  V30 43 H 6.091318 4.456152 -2.862207 0
M  V30 44 H 1.814727 1.865876 -0.112521 0
M  V30 45 H -4.197588 -2.757983 -1.636284 0
M  V30 46 H -5.272737 -1.540741 -0.951624 0
M  V30 47 H -4.854595 -2.892958 0.097172 0
M  V30 48 H 0.430438 -1.413044 2.265721 0
M  V30 49 H -2.229783 -4.535987 -1.071791 0
M  V30 50 H -3.624686 -6.599206 -1.461421 0
M  V30 51 H -5.063685 -6.327791 2.519148 0
M  V30 END ATOM
M  V30 BEGIN BOND
M  V30 1 1 1 2
M  V30 2 2 2 3
M  V30 3 1 3 4
M  V30 4 2 4 5
M  V30 5 1 5 6
M  V30 6 2 6 7
M  V30 7 1 6 8
M  V30 8 1 8 9
M  V30 9 1 9 10
M  V30 10 1 10 11
M  V30 11 1 5 12
M  V30 12 2 12 13
M  V30 13 1 13 14
M  V30 14 1 14 15
M  V30 15 2 15 16
M  V30 16 1 16 17
M  V30 17 2 17 18
M  V30 18 1 18 19
M  V30 19 1 18 20
M  V30 20 2 20 21
M  V30 21 1 21 22
M  V30 22 2 22 23
M  V30 23 1 23 24
M  V30 24 1 24 25
M  V30 25 2 25 26
M  V30 26 1 26 27
M  V30 27 2 27 28
M  V30 28 1 28 29
M  V30 29 1 28 30
M  V30 30 2 30 31
M  V30 31 1 31 32
M  V30 32 1 13 2
M  V30 33 1 21 15
M  V30 34 1 31 25
M  V30 35 1 11 9
M  V30 36 1 24 20
M  V30 37 1 1 33
M  V30 38 1 1 34
M  V30 39 1 1 35
M  V30 40 1 3 36
M  V30 41 1 4 37
M  V30 42 1 8 38
M  V30 43 1 9 39
M  V30 44 1 10 40
M  V30 45 1 10 41
M  V30 46 1 11 42
M  V30 47 1 11 43
M  V30 48 1 12 44
M  V30 49 1 19 45
M  V30 50 1 19 46
M  V30 51 1 19 47
M  V30 52 1 22 48
M  V30 53 1 26 49
M  V30 54 1 27 50
M  V30 55 1 30 51
M  V30 END BOND
M  V30 END CTAB
M  END
>  <Dataset>  (538) 
ChEMBL_Kinases

>  <Ligand_Instance>  (538) 
nan

>  <PDB_ID>  (538) 
nan

>  <Standardized_SMILES>  (538) 
Cc1ccc(C(=O)NC2CC2)cc1Oc1nnc(C)c2c1cnn2-c1ccc(F)cc1F

>  <Name>  (538) 
nan

>  <Pocket>  (538) 
nan

>  <ATP_Site>  (538) 
nan

>  <Peripheral>  (538) 
nan

>  <Num_H_Atoms_ProtBoundConf>  (538) 
nan

>  <Num_Resolved_Atoms>  (538) 
nan

>  <Num_Not_Resolved_Atoms>  (538) 
nan

$$$$
CHEMBL1081029
     RDKit          3D

  0  0  0  0  0  0  0  0  0  0999 V3000
M  V30 BEGIN CTAB
M  V30 COUNTS 49 52 0 0 0
M  V30 BEGIN ATOM
M  V30 1 N -1.580438 -0.851242 1.618453 0
M  V30 2 C -1.770639 -2.240744 1.297309 0 CFG=2
M  V30 3 C -0.516942 -3.045985 1.553443 0
M  V30 4 N 0.599297 -2.598453 0.783568 0
M  V30 5 C 1.053685 -1.199726 0.981209 0
M  V30 6 N 1.825725 -0.915905 1.746214 0
M  V30 7 C 2.363730 0.240699 2.082247 0
M  V30 8 C 1.918344 1.318408 1.385740 0
M  V30 9 C 2.108026 2.781682 1.286913 0
M  V30 10 C 1.394593 3.495560 0.378378 0
M  V30 11 C 1.671379 4.868443 0.390931 0
M  V30 12 C 2.598512 5.401263 1.270709 0
M  V30 13 C 3.295654 4.602847 2.179276 0
M  V30 14 C 3.042290 3.224993 2.192737 0
M  V30 15 C 4.213604 5.450794 2.983620 0
M  V30 16 N 3.973230 6.779583 2.455108 0
M  V30 17 C 3.002937 6.802013 1.414388 0
M  V30 18 O 2.635334 7.831906 0.809929 0
M  V30 19 S 0.663754 0.515036 0.212867 0
M  V30 20 C -2.177083 -2.323684 -0.170477 0
M  V30 21 C -2.396301 -3.715922 -0.594462 0
M  V30 22 C -3.686396 -4.216322 -0.444702 0
M  V30 23 C -4.029827 -5.523089 -0.808680 0
M  V30 24 C -3.051297 -6.354377 -1.338955 0
M  V30 25 C -3.366692 -7.754828 -1.742087 0
M  V30 26 F -4.595467 -7.727768 -2.369667 0
M  V30 27 F -2.362174 -8.199032 -2.597419 0
M  V30 28 F -3.464080 -8.587737 -0.629696 0
M  V30 29 C -1.770955 -5.874717 -1.493449 0
M  V30 30 C -1.463362 -4.584580 -1.126228 0
M  V30 31 H -2.374582 -0.322216 1.146793 0
M  V30 32 H -1.571857 -0.637984 2.641181 0
M  V30 33 H -2.600258 -2.600774 1.937161 0
M  V30 34 H -0.359326 -3.082875 2.645380 0
M  V30 35 H -0.733829 -4.091752 1.249287 0
M  V30 36 H 1.193540 -3.076742 0.072733 0
M  V30 37 H 3.114480 0.563110 2.816669 0
M  V30 38 H 0.678161 3.084509 -0.301561 0
M  V30 39 H 1.143404 5.521798 -0.307335 0
M  V30 40 H 3.573005 2.616897 2.884541 0
M  V30 41 H 5.268922 5.209466 2.771830 0
M  V30 42 H 3.993172 5.374276 4.069166 0
M  V30 43 H 4.529982 7.573937 2.887342 0
M  V30 44 H -1.323698 -1.885905 -0.766353 0
M  V30 45 H -3.095070 -1.739599 -0.335420 0
M  V30 46 H -4.493909 -3.630860 -0.041729 0
M  V30 47 H -5.036864 -5.899962 -0.687076 0
M  V30 48 H -0.962884 -6.480714 -1.903700 0
M  V30 49 H -0.477926 -4.201177 -1.240531 0
M  V30 END ATOM
M  V30 BEGIN BOND
M  V30 1 1 1 2
M  V30 2 1 2 3
M  V30 3 1 3 4
M  V30 4 1 4 5
M  V30 5 2 5 6
M  V30 6 1 6 7
M  V30 7 2 7 8
M  V30 8 1 8 9
M  V30 9 2 9 10
M  V30 10 1 10 11
M  V30 11 2 11 12
M  V30 12 1 12 13
M  V30 13 2 13 14
M  V30 14 1 13 15
M  V30 15 1 15 16
M  V30 16 1 16 17
M  V30 17 2 17 18
M  V30 18 1 8 19
M  V30 19 1 2 20
M  V30 20 1 20 21
M  V30 21 2 21 22
M  V30 22 1 22 23
M  V30 23 2 23 24
M  V30 24 1 24 25
M  V30 25 1 25 26
M  V30 26 1 25 27
M  V30 27 1 25 28
M  V30 28 1 24 29
M  V30 29 2 29 30
M  V30 30 1 19 5
M  V30 31 1 30 21
M  V30 32 1 14 9
M  V30 33 1 17 12
M  V30 34 1 1 31
M  V30 35 1 1 32
M  V30 36 1 2 33 CFG=1
M  V30 37 1 3 34
M  V30 38 1 3 35
M  V30 39 1 4 36
M  V30 40 1 7 37
M  V30 41 1 10 38
M  V30 42 1 11 39
M  V30 43 1 14 40
M  V30 44 1 15 41
M  V30 45 1 15 42
M  V30 46 1 16 43
M  V30 47 1 20 44
M  V30 48 1 20 45
M  V30 49 1 22 46
M  V30 50 1 23 47
M  V30 51 1 29 48
M  V30 52 1 30 49
M  V30 END BOND
M  V30 END CTAB
M  END
>  <Dataset>  (539) 
ChEMBL_Kinases

>  <Ligand_Instance>  (539) 
nan

>  <PDB_ID>  (539) 
nan

>  <Standardized_SMILES>  (539) 
N[C@H](CNc1ncc(-c2ccc3c(c2)CNC3=O)s1)Cc1ccc(C(F)(F)F)cc1

>  <Name>  (539) 
nan

>  <Pocket>  (539) 
nan

>  <ATP_Site>  (539) 
nan

>  <Peripheral>  (539) 
nan

>  <Num_H_Atoms_ProtBoundConf>  (539) 
nan

>  <Num_Resolved_Atoms>  (539) 
nan

>  <Num_Not_Resolved_Atoms>  (539) 
nan

$$$$
CHEMBL1080933
     RDKit          3D

  0  0  0  0  0  0  0  0  0  0999 V3000
M  V30 BEGIN CTAB
M  V30 COUNTS 44 47 0 0 0
M  V30 BEGIN ATOM
M  V30 1 C 0.336186 -6.421919 2.140484 0
M  V30 2 O -0.394345 -5.294791 1.765003 0
M  V30 3 C 0.010873 -3.986618 1.994770 0
M  V30 4 C 1.181327 -3.611682 2.620240 0
M  V30 5 C 1.457206 -2.269232 2.781365 0
M  V30 6 C 0.591190 -1.291674 2.332730 0
M  V30 7 C -0.606383 -1.643405 1.693626 0
M  V30 8 C -1.559933 -0.637574 1.193611 0
M  V30 9 C -1.377864 0.549830 0.588938 0
M  V30 10 C -0.159076 1.226622 0.228830 0
M  V30 11 C 0.271675 2.541513 0.460644 0
M  V30 12 C -0.481568 3.547213 1.192339 0
M  V30 13 N 1.502438 2.706248 -0.111761 0
M  V30 14 C 2.349105 3.887991 -0.132733 0
M  V30 15 C 1.922747 1.577028 -0.715442 0
M  V30 16 C 3.037090 1.211139 -1.420482 0
M  V30 17 C 3.211938 -0.034424 -1.949561 0
M  V30 18 C 2.209373 -0.955072 -1.755137 0
M  V30 19 C 1.099229 -0.599829 -1.054955 0
M  V30 20 C 0.891560 0.659982 -0.503678 0
M  V30 21 C -2.707627 1.085497 0.321175 0
M  V30 22 O -3.118987 2.145665 -0.218386 0
M  V30 23 N -3.711844 0.186786 0.782697 0
M  V30 24 C -3.003151 -0.917619 1.341980 0
M  V30 25 O -3.560425 -1.941300 1.865665 0
M  V30 26 C -0.841753 -2.995143 1.553488 0
M  V30 27 H 1.232947 -6.544443 1.482242 0
M  V30 28 H 0.670925 -6.414892 3.193245 0
M  V30 29 H -0.277073 -7.321620 1.996512 0
M  V30 30 H 1.831986 -4.426709 2.956951 0
M  V30 31 H 2.378733 -1.985592 3.274803 0
M  V30 32 H 0.821775 -0.253927 2.467474 0
M  V30 33 H -1.349369 3.997098 0.665987 0
M  V30 34 H -0.703575 3.286407 2.268005 0
M  V30 35 H 0.188705 4.449197 1.337116 0
M  V30 36 H 2.600044 4.224093 -1.149083 0
M  V30 37 H 3.325265 3.571358 0.343165 0
M  V30 38 H 1.992538 4.721716 0.462699 0
M  V30 39 H 3.832580 1.940661 -1.575451 0
M  V30 40 H 4.105743 -0.307442 -2.511722 0
M  V30 41 H 2.365046 -1.937613 -2.183790 0
M  V30 42 H 0.370364 -1.392461 -0.968721 0
M  V30 43 H -4.762711 0.227676 0.766652 0
M  V30 44 H -1.775019 -3.229556 1.056052 0
M  V30 END ATOM
M  V30 BEGIN BOND
M  V30 1 1 1 2
M  V30 2 1 2 3
M  V30 3 2 3 4
M  V30 4 1 4 5
M  V30 5 2 5 6
M  V30 6 1 6 7
M  V30 7 1 7 8
M  V30 8 2 8 9
M  V30 9 1 9 10
M  V30 10 2 10 11
M  V30 11 1 11 12
M  V30 12 1 11 13
M  V30 13 1 13 14
M  V30 14 1 13 15
M  V30 15 2 15 16
M  V30 16 1 16 17
M  V30 17 2 17 18
M  V30 18 1 18 19
M  V30 19 2 19 20
M  V30 20 1 9 21
M  V30 21 2 21 22
M  V30 22 1 21 23
M  V30 23 1 23 24
M  V30 24 2 24 25
M  V30 25 2 7 26
M  V30 26 1 26 3
M  V30 27 1 24 8
M  V30 28 1 20 10
M  V30 29 1 20 15
M  V30 30 1 1 27
M  V30 31 1 1 28
M  V30 32 1 1 29
M  V30 33 1 4 30
M  V30 34 1 5 31
M  V30 35 1 6 32
M  V30 36 1 12 33
M  V30 37 1 12 34
M  V30 38 1 12 35
M  V30 39 1 14 36
M  V30 40 1 14 37
M  V30 41 1 14 38
M  V30 42 1 16 39
M  V30 43 1 17 40
M  V30 44 1 18 41
M  V30 45 1 19 42
M  V30 46 1 23 43
M  V30 47 1 26 44
M  V30 END BOND
M  V30 END CTAB
M  END
>  <Dataset>  (540) 
ChEMBL_Kinases

>  <Ligand_Instance>  (540) 
nan

>  <PDB_ID>  (540) 
nan

>  <Standardized_SMILES>  (540) 
COc1cccc(C2=C(c3c(C)n(C)c4ccccc34)C(=O)NC2=O)c1

>  <Name>  (540) 
nan

>  <Pocket>  (540) 
nan

>  <ATP_Site>  (540) 
nan

>  <Peripheral>  (540) 
nan

>  <Num_H_Atoms_ProtBoundConf>  (540) 
nan

>  <Num_Resolved_Atoms>  (540) 
nan

>  <Num_Not_Resolved_Atoms>  (540) 
nan

$$$$
CHEMBL1080932
     RDKit          3D

  0  0  0  0  0  0  0  0  0  0999 V3000
M  V30 BEGIN CTAB
M  V30 COUNTS 40 43 0 0 0
M  V30 BEGIN ATOM
M  V30 1 C -1.933065 -3.837987 0.808229 0
M  V30 2 N -1.328423 -2.629222 1.368984 0
M  V30 3 C -0.155105 -2.092834 1.002236 0
M  V30 4 C 0.152771 -0.944934 1.721976 0
M  V30 5 C 1.298844 -0.061914 1.626417 0
M  V30 6 C 1.914521 0.527232 0.610597 0
M  V30 7 N 1.709531 0.542110 -0.802199 0
M  V30 8 C 1.626729 -0.649587 -1.585566 0
M  V30 9 C 2.036084 -0.474969 -3.006041 0
M  V30 10 O 2.480854 0.807377 -3.326177 0
M  V30 11 C 1.395696 1.638040 -2.953090 0
M  V30 12 C 1.582581 1.847561 -1.469334 0
M  V30 13 C 3.060236 1.313371 1.118056 0
M  V30 14 O 3.911059 2.025654 0.503797 0
M  V30 15 N 3.103553 1.158512 2.553279 0
M  V30 16 C 1.997650 0.296750 2.856461 0
M  V30 17 O 1.840814 0.019392 4.075567 0
M  V30 18 C -0.931891 -0.821233 2.562251 0
M  V30 19 C -1.294847 0.083265 3.532775 0
M  V30 20 C -2.483736 -0.052665 4.227406 0
M  V30 21 C -3.379788 -1.082902 4.007117 0
M  V30 22 C -3.013823 -1.999702 3.023132 0
M  V30 23 C -1.825744 -1.851250 2.338663 0
M  V30 24 H -2.843511 -3.576813 0.235589 0
M  V30 25 H -2.173335 -4.514917 1.674472 0
M  V30 26 H -1.208159 -4.350905 0.127215 0
M  V30 27 H 0.454101 -2.540037 0.229130 0
M  V30 28 H 0.547911 -0.971263 -1.576360 0
M  V30 29 H 2.282974 -1.447137 -1.158728 0
M  V30 30 H 1.154344 -0.636412 -3.694818 0
M  V30 31 H 2.771493 -1.244780 -3.343850 0
M  V30 32 H 1.436488 2.601630 -3.466088 0
M  V30 33 H 0.435671 1.115994 -3.098742 0
M  V30 34 H 0.704122 2.341631 -1.007831 0
M  V30 35 H 2.488046 2.476833 -1.274085 0
M  V30 36 H 3.825826 1.615286 3.172689 0
M  V30 37 H -0.673400 0.925573 3.775233 0
M  V30 38 H -2.784689 0.650005 4.993933 0
M  V30 39 H -4.300407 -1.223001 4.518298 0
M  V30 40 H -3.678498 -2.830201 2.805234 0
M  V30 END ATOM
M  V30 BEGIN BOND
M  V30 1 1 1 2
M  V30 2 1 2 3
M  V30 3 2 3 4
M  V30 4 1 4 5
M  V30 5 2 5 6
M  V30 6 1 6 7
M  V30 7 1 7 8
M  V30 8 1 8 9
M  V30 9 1 9 10
M  V30 10 1 10 11
M  V30 11 1 11 12
M  V30 12 1 6 13
M  V30 13 2 13 14
M  V30 14 1 13 15
M  V30 15 1 15 16
M  V30 16 2 16 17
M  V30 17 1 4 18
M  V30 18 2 18 19
M  V30 19 1 19 20
M  V30 20 2 20 21
M  V30 21 1 21 22
M  V30 22 2 22 23
M  V30 23 1 23 2
M  V30 24 1 16 5
M  V30 25 1 23 18
M  V30 26 1 12 7
M  V30 27 1 1 24
M  V30 28 1 1 25
M  V30 29 1 1 26
M  V30 30 1 3 27
M  V30 31 1 8 28
M  V30 32 1 8 29
M  V30 33 1 9 30
M  V30 34 1 9 31
M  V30 35 1 11 32
M  V30 36 1 11 33
M  V30 37 1 12 34
M  V30 38 1 12 35
M  V30 39 1 15 36
M  V30 40 1 19 37
M  V30 41 1 20 38
M  V30 42 1 21 39
M  V30 43 1 22 40
M  V30 END BOND
M  V30 END CTAB
M  END
>  <Dataset>  (541) 
ChEMBL_Kinases

>  <Ligand_Instance>  (541) 
nan

>  <PDB_ID>  (541) 
nan

>  <Standardized_SMILES>  (541) 
Cn1cc(C2=C(N3CCOCC3)C(=O)NC2=O)c2ccccc21

>  <Name>  (541) 
nan

>  <Pocket>  (541) 
nan

>  <ATP_Site>  (541) 
nan

>  <Peripheral>  (541) 
nan

>  <Num_H_Atoms_ProtBoundConf>  (541) 
nan

>  <Num_Resolved_Atoms>  (541) 
nan

>  <Num_Not_Resolved_Atoms>  (541) 
nan

$$$$
CHEMBL1080911
     RDKit          3D

  0  0  0  0  0  0  0  0  0  0999 V3000
M  V30 BEGIN CTAB
M  V30 COUNTS 49 52 0 0 0
M  V30 BEGIN ATOM
M  V30 1 C 1.852407 -3.363162 4.533966 0
M  V30 2 C 2.904220 -3.841036 3.571908 0
M  V30 3 N 3.614742 -4.991256 3.596548 0
M  V30 4 N 4.433617 -5.004144 2.555878 0
M  V30 5 C 4.262735 -3.879291 1.859192 0
M  V30 6 C 4.826573 -3.360199 0.712801 0
M  V30 7 C 4.487951 -2.144299 0.157183 0
M  V30 8 C 3.522116 -1.407661 0.796876 0
M  V30 9 C 3.140745 -0.089403 0.214607 0
M  V30 10 N 3.368826 0.628500 -0.657509 0
M  V30 11 N 2.828918 1.773064 -0.896673 0
M  V30 12 C 2.012387 2.307110 -0.288843 0
M  V30 13 N 1.109922 3.411101 -0.030013 0
M  V30 14 C -0.173937 3.298062 -0.676639 0
M  V30 15 C -0.944780 2.060591 -0.268820 0 CFG=1
M  V30 16 N -1.207793 2.027750 1.143401 0
M  V30 17 C -2.242138 2.027809 -1.047321 0
M  V30 18 C -3.066154 0.842870 -0.711186 0
M  V30 19 C -3.998056 0.868439 0.305241 0
M  V30 20 C -4.724624 -0.294738 0.545138 0
M  V30 21 C -4.529029 -1.453055 -0.206678 0
M  V30 22 C -5.315508 -2.676309 0.069429 0
M  V30 23 F -4.598752 -3.835042 -0.171557 0
M  V30 24 F -5.685787 -2.723023 1.399102 0
M  V30 25 F -6.493265 -2.723489 -0.655947 0
M  V30 26 C -3.583065 -1.441093 -1.220777 0
M  V30 27 C -2.845321 -0.301157 -1.483535 0
M  V30 28 S 1.803658 0.959249 1.068704 0
M  V30 29 C 2.906786 -1.856266 1.951955 0
M  V30 30 C 3.285696 -3.091296 2.471568 0
M  V30 31 H 2.301721 -2.679359 5.300272 0
M  V30 32 H 1.500893 -4.280321 5.065473 0
M  V30 33 H 1.034711 -2.831001 4.013164 0
M  V30 34 H 5.130857 -5.751644 2.269513 0
M  V30 35 H 5.586224 -3.922078 0.195463 0
M  V30 36 H 4.908756 -1.719262 -0.728695 0
M  V30 37 H 1.346375 4.243397 0.578081 0
M  V30 38 H -0.033218 3.337792 -1.758136 0
M  V30 39 H -0.848065 4.160219 -0.405513 0
M  V30 40 H -0.359464 1.170089 -0.531764 0
M  V30 41 H -1.379655 1.075008 1.501265 0
M  V30 42 H -1.808031 2.774185 1.507788 0
M  V30 43 H -1.963358 2.055048 -2.138546 0
M  V30 44 H -2.842879 2.950069 -0.797629 0
M  V30 45 H -4.109867 1.778507 0.850728 0
M  V30 46 H -5.452371 -0.261672 1.345479 0
M  V30 47 H -3.407048 -2.325768 -1.823911 0
M  V30 48 H -2.109457 -0.334949 -2.292900 0
M  V30 49 H 2.143685 -1.274338 2.457466 0
M  V30 END ATOM
M  V30 BEGIN BOND
M  V30 1 1 1 2
M  V30 2 2 2 3
M  V30 3 1 3 4
M  V30 4 1 4 5
M  V30 5 2 5 6
M  V30 6 1 6 7
M  V30 7 2 7 8
M  V30 8 1 8 9
M  V30 9 2 9 10
M  V30 10 1 10 11
M  V30 11 2 11 12
M  V30 12 1 12 13
M  V30 13 1 13 14
M  V30 14 1 14 15
M  V30 15 1 15 16
M  V30 16 1 15 17
M  V30 17 1 17 18
M  V30 18 2 18 19
M  V30 19 1 19 20
M  V30 20 2 20 21
M  V30 21 1 21 22
M  V30 22 1 22 23
M  V30 23 1 22 24
M  V30 24 1 22 25
M  V30 25 1 21 26
M  V30 26 2 26 27
M  V30 27 1 12 28
M  V30 28 1 8 29
M  V30 29 2 29 30
M  V30 30 1 30 2
M  V30 31 1 30 5
M  V30 32 1 28 9
M  V30 33 1 27 18
M  V30 34 1 1 31
M  V30 35 1 1 32
M  V30 36 1 1 33
M  V30 37 1 4 34
M  V30 38 1 6 35
M  V30 39 1 7 36
M  V30 40 1 13 37
M  V30 41 1 14 38
M  V30 42 1 14 39
M  V30 43 1 15 40 CFG=3
M  V30 44 1 16 41
M  V30 45 1 16 42
M  V30 46 1 17 43
M  V30 47 1 17 44
M  V30 48 1 19 45
M  V30 49 1 20 46
M  V30 50 1 26 47
M  V30 51 1 27 48
M  V30 52 1 29 49
M  V30 END BOND
M  V30 END CTAB
M  END
>  <Dataset>  (542) 
ChEMBL_Kinases

>  <Ligand_Instance>  (542) 
nan

>  <PDB_ID>  (542) 
nan

>  <Standardized_SMILES>  (542) 
Cc1n[nH]c2ccc(-c3nnc(NC[C@@H](N)Cc4ccc(C(F)(F)F)cc4)s3)cc12

>  <Name>  (542) 
nan

>  <Pocket>  (542) 
nan

>  <ATP_Site>  (542) 
nan

>  <Peripheral>  (542) 
nan

>  <Num_H_Atoms_ProtBoundConf>  (542) 
nan

>  <Num_Resolved_Atoms>  (542) 
nan

>  <Num_Not_Resolved_Atoms>  (542) 
nan

$$$$
CHEMBL1080673
     RDKit          3D

  0  0  0  0  0  0  0  0  0  0999 V3000
M  V30 BEGIN CTAB
M  V30 COUNTS 52 56 0 0 0
M  V30 BEGIN ATOM
M  V30 1 C -1.356069 2.268714 -0.258276 0
M  V30 2 C -0.032613 2.085692 0.357809 0
M  V30 3 C 1.086882 2.400697 -0.373772 0
M  V30 4 C 2.340508 2.242928 0.177236 0
M  V30 5 C 2.458337 1.768225 1.462568 0
M  V30 6 C 3.750267 1.520054 2.082107 0
M  V30 7 O 3.924231 1.371884 3.359348 0
M  V30 8 N 4.998553 1.390917 1.479339 0
M  V30 9 C 6.392086 1.172089 1.528565 0
M  V30 10 C 7.096149 0.354346 0.504093 0
M  V30 11 C 7.272044 1.862158 0.488975 0
M  V30 12 C 1.389707 1.429119 2.266774 0
M  V30 13 C 0.141114 1.610773 1.651090 0
M  V30 14 N -1.088885 1.310474 2.288285 0
M  V30 15 C -2.023557 0.340948 1.822405 0
M  V30 16 N -3.299804 0.747493 1.849484 0
M  V30 17 N -4.302668 -0.053200 1.441914 0
M  V30 18 C -4.048654 -1.304160 0.988013 0
M  V30 19 C -5.114804 -2.214372 0.519653 0
M  V30 20 C -2.728424 -1.693976 0.972286 0
M  V30 21 C -1.654522 -0.911512 1.380152 0
M  V30 22 C -0.462187 -1.575811 1.254645 0
M  V30 23 N -0.834258 -2.777551 0.762435 0
M  V30 24 N -2.142258 -2.855892 0.594655 0
M  V30 25 C -2.724523 -4.046545 0.080080 0
M  V30 26 C -3.186373 -5.173142 0.771618 0
M  V30 27 C -3.713926 -6.211746 0.033620 0
M  V30 28 C -3.815839 -6.212350 -1.341183 0
M  V30 29 F -4.353099 -7.293564 -1.975583 0
M  V30 30 C -3.368715 -5.119395 -2.032531 0
M  V30 31 C -2.829198 -4.050274 -1.314891 0
M  V30 32 F -2.411809 -3.007878 -2.082526 0
M  V30 33 H -1.858101 1.309335 -0.498368 0
M  V30 34 H -2.062242 2.883305 0.330657 0
M  V30 35 H -1.251762 2.820609 -1.230766 0
M  V30 36 H 1.024785 2.779855 -1.380006 0
M  V30 37 H 3.200633 2.498567 -0.413348 0
M  V30 38 H 4.758325 1.519908 0.432078 0
M  V30 39 H 6.824365 1.119762 2.555735 0
M  V30 40 H 7.999520 -0.193991 0.824731 0
M  V30 41 H 6.541479 -0.063111 -0.356315 0
M  V30 42 H 6.763344 2.425853 -0.320448 0
M  V30 43 H 8.251732 2.273276 0.799414 0
M  V30 44 H 1.434872 1.053948 3.278030 0
M  V30 45 H -1.209452 1.899710 3.130464 0
M  V30 46 H -5.192972 -3.162044 1.076340 0
M  V30 47 H -5.079865 -2.406088 -0.583065 0
M  V30 48 H -6.095790 -1.681783 0.704999 0
M  V30 49 H 0.496328 -1.161173 1.513213 0
M  V30 50 H -3.068304 -5.081102 1.824874 0
M  V30 51 H -4.031654 -7.004780 0.663517 0
M  V30 52 H -3.438590 -5.101743 -3.106435 0
M  V30 END ATOM
M  V30 BEGIN BOND
M  V30 1 1 1 2
M  V30 2 2 2 3
M  V30 3 1 3 4
M  V30 4 2 4 5
M  V30 5 1 5 6
M  V30 6 2 6 7
M  V30 7 1 6 8
M  V30 8 1 8 9
M  V30 9 1 9 10
M  V30 10 1 10 11
M  V30 11 1 5 12
M  V30 12 2 12 13
M  V30 13 1 13 14
M  V30 14 1 14 15
M  V30 15 2 15 16
M  V30 16 1 16 17
M  V30 17 2 17 18
M  V30 18 1 18 19
M  V30 19 1 18 20
M  V30 20 2 20 21
M  V30 21 1 21 22
M  V30 22 2 22 23
M  V30 23 1 23 24
M  V30 24 1 24 25
M  V30 25 2 25 26
M  V30 26 1 26 27
M  V30 27 2 27 28
M  V30 28 1 28 29
M  V30 29 1 28 30
M  V30 30 2 30 31
M  V30 31 1 31 32
M  V30 32 1 13 2
M  V30 33 1 21 15
M  V30 34 1 31 25
M  V30 35 1 11 9
M  V30 36 1 24 20
M  V30 37 1 1 33
M  V30 38 1 1 34
M  V30 39 1 1 35
M  V30 40 1 3 36
M  V30 41 1 4 37
M  V30 42 1 8 38
M  V30 43 1 9 39
M  V30 44 1 10 40
M  V30 45 1 10 41
M  V30 46 1 11 42
M  V30 47 1 11 43
M  V30 48 1 12 44
M  V30 49 1 14 45
M  V30 50 1 19 46
M  V30 51 1 19 47
M  V30 52 1 19 48
M  V30 53 1 22 49
M  V30 54 1 26 50
M  V30 55 1 27 51
M  V30 56 1 30 52
M  V30 END BOND
M  V30 END CTAB
M  END
>  <Dataset>  (543) 
ChEMBL_Kinases

>  <Ligand_Instance>  (543) 
nan

>  <PDB_ID>  (543) 
nan

>  <Standardized_SMILES>  (543) 
Cc1ccc(C(=O)NC2CC2)cc1Nc1nnc(C)c2c1cnn2-c1ccc(F)cc1F

>  <Name>  (543) 
nan

>  <Pocket>  (543) 
nan

>  <ATP_Site>  (543) 
nan

>  <Peripheral>  (543) 
nan

>  <Num_H_Atoms_ProtBoundConf>  (543) 
nan

>  <Num_Resolved_Atoms>  (543) 
nan

>  <Num_Not_Resolved_Atoms>  (543) 
nan

$$$$
CHEMBL1080569
     RDKit          3D

  0  0  0  0  0  0  0  0  0  0999 V3000
M  V30 BEGIN CTAB
M  V30 COUNTS 48 51 0 0 0
M  V30 BEGIN ATOM
M  V30 1 N -3.253483 -1.287431 4.600118 0
M  V30 2 C -2.676455 -2.094073 3.488774 0 CFG=2
M  V30 3 C -1.442063 -1.423890 3.016374 0
M  V30 4 N -0.714655 -2.051038 1.962082 0
M  V30 5 C 0.436690 -1.118945 1.684690 0
M  V30 6 N 1.541564 -1.024454 2.043706 0
M  V30 7 N 2.394707 -0.126393 1.688989 0
M  V30 8 C 2.166512 0.772168 0.911375 0
M  V30 9 C 2.744049 1.966007 0.223435 0
M  V30 10 C 2.035620 2.751514 -0.640862 0
M  V30 11 C 2.657297 3.836527 -1.229490 0
M  V30 12 C 3.974535 4.134741 -0.957541 0
M  V30 13 C 4.577118 5.227746 -1.559258 0
M  V30 14 N 5.876973 5.477998 -1.257444 0
M  V30 15 C 6.561707 4.681364 -0.393860 0
M  V30 16 C 5.989576 3.568313 0.234576 0
M  V30 17 C 4.670422 3.314455 -0.071559 0
M  V30 18 C 4.064364 2.219409 0.530469 0
M  V30 19 S 0.419419 0.385898 0.524978 0
M  V30 20 C -3.802854 -2.208469 2.508499 0
M  V30 21 C -3.472302 -2.963073 1.313273 0
M  V30 22 C -3.590603 -4.355561 1.267318 0
M  V30 23 C -3.303826 -5.121356 0.130401 0
M  V30 24 C -2.878861 -4.447960 -1.009606 0
M  V30 25 C -2.615612 -5.402241 -2.123731 0
M  V30 26 F -3.833164 -6.030416 -2.394230 0
M  V30 27 F -2.191558 -4.810251 -3.272451 0
M  V30 28 F -1.718250 -6.346083 -1.649461 0
M  V30 29 C -2.753885 -3.077604 -0.991584 0
M  V30 30 C -3.046432 -2.358322 0.149172 0
M  V30 31 H -2.682495 -1.373657 5.462531 0
M  V30 32 H -4.185374 -1.733932 4.773319 0
M  V30 33 H -2.456169 -3.131425 3.856782 0
M  V30 34 H -1.720769 -0.370972 2.709842 0
M  V30 35 H -0.795732 -1.266904 3.930215 0
M  V30 36 H -0.484201 -2.777343 1.254946 0
M  V30 37 H 1.007577 2.526378 -0.858771 0
M  V30 38 H 2.039994 4.423223 -1.908381 0
M  V30 39 H 4.014667 5.848881 -2.243152 0
M  V30 40 H 7.563229 5.013120 -0.267275 0
M  V30 41 H 6.609011 2.992760 0.905683 0
M  V30 42 H 4.636827 1.607323 1.211274 0
M  V30 43 H -4.608246 -2.795948 3.043884 0
M  V30 44 H -4.297575 -1.232337 2.305033 0
M  V30 45 H -3.927041 -4.829540 2.189812 0
M  V30 46 H -3.441147 -6.206971 0.236837 0
M  V30 47 H -2.416219 -2.669624 -1.936961 0
M  V30 48 H -2.928864 -1.278823 0.101956 0
M  V30 END ATOM
M  V30 BEGIN BOND
M  V30 1 1 1 2
M  V30 2 1 2 3
M  V30 3 1 3 4
M  V30 4 1 4 5
M  V30 5 2 5 6
M  V30 6 1 6 7
M  V30 7 2 7 8
M  V30 8 1 8 9
M  V30 9 2 9 10
M  V30 10 1 10 11
M  V30 11 2 11 12
M  V30 12 1 12 13
M  V30 13 2 13 14
M  V30 14 1 14 15
M  V30 15 2 15 16
M  V30 16 1 16 17
M  V30 17 2 17 18
M  V30 18 1 8 19
M  V30 19 1 2 20
M  V30 20 1 20 21
M  V30 21 2 21 22
M  V30 22 1 22 23
M  V30 23 2 23 24
M  V30 24 1 24 25
M  V30 25 1 25 26
M  V30 26 1 25 27
M  V30 27 1 25 28
M  V30 28 1 24 29
M  V30 29 2 29 30
M  V30 30 1 19 5
M  V30 31 1 30 21
M  V30 32 1 18 9
M  V30 33 1 17 12
M  V30 34 1 1 31
M  V30 35 1 1 32
M  V30 36 1 2 33 CFG=1
M  V30 37 1 3 34
M  V30 38 1 3 35
M  V30 39 1 4 36
M  V30 40 1 10 37
M  V30 41 1 11 38
M  V30 42 1 13 39
M  V30 43 1 15 40
M  V30 44 1 16 41
M  V30 45 1 18 42
M  V30 46 1 20 43
M  V30 47 1 20 44
M  V30 48 1 22 45
M  V30 49 1 23 46
M  V30 50 1 29 47
M  V30 51 1 30 48
M  V30 END BOND
M  V30 END CTAB
M  END
>  <Dataset>  (544) 
ChEMBL_Kinases

>  <Ligand_Instance>  (544) 
nan

>  <PDB_ID>  (544) 
nan

>  <Standardized_SMILES>  (544) 
N[C@H](CNc1nnc(-c2ccc3cnccc3c2)s1)Cc1ccc(C(F)(F)F)cc1

>  <Name>  (544) 
nan

>  <Pocket>  (544) 
nan

>  <ATP_Site>  (544) 
nan

>  <Peripheral>  (544) 
nan

>  <Num_H_Atoms_ProtBoundConf>  (544) 
nan

>  <Num_Resolved_Atoms>  (544) 
nan

>  <Num_Not_Resolved_Atoms>  (544) 
nan

$$$$
CHEMBL108
     RDKit          3D

  0  0  0  0  0  0  0  0  0  0999 V3000
M  V30 BEGIN CTAB
M  V30 COUNTS 30 32 0 0 0
M  V30 BEGIN ATOM
M  V30 1 N -0.878464 -3.672858 -0.160777 0
M  V30 2 C 0.133955 -2.713998 0.093698 0
M  V30 3 O 0.896349 -3.596796 -0.358230 0
M  V30 4 N 0.247014 -1.414832 0.596926 0
M  V30 5 C 1.588725 -0.884747 0.639268 0
M  V30 6 C 2.518323 -1.841711 0.953055 0
M  V30 7 C 3.844514 -1.478808 1.016444 0
M  V30 8 C 4.159900 -0.150904 0.756317 0
M  V30 9 C 3.242525 0.832871 0.438890 0
M  V30 10 C 1.900278 0.458544 0.376006 0
M  V30 11 C 1.053070 1.623971 0.035174 0
M  V30 12 C -0.277658 1.701250 0.225609 0
M  V30 13 C -1.134327 0.646566 0.805322 0
M  V30 14 C -2.354743 1.157117 1.236155 0
M  V30 15 C -3.266583 0.293227 1.807891 0
M  V30 16 C -3.040182 -1.072623 1.983386 0
M  V30 17 C -1.836098 -1.587229 1.560856 0
M  V30 18 C -0.929740 -0.726432 0.991170 0
M  V30 19 H -1.322599 -4.513935 0.264223 0
M  V30 20 H -1.492035 -3.676298 -1.030141 0
M  V30 21 H 2.169003 -2.839710 1.152583 0
M  V30 22 H 4.606593 -2.205225 1.260110 0
M  V30 23 H 5.211060 0.175197 0.797938 0
M  V30 24 H 3.520320 1.847842 0.244341 0
M  V30 25 H 1.528056 2.470761 -0.394646 0
M  V30 26 H -0.771045 2.609385 -0.067717 0
M  V30 27 H -2.557099 2.208697 1.113606 0
M  V30 28 H -4.232490 0.681054 2.151801 0
M  V30 29 H -3.767420 -1.731644 2.433382 0
M  V30 30 H -1.556326 -2.615874 1.660266 0
M  V30 END ATOM
M  V30 BEGIN BOND
M  V30 1 1 1 2
M  V30 2 2 2 3
M  V30 3 1 2 4
M  V30 4 1 4 5
M  V30 5 2 5 6
M  V30 6 1 6 7
M  V30 7 2 7 8
M  V30 8 1 8 9
M  V30 9 2 9 10
M  V30 10 1 10 11
M  V30 11 2 11 12
M  V30 12 1 12 13
M  V30 13 2 13 14
M  V30 14 1 14 15
M  V30 15 2 15 16
M  V30 16 1 16 17
M  V30 17 2 17 18
M  V30 18 1 18 4
M  V30 19 1 10 5
M  V30 20 1 18 13
M  V30 21 1 1 19
M  V30 22 1 1 20
M  V30 23 1 6 21
M  V30 24 1 7 22
M  V30 25 1 8 23
M  V30 26 1 9 24
M  V30 27 1 11 25
M  V30 28 1 12 26
M  V30 29 1 14 27
M  V30 30 1 15 28
M  V30 31 1 16 29
M  V30 32 1 17 30
M  V30 END BOND
M  V30 END CTAB
M  END
>  <Dataset>  (545) 
ChEMBL_Kinases

>  <Ligand_Instance>  (545) 
nan

>  <PDB_ID>  (545) 
nan

>  <Standardized_SMILES>  (545) 
NC(=O)N1c2ccccc2C=Cc2ccccc21

>  <Name>  (545) 
CARBAMAZEPINE

>  <Pocket>  (545) 
nan

>  <ATP_Site>  (545) 
nan

>  <Peripheral>  (545) 
nan

>  <Num_H_Atoms_ProtBoundConf>  (545) 
nan

>  <Num_Resolved_Atoms>  (545) 
nan

>  <Num_Not_Resolved_Atoms>  (545) 
nan

$$$$
CHEMBL1079227
     RDKit          3D

  0  0  0  0  0  0  0  0  0  0999 V3000
M  V30 BEGIN CTAB
M  V30 COUNTS 22 22 0 0 0
M  V30 BEGIN ATOM
M  V30 1 C 0.494357 1.678053 4.477565 0
M  V30 2 O 1.415497 0.869739 3.781535 0
M  V30 3 C 1.159906 0.393324 2.520935 0
M  V30 4 C 2.074123 -0.384843 1.880136 0
M  V30 5 C 1.844067 -0.872667 0.623057 0
M  V30 6 C 0.659441 -0.570063 -0.010768 0
M  V30 7 C 0.517812 -1.139403 -1.342873 0
M  V30 8 C -0.499618 -1.126725 -2.400609 0
M  V30 9 O 1.403920 -1.861628 -1.897128 0
M  V30 10 C -0.240850 0.213429 0.655916 0
M  V30 11 O -1.415823 0.506334 0.012279 0
M  V30 12 C -0.035683 0.715973 1.917032 0
M  V30 13 H -0.520025 1.230820 4.401593 0
M  V30 14 H 0.774351 1.822320 5.523092 0
M  V30 15 H 0.447037 2.654668 3.950172 0
M  V30 16 H 2.999732 -0.613520 2.391453 0
M  V30 17 H 2.618510 -1.481728 0.184227 0
M  V30 18 H -0.162481 -0.633044 -3.353296 0
M  V30 19 H -0.944078 -2.126303 -2.608455 0
M  V30 20 H -1.353976 -0.503169 -2.064534 0
M  V30 21 H -1.538220 1.388937 -0.493691 0
M  V30 22 H -0.811475 1.331913 2.368622 0
M  V30 END ATOM
M  V30 BEGIN BOND
M  V30 1 1 1 2
M  V30 2 1 2 3
M  V30 3 2 3 4
M  V30 4 1 4 5
M  V30 5 2 5 6
M  V30 6 1 6 7
M  V30 7 1 7 8
M  V30 8 2 7 9
M  V30 9 1 6 10
M  V30 10 1 10 11
M  V30 11 2 10 12
M  V30 12 1 12 3
M  V30 13 1 1 13
M  V30 14 1 1 14
M  V30 15 1 1 15
M  V30 16 1 4 16
M  V30 17 1 5 17
M  V30 18 1 8 18
M  V30 19 1 8 19
M  V30 20 1 8 20
M  V30 21 1 11 21
M  V30 22 1 12 22
M  V30 END BOND
M  V30 END CTAB
M  END
>  <Dataset>  (546) 
ChEMBL_Kinases

>  <Ligand_Instance>  (546) 
nan

>  <PDB_ID>  (546) 
nan

>  <Standardized_SMILES>  (546) 
COc1ccc(C(C)=O)c(O)c1

>  <Name>  (546) 
PAEONOL

>  <Pocket>  (546) 
nan

>  <ATP_Site>  (546) 
nan

>  <Peripheral>  (546) 
nan

>  <Num_H_Atoms_ProtBoundConf>  (546) 
nan

>  <Num_Resolved_Atoms>  (546) 
nan

>  <Num_Not_Resolved_Atoms>  (546) 
nan

$$$$
CHEMBL1079135
     RDKit          3D

  0  0  0  0  0  0  0  0  0  0999 V3000
M  V30 BEGIN CTAB
M  V30 COUNTS 35 38 0 0 0
M  V30 BEGIN ATOM
M  V30 1 C 0.117172 -3.860641 4.215339 0
M  V30 2 C 0.082705 -2.957482 3.048602 0
M  V30 3 C -0.629682 -3.303697 1.925707 0
M  V30 4 C -0.653760 -2.451632 0.843655 0
M  V30 5 C 0.004746 -1.232118 0.795517 0
M  V30 6 C 0.689174 -0.959692 1.945688 0
M  V30 7 C 0.757283 -1.760816 3.061241 0
M  V30 8 N 1.259319 0.233626 1.714692 0
M  V30 9 C 0.926300 0.664131 0.462684 0
M  V30 10 C 1.441824 1.936087 -0.027245 0
M  V30 11 N 1.314527 2.602235 -1.177515 0
M  V30 12 O 1.964102 3.718855 -1.201531 0
M  V30 13 N 2.566586 3.853736 -0.048172 0
M  V30 14 C 2.273862 2.773508 0.715740 0
M  V30 15 N 2.791214 2.645968 2.023901 0
M  V30 16 N 0.137090 -0.251710 -0.119168 0
M  V30 17 C -0.432618 -0.182720 -1.409672 0
M  V30 18 C -1.550975 -1.135071 -1.761168 0
M  V30 19 C -1.926182 -0.055376 -2.807092 0
M  V30 20 C -1.476976 0.894434 -1.670257 0
M  V30 21 H 1.026557 -3.662093 4.797938 0
M  V30 22 H 0.132402 -4.936552 3.908174 0
M  V30 23 H -0.755829 -3.622237 4.844805 0
M  V30 24 H -1.157301 -4.249864 1.927781 0
M  V30 25 H -1.219004 -2.797564 0.012234 0
M  V30 26 H 1.319816 -1.481828 3.940689 0
M  V30 27 H 3.498714 2.023827 2.467229 0
M  V30 28 H 2.363602 3.331592 2.686417 0
M  V30 29 H 0.293258 -0.170177 -2.260452 0
M  V30 30 H -2.403904 -1.103996 -1.032770 0
M  V30 31 H -1.311976 -2.065501 -2.251896 0
M  V30 32 H -1.188516 -0.001647 -3.625228 0
M  V30 33 H -2.983401 -0.004392 -3.056016 0
M  V30 34 H -1.155586 1.862067 -2.015813 0
M  V30 35 H -2.220383 0.835285 -0.844747 0
M  V30 END ATOM
M  V30 BEGIN BOND
M  V30 1 1 1 2
M  V30 2 2 2 3
M  V30 3 1 3 4
M  V30 4 2 4 5
M  V30 5 1 5 6
M  V30 6 2 6 7
M  V30 7 1 6 8
M  V30 8 2 8 9
M  V30 9 1 9 10
M  V30 10 2 10 11
M  V30 11 1 11 12
M  V30 12 1 12 13
M  V30 13 2 13 14
M  V30 14 1 14 15
M  V30 15 1 9 16
M  V30 16 1 16 17
M  V30 17 1 17 18
M  V30 18 1 18 19
M  V30 19 1 19 20
M  V30 20 1 7 2
M  V30 21 1 14 10
M  V30 22 1 20 17
M  V30 23 1 16 5
M  V30 24 1 1 21
M  V30 25 1 1 22
M  V30 26 1 1 23
M  V30 27 1 3 24
M  V30 28 1 4 25
M  V30 29 1 7 26
M  V30 30 1 15 27
M  V30 31 1 15 28
M  V30 32 1 17 29
M  V30 33 1 18 30
M  V30 34 1 18 31
M  V30 35 1 19 32
M  V30 36 1 19 33
M  V30 37 1 20 34
M  V30 38 1 20 35
M  V30 END BOND
M  V30 END CTAB
M  END
>  <Dataset>  (547) 
ChEMBL_Kinases

>  <Ligand_Instance>  (547) 
nan

>  <PDB_ID>  (547) 
nan

>  <Standardized_SMILES>  (547) 
Cc1ccc2c(c1)nc(-c1nonc1N)n2C1CCC1

>  <Name>  (547) 
nan

>  <Pocket>  (547) 
nan

>  <ATP_Site>  (547) 
nan

>  <Peripheral>  (547) 
nan

>  <Num_H_Atoms_ProtBoundConf>  (547) 
nan

>  <Num_Resolved_Atoms>  (547) 
nan

>  <Num_Not_Resolved_Atoms>  (547) 
nan

$$$$
CHEMBL1077375
     RDKit          3D

  0  0  0  0  0  0  0  0  0  0999 V3000
M  V30 BEGIN CTAB
M  V30 COUNTS 220 221 0 0 0
M  V30 BEGIN ATOM
M  V30 1 N 2.583368 -1.849891 11.985904 0
M  V30 2 C 2.440648 -2.027417 10.728413 0
M  V30 3 N 2.739294 -3.213728 9.983030 0
M  V30 4 N 1.931636 -0.932409 9.961396 0
M  V30 5 C 1.351223 0.180169 10.649930 0
M  V30 6 C 0.845546 1.257814 9.736143 0
M  V30 7 C -0.161082 0.785752 8.763358 0
M  V30 8 C -1.411583 0.167783 9.304255 0 CFG=1
M  V30 9 N -2.237125 -0.153797 8.128985 0
M  V30 10 C -3.557664 0.119559 7.700225 0
M  V30 11 O -4.325448 0.804495 8.422859 0
M  V30 12 C -4.001002 -0.440849 6.359930 0 CFG=1
M  V30 13 C -4.713393 0.599147 5.571749 0
M  V30 14 C -5.169468 0.082869 4.240400 0
M  V30 15 C -5.853500 1.187572 3.438470 0
M  V30 16 N -4.925669 2.268984 3.225098 0
M  V30 17 C -5.250264 3.437768 2.462038 0
M  V30 18 N -6.489394 3.795567 2.351028 0
M  V30 19 N -4.176876 4.162646 1.854650 0
M  V30 20 N -2.881240 -1.042349 5.685452 0
M  V30 21 C -2.204346 -2.270370 5.574421 0
M  V30 22 O -2.690368 -3.198134 6.294297 0
M  V30 23 C -0.991085 -2.432404 4.660762 0 CFG=1
M  V30 24 C -1.054003 -3.753862 3.982856 0
M  V30 25 C 0.105780 -3.956490 3.067448 0
M  V30 26 C 0.117478 -5.322475 2.407761 0
M  V30 27 N -1.056931 -5.595692 1.622010 0
M  V30 28 C -2.367113 -5.816468 2.176194 0
M  V30 29 N -2.355583 -6.528801 3.258995 0
M  V30 30 N -3.536048 -5.290607 1.559784 0
M  V30 31 N -0.877618 -1.303191 3.808784 0
M  V30 32 C -0.217020 -0.069767 3.998817 0
M  V30 33 O 0.283345 -0.217299 5.168156 0
M  V30 34 C -0.089179 1.122277 3.150348 0 CFG=1
M  V30 35 C 1.235731 1.763888 3.281069 0
M  V30 36 C 1.583538 2.267255 4.636233 0
M  V30 37 C 0.596395 3.324624 5.131134 0
M  V30 38 N 1.062846 3.773767 6.440855 0
M  V30 39 C 2.282947 4.540003 6.371306 0
M  V30 40 N 2.676901 5.079102 5.255780 0
M  V30 41 N 3.143802 4.764812 7.513090 0
M  V30 42 N -0.505563 0.976867 1.790417 0
M  V30 43 C -1.696515 0.778779 1.062229 0
M  V30 44 O -2.647545 0.646043 1.855490 0
M  V30 45 C -1.820993 0.735966 -0.376025 0 CFG=1
M  V30 46 C -3.116278 1.255147 -0.924298 0
M  V30 47 C -4.334855 0.501697 -0.487113 0
M  V30 48 C -4.209537 -0.968070 -0.891653 0
M  V30 49 N -5.392791 -1.736654 -0.610368 0
M  V30 50 C -6.611685 -1.507512 -1.357613 0
M  V30 51 N -6.414619 -0.827373 -2.462125 0
M  V30 52 N -7.895782 -2.004884 -0.897931 0
M  V30 53 N -0.688162 1.352250 -1.086700 0
M  V30 54 C -0.492023 1.249117 -2.501742 0
M  V30 55 O -1.314410 0.600910 -3.231332 0
M  V30 56 C 0.633801 1.878248 -3.202191 0 CFG=1
M  V30 57 C 0.579360 3.396082 -3.192085 0
M  V30 58 C -0.523554 4.126048 -3.790405 0
M  V30 59 C -1.884460 3.935160 -3.235153 0
M  V30 60 N -2.851936 4.795517 -3.975228 0
M  V30 61 C -4.241476 4.685877 -3.583714 0
M  V30 62 N -4.664410 3.513516 -3.186505 0
M  V30 63 N -5.164859 5.766097 -3.616576 0
M  V30 64 N 1.877243 1.566773 -2.423955 0
M  V30 65 C 2.986413 1.512830 -3.328373 0
M  V30 66 O 2.795366 1.737761 -4.542824 0
M  V30 67 C 4.379864 1.206375 -2.957549 0
M  V30 68 C 5.361238 1.443778 -4.044536 0
M  V30 69 C 5.156054 0.741302 -5.331400 0
M  V30 70 C 5.070820 -0.756637 -5.170433 0
M  V30 71 C 4.839321 -1.408811 -6.526774 0
M  V30 72 N 4.698509 -2.839349 -6.458915 0
M  V30 73 C 3.566729 -3.080379 -5.638793 0
M  V30 74 O 2.671768 -2.543144 -4.981809 0
M  V30 75 C 2.743831 -4.142715 -5.056292 0 CFG=1
M  V30 76 C 3.522279 -4.863911 -3.970111 0
M  V30 77 C 4.780898 -5.540972 -4.382612 0
M  V30 78 C 5.445034 -6.259203 -3.208317 0
M  V30 79 C 6.699054 -6.934467 -3.678019 0
M  V30 80 N 7.647020 -5.987317 -4.215114 0
M  V30 81 N 1.575441 -3.512435 -4.394928 0
M  V30 82 C 0.322075 -4.090478 -4.701208 0
M  V30 83 O 0.211432 -5.077349 -5.517966 0
M  V30 84 C -1.142589 -3.958431 -4.365787 0
M  V30 85 C -1.954646 -4.834813 -5.243116 0
M  V30 86 C -2.043189 -4.474797 -6.685413 0
M  V30 87 C -2.837700 -3.158540 -6.824983 0
M  V30 88 C -2.961451 -2.721570 -8.239559 0
M  V30 89 N -1.758810 -2.364882 -8.914706 0
M  V30 90 C -1.139884 -1.212244 -8.357456 0
M  V30 91 O -1.783581 -0.723825 -7.365229 0
M  V30 92 C 0.047206 -0.574387 -8.757547 0
M  V30 93 C 1.063875 -0.613406 -9.645900 0
M  V30 94 C 2.083291 0.294128 -9.667298 0
M  V30 95 C 2.040834 1.294877 -8.713065 0
M  V30 96 C 2.842823 2.464811 -8.346722 0
M  V30 97 C 2.453314 3.302804 -7.344862 0
M  V30 98 C 3.212278 4.398173 -7.005350 0
M  V30 99 N 4.366449 4.620698 -7.700669 0
M  V30 100 C 4.738066 3.793987 -8.680120 0
M  V30 101 N 5.944003 4.029107 -9.409748 0
M  V30 102 N 3.985000 2.711879 -9.014145 0
M  V30 103 S 0.498722 0.951371 -7.733786 0
M  V30 104 C -1.156502 -1.133747 10.031352 0
M  V30 105 N -1.825247 -2.275849 9.451162 0
M  V30 106 O -0.871739 -2.170503 10.723377 0
M  V30 107 H 2.347697 -0.964880 12.469410 0
M  V30 108 H 2.026338 -3.592797 9.315690 0
M  V30 109 H 3.409107 -3.966984 9.764755 0
M  V30 110 H 1.982265 -0.938371 8.916800 0
M  V30 111 H 0.570174 -0.068726 11.388409 0
M  V30 112 H 2.198739 0.705025 11.240137 0
M  V30 113 H 0.388954 2.071440 10.361369 0
M  V30 114 H 1.691949 1.758696 9.193278 0
M  V30 115 H 0.279199 0.144441 7.950723 0
M  V30 116 H -0.516042 1.708557 8.199966 0
M  V30 117 H -1.922171 0.853116 9.978346 0
M  V30 118 H -1.645886 -0.739514 7.482713 0
M  V30 119 H -4.684565 -1.281230 6.642305 0
M  V30 120 H -5.639371 0.902339 6.126179 0
M  V30 121 H -4.074746 1.499161 5.438971 0
M  V30 122 H -5.921490 -0.713625 4.443593 0
M  V30 123 H -4.328275 -0.371507 3.712219 0
M  V30 124 H -6.119062 0.747670 2.467690 0
M  V30 125 H -6.771712 1.481471 3.949698 0
M  V30 126 H -3.964890 2.281324 3.600624 0
M  V30 127 H -6.656591 4.655981 1.780149 0
M  V30 128 H -3.321247 4.609319 2.267758 0
M  V30 129 H -3.506410 4.649001 1.248717 0
M  V30 130 H -2.445628 -0.283655 5.084484 0
M  V30 131 H -0.128527 -2.439944 5.391457 0
M  V30 132 H -1.056977 -4.560494 4.756037 0
M  V30 133 H -2.029992 -3.789525 3.437277 0
M  V30 134 H 0.053879 -3.199832 2.234913 0
M  V30 135 H 1.054988 -3.809086 3.609936 0
M  V30 136 H 0.999211 -5.388174 1.735577 0
M  V30 137 H 0.222273 -6.084946 3.215004 0
M  V30 138 H -0.996730 -5.640520 0.563460 0
M  V30 139 H -3.192102 -6.779012 3.779615 0
M  V30 140 H -3.815028 -5.661676 0.613733 0
M  V30 141 H -4.231431 -4.566165 1.852308 0
M  V30 142 H -1.368463 -1.447664 2.885087 0
M  V30 143 H -0.904759 1.870183 3.578927 0
M  V30 144 H 1.410392 2.568642 2.522402 0
M  V30 145 H 2.004117 0.960954 3.035053 0
M  V30 146 H 2.577847 2.821148 4.603113 0
M  V30 147 H 1.711811 1.514505 5.416927 0
M  V30 148 H 0.531629 4.187593 4.445414 0
M  V30 149 H -0.384556 2.859242 5.274901 0
M  V30 150 H 0.768564 3.701614 7.446776 0
M  V30 151 H 3.545649 5.632995 5.175226 0
M  V30 152 H 2.793316 5.709572 7.852632 0
M  V30 153 H 3.770018 3.936546 7.581731 0
M  V30 154 H 0.335696 1.030115 1.122342 0
M  V30 155 H -1.793949 -0.336203 -0.748272 0
M  V30 156 H -3.141455 1.242864 -2.030295 0
M  V30 157 H -3.244271 2.306089 -0.525391 0
M  V30 158 H -4.499123 0.564089 0.598693 0
M  V30 159 H -5.267403 0.932550 -0.933580 0
M  V30 160 H -3.346507 -1.414034 -0.303331 0
M  V30 161 H -3.867543 -1.001052 -1.935143 0
M  V30 162 H -5.405496 -2.468157 0.123979 0
M  V30 163 H -5.558386 -0.466981 -2.824968 0
M  V30 164 H -8.492600 -2.761805 -1.360895 0
M  V30 165 H -7.824186 -2.647514 -1.716418 0
M  V30 166 H 0.085451 1.924108 -0.656848 0
M  V30 167 H 0.714085 1.571242 -4.227470 0
M  V30 168 H 0.811640 3.751228 -2.145381 0
M  V30 169 H 1.528455 3.696872 -3.748700 0
M  V30 170 H -0.298144 5.241433 -3.625607 0
M  V30 171 H -0.532517 4.057714 -4.918944 0
M  V30 172 H -1.887715 4.344998 -2.194944 0
M  V30 173 H -2.321477 2.949029 -3.331100 0
M  V30 174 H -2.665624 5.486728 -4.756628 0
M  V30 175 H -5.658467 3.340559 -2.883493 0
M  V30 176 H -5.254984 6.115678 -2.618279 0
M  V30 177 H -5.794595 6.363137 -4.215222 0
M  V30 178 H 2.076701 1.391454 -1.423513 0
M  V30 179 H 4.485908 0.197370 -2.495451 0
M  V30 180 H 4.654700 1.927699 -2.132510 0
M  V30 181 H 5.502730 2.546584 -4.162293 0
M  V30 182 H 6.372022 1.104712 -3.657410 0
M  V30 183 H 6.114531 0.912386 -5.942552 0
M  V30 184 H 4.376312 1.125933 -6.000727 0
M  V30 185 H 6.059868 -1.079747 -4.763657 0
M  V30 186 H 4.310111 -1.002383 -4.427871 0
M  V30 187 H 3.963898 -0.920752 -7.012542 0
M  V30 188 H 5.724586 -1.187001 -7.139189 0
M  V30 189 H 5.000962 -3.796995 -6.714744 0
M  V30 190 H 2.371379 -4.893825 -5.772165 0
M  V30 191 H 2.856740 -5.530846 -3.353791 0
M  V30 192 H 3.794949 -4.038753 -3.241059 0
M  V30 193 H 5.553230 -4.797216 -4.724203 0
M  V30 194 H 4.646920 -6.254135 -5.217213 0
M  V30 195 H 5.715132 -5.520452 -2.431888 0
M  V30 196 H 4.793719 -7.011694 -2.739072 0
M  V30 197 H 7.159986 -7.412718 -2.778122 0
M  V30 198 H 6.425890 -7.723231 -4.418031 0
M  V30 199 H 7.476316 -5.068197 -3.714979 0
M  V30 200 H 7.441770 -5.861125 -5.225447 0
M  V30 201 H 1.297546 -2.743582 -3.736690 0
M  V30 202 H -1.434911 -2.899694 -4.504729 0
M  V30 203 H -1.270603 -4.201665 -3.282769 0
M  V30 204 H -1.512480 -5.863881 -5.171431 0
M  V30 205 H -2.987874 -4.953679 -4.815704 0
M  V30 206 H -1.088380 -4.360125 -7.195122 0
M  V30 207 H -2.689623 -5.219281 -7.215819 0
M  V30 208 H -3.886705 -3.462752 -6.500414 0
M  V30 209 H -2.539134 -2.409756 -6.095318 0
M  V30 210 H -3.695359 -1.884135 -8.274149 0
M  V30 211 H -3.470970 -3.561720 -8.790022 0
M  V30 212 H -1.168930 -2.712606 -9.732918 0
M  V30 213 H 0.982292 -1.438145 -10.336374 0
M  V30 214 H 2.902730 0.290775 -10.361275 0
M  V30 215 H 1.526761 3.150975 -6.773319 0
M  V30 216 H 2.879873 5.048068 -6.204065 0
M  V30 217 H 5.494972 4.583155 -10.188998 0
M  V30 218 H 6.962153 3.759586 -9.263437 0
M  V30 219 H -2.755093 -2.673117 9.150411 0
M  V30 220 H -2.807362 -2.595267 9.176179 0
M  V30 END ATOM
M  V30 BEGIN BOND
M  V30 1 2 1 2 CFG=2
M  V30 2 1 2 3
M  V30 3 1 2 4
M  V30 4 1 4 5
M  V30 5 1 5 6
M  V30 6 1 6 7
M  V30 7 1 7 8
M  V30 8 1 8 9
M  V30 9 1 9 10
M  V30 10 2 10 11
M  V30 11 1 10 12
M  V30 12 1 12 13
M  V30 13 1 13 14
M  V30 14 1 14 15
M  V30 15 1 15 16
M  V30 16 1 16 17
M  V30 17 2 17 18 CFG=2
M  V30 18 1 17 19
M  V30 19 1 12 20
M  V30 20 1 20 21
M  V30 21 2 21 22
M  V30 22 1 21 23
M  V30 23 1 23 24
M  V30 24 1 24 25
M  V30 25 1 25 26
M  V30 26 1 26 27
M  V30 27 1 27 28
M  V30 28 2 28 29 CFG=2
M  V30 29 1 28 30
M  V30 30 1 23 31
M  V30 31 1 31 32
M  V30 32 2 32 33
M  V30 33 1 32 34
M  V30 34 1 34 35
M  V30 35 1 35 36
M  V30 36 1 36 37
M  V30 37 1 37 38
M  V30 38 1 38 39
M  V30 39 2 39 40 CFG=2
M  V30 40 1 39 41
M  V30 41 1 34 42
M  V30 42 1 42 43
M  V30 43 2 43 44
M  V30 44 1 43 45
M  V30 45 1 45 46
M  V30 46 1 46 47
M  V30 47 1 47 48
M  V30 48 1 48 49
M  V30 49 1 49 50
M  V30 50 2 50 51 CFG=2
M  V30 51 1 50 52
M  V30 52 1 45 53
M  V30 53 1 53 54
M  V30 54 2 54 55
M  V30 55 1 54 56
M  V30 56 1 56 57
M  V30 57 1 57 58
M  V30 58 1 58 59
M  V30 59 1 59 60
M  V30 60 1 60 61
M  V30 61 2 61 62 CFG=2
M  V30 62 1 61 63
M  V30 63 1 56 64
M  V30 64 1 64 65
M  V30 65 2 65 66
M  V30 66 1 65 67
M  V30 67 1 67 68
M  V30 68 1 68 69
M  V30 69 1 69 70
M  V30 70 1 70 71
M  V30 71 1 71 72
M  V30 72 1 72 73
M  V30 73 2 73 74
M  V30 74 1 73 75
M  V30 75 1 75 76
M  V30 76 1 76 77
M  V30 77 1 77 78
M  V30 78 1 78 79
M  V30 79 1 79 80
M  V30 80 1 75 81
M  V30 81 1 81 82
M  V30 82 2 82 83
M  V30 83 1 82 84
M  V30 84 1 84 85
M  V30 85 1 85 86
M  V30 86 1 86 87
M  V30 87 1 87 88
M  V30 88 1 88 89
M  V30 89 1 89 90
M  V30 90 2 90 91
M  V30 91 1 90 92
M  V30 92 2 92 93
M  V30 93 1 93 94
M  V30 94 2 94 95
M  V30 95 1 95 96
M  V30 96 2 96 97
M  V30 97 1 97 98
M  V30 98 2 98 99
M  V30 99 1 99 100
M  V30 100 1 100 101
M  V30 101 2 100 102
M  V30 102 1 95 103
M  V30 103 1 8 104
M  V30 104 1 104 105
M  V30 105 2 104 106
M  V30 106 1 103 92
M  V30 107 1 102 96
M  V30 108 1 1 107
M  V30 109 1 3 108
M  V30 110 1 3 109
M  V30 111 1 4 110
M  V30 112 1 5 111
M  V30 113 1 5 112
M  V30 114 1 6 113
M  V30 115 1 6 114
M  V30 116 1 7 115
M  V30 117 1 7 116
M  V30 118 1 8 117 CFG=1
M  V30 119 1 9 118
M  V30 120 1 12 119 CFG=1
M  V30 121 1 13 120
M  V30 122 1 13 121
M  V30 123 1 14 122
M  V30 124 1 14 123
M  V30 125 1 15 124
M  V30 126 1 15 125
M  V30 127 1 16 126
M  V30 128 1 18 127
M  V30 129 1 19 128
M  V30 130 1 19 129
M  V30 131 1 20 130
M  V30 132 1 23 131 CFG=1
M  V30 133 1 24 132
M  V30 134 1 24 133
M  V30 135 1 25 134
M  V30 136 1 25 135
M  V30 137 1 26 136
M  V30 138 1 26 137
M  V30 139 1 27 138
M  V30 140 1 29 139
M  V30 141 1 30 140
M  V30 142 1 30 141
M  V30 143 1 31 142
M  V30 144 1 34 143 CFG=1
M  V30 145 1 35 144
M  V30 146 1 35 145
M  V30 147 1 36 146
M  V30 148 1 36 147
M  V30 149 1 37 148
M  V30 150 1 37 149
M  V30 151 1 38 150
M  V30 152 1 40 151
M  V30 153 1 41 152
M  V30 154 1 41 153
M  V30 155 1 42 154
M  V30 156 1 45 155 CFG=3
M  V30 157 1 46 156
M  V30 158 1 46 157
M  V30 159 1 47 158
M  V30 160 1 47 159
M  V30 161 1 48 160
M  V30 162 1 48 161
M  V30 163 1 49 162
M  V30 164 1 51 163
M  V30 165 1 52 164
M  V30 166 1 52 165
M  V30 167 1 53 166
M  V30 168 1 56 167 CFG=3
M  V30 169 1 57 168
M  V30 170 1 57 169
M  V30 171 1 58 170
M  V30 172 1 58 171
M  V30 173 1 59 172
M  V30 174 1 59 173
M  V30 175 1 60 174
M  V30 176 1 62 175
M  V30 177 1 63 176
M  V30 178 1 63 177
M  V30 179 1 64 178
M  V30 180 1 67 179
M  V30 181 1 67 180
M  V30 182 1 68 181
M  V30 183 1 68 182
M  V30 184 1 69 183
M  V30 185 1 69 184
M  V30 186 1 70 185
M  V30 187 1 70 186
M  V30 188 1 71 187
M  V30 189 1 71 188
M  V30 190 1 72 189
M  V30 191 1 75 190 CFG=3
M  V30 192 1 76 191
M  V30 193 1 76 192
M  V30 194 1 77 193
M  V30 195 1 77 194
M  V30 196 1 78 195
M  V30 197 1 78 196
M  V30 198 1 79 197
M  V30 199 1 79 198
M  V30 200 1 80 199
M  V30 201 1 80 200
M  V30 202 1 81 201
M  V30 203 1 84 202
M  V30 204 1 84 203
M  V30 205 1 85 204
M  V30 206 1 85 205
M  V30 207 1 86 206
M  V30 208 1 86 207
M  V30 209 1 87 208
M  V30 210 1 87 209
M  V30 211 1 88 210
M  V30 212 1 88 211
M  V30 213 1 89 212
M  V30 214 1 93 213
M  V30 215 1 94 214
M  V30 216 1 97 215
M  V30 217 1 98 216
M  V30 218 1 101 217
M  V30 219 1 101 218
M  V30 220 1 105 219
M  V30 221 1 105 220
M  V30 END BOND
M  V30 END CTAB
M  END
>  <Dataset>  (548) 
ChEMBL_Kinases

>  <Ligand_Instance>  (548) 
nan

>  <PDB_ID>  (548) 
nan

>  <Standardized_SMILES>  (548) 
N=C(N)NCCC[C@@H](NC(=O)[C@@H](CCCNC(=N)N)NC(=O)[C@@H](CCCNC(=N)N)NC(=O)[C@@H](CCCNC(=N)N)NC(=O)[C@@H](CCCNC(=N)N)NC(=O)[C@@H](CCCNC(=N)N)NC(=O)CCCCCNC(=O)[C@@H](CCCCN)NC(=O)CCCCCNC(=O)c1ccc(-c2ccnc(N)n2)s1)C(N)=O

>  <Name>  (548) 
nan

>  <Pocket>  (548) 
nan

>  <ATP_Site>  (548) 
nan

>  <Peripheral>  (548) 
nan

>  <Num_H_Atoms_ProtBoundConf>  (548) 
nan

>  <Num_Resolved_Atoms>  (548) 
nan

>  <Num_Not_Resolved_Atoms>  (548) 
nan

$$$$
CHEMBL1077291
     RDKit          3D

  0  0  0  0  0  0  0  0  0  0999 V3000
M  V30 BEGIN CTAB
M  V30 COUNTS 32 35 0 0 0
M  V30 BEGIN ATOM
M  V30 1 O 3.585823 -1.327703 0.487141 0
M  V30 2 C 2.547875 -1.885531 0.112760 0
M  V30 3 N 2.547831 -3.123330 -0.585233 0
M  V30 4 C 1.155535 -3.412178 -0.828360 0
M  V30 5 C 0.727755 -4.560469 -1.500538 0
M  V30 6 C -0.612926 -4.739017 -1.678498 0
M  V30 7 C -1.476567 -3.768583 -1.181047 0
M  V30 8 F -2.800366 -4.055040 -1.418879 0
M  V30 9 C -0.964609 -2.671809 -0.533068 0
M  V30 10 C 0.338638 -2.436412 -0.325210 0
M  V30 11 C 1.173141 -1.448145 0.280170 0
M  V30 12 C 0.760584 -0.372645 0.862891 0
M  V30 13 N 1.613463 0.591404 1.455697 0
M  V30 14 C 0.894006 1.678897 2.027538 0
M  V30 15 C 1.353602 2.807948 2.690744 0
M  V30 16 C 0.395209 3.678294 3.126367 0
M  V30 17 C -0.954167 3.475070 2.934025 0
M  V30 18 C -1.331226 2.332606 2.268007 0
M  V30 19 C -0.441289 1.382240 1.783314 0
M  V30 20 C -0.562658 0.130646 1.070489 0
M  V30 21 N -1.683551 -0.288171 0.769730 0
M  V30 22 O -2.872351 0.294676 1.029937 0
M  V30 23 H 3.406274 -3.672246 -0.845295 0
M  V30 24 H 1.395843 -5.313991 -1.886934 0
M  V30 25 H -0.955625 -5.621060 -2.195633 0
M  V30 26 H -1.768424 -2.079152 -0.245214 0
M  V30 27 H 2.644371 0.526656 1.478568 0
M  V30 28 H 2.411670 2.969931 2.843045 0
M  V30 29 H 0.752256 4.557912 3.642998 0
M  V30 30 H -1.652113 4.206620 3.306377 0
M  V30 31 H -2.398780 2.238162 2.153244 0
M  V30 32 H -3.531339 0.560122 0.308242 0
M  V30 END ATOM
M  V30 BEGIN BOND
M  V30 1 2 1 2
M  V30 2 1 2 3
M  V30 3 1 3 4
M  V30 4 2 4 5
M  V30 5 1 5 6
M  V30 6 2 6 7
M  V30 7 1 7 8
M  V30 8 1 7 9
M  V30 9 2 9 10
M  V30 10 1 10 11
M  V30 11 2 11 12
M  V30 12 1 12 13
M  V30 13 1 13 14
M  V30 14 2 14 15
M  V30 15 1 15 16
M  V30 16 2 16 17
M  V30 17 1 17 18
M  V30 18 2 18 19
M  V30 19 1 19 20
M  V30 20 2 20 21
M  V30 21 1 21 22
M  V30 22 1 11 2
M  V30 23 1 20 12
M  V30 24 1 10 4
M  V30 25 1 19 14
M  V30 26 1 3 23
M  V30 27 1 5 24
M  V30 28 1 6 25
M  V30 29 1 9 26
M  V30 30 1 13 27
M  V30 31 1 15 28
M  V30 32 1 16 29
M  V30 33 1 17 30
M  V30 34 1 18 31
M  V30 35 1 22 32
M  V30 END BOND
M  V30 END CTAB
M  END
>  <Dataset>  (549) 
ChEMBL_Kinases

>  <Ligand_Instance>  (549) 
nan

>  <PDB_ID>  (549) 
nan

>  <Standardized_SMILES>  (549) 
O=C1Nc2ccc(F)cc2/C1=C1/Nc2ccccc2/C1=N\O

>  <Name>  (549) 
nan

>  <Pocket>  (549) 
nan

>  <ATP_Site>  (549) 
nan

>  <Peripheral>  (549) 
nan

>  <Num_H_Atoms_ProtBoundConf>  (549) 
nan

>  <Num_Resolved_Atoms>  (549) 
nan

>  <Num_Not_Resolved_Atoms>  (549) 
nan

$$$$
CHEMBL1077260
     RDKit          3D

  0  0  0  0  0  0  0  0  0  0999 V3000
M  V30 BEGIN CTAB
M  V30 COUNTS 41 43 0 0 0
M  V30 BEGIN ATOM
M  V30 1 C 1.271097 -5.616915 3.390788 0
M  V30 2 C 0.405519 -5.883021 2.183242 0
M  V30 3 C 1.075140 -5.417270 0.906198 0
M  V30 4 C 1.352090 -3.950737 0.947625 0
M  V30 5 O 1.030893 -3.277531 1.960884 0
M  V30 6 N 1.978165 -3.371664 -0.181915 0
M  V30 7 C 2.200650 -1.953746 -0.041399 0
M  V30 8 N 3.363090 -1.531481 0.500827 0
M  V30 9 N 3.361328 -0.199169 0.536641 0
M  V30 10 C 2.213205 0.247498 0.024834 0
M  V30 11 C 1.627288 1.475611 -0.208861 0
M  V30 12 C 0.368504 1.589599 -0.780323 0
M  V30 13 C -0.235696 2.947143 -1.018773 0
M  V30 14 C -1.027135 3.364354 0.193620 0
M  V30 15 C -0.428741 4.069431 1.214617 0
M  V30 16 C -1.214416 4.421490 2.300252 0
M  V30 17 C -2.558499 4.099968 2.403459 0
M  V30 18 C -3.123648 3.386783 1.349414 0
M  V30 19 C -2.378894 3.013192 0.244624 0
M  V30 20 C -0.336831 0.454810 -1.133479 0
M  V30 21 C 0.201792 -0.814553 -0.922508 0
M  V30 22 C 1.447049 -0.831750 -0.354559 0
M  V30 23 H 1.009511 -4.651081 3.883057 0
M  V30 24 H 2.344398 -5.672483 3.109247 0
M  V30 25 H 1.100997 -6.399930 4.154515 0
M  V30 26 H 0.311668 -6.988091 2.102578 0
M  V30 27 H -0.585708 -5.412557 2.320501 0
M  V30 28 H 0.508269 -5.745284 0.038428 0
M  V30 29 H 2.062574 -5.923673 0.888755 0
M  V30 30 H 2.229333 -3.982222 -1.011887 0
M  V30 31 H 4.131255 0.405427 0.904706 0
M  V30 32 H 2.179949 2.372501 0.068062 0
M  V30 33 H -0.943489 2.943008 -1.862117 0
M  V30 34 H 0.601469 3.635604 -1.179635 0
M  V30 35 H 0.610631 4.322956 1.144106 0
M  V30 36 H -0.753840 4.977411 3.111232 0
M  V30 37 H -3.125094 4.399301 3.272657 0
M  V30 38 H -4.182699 3.131146 1.426377 0
M  V30 39 H -2.876625 2.452747 -0.555212 0
M  V30 40 H -1.335861 0.527342 -1.587513 0
M  V30 41 H -0.325855 -1.710214 -1.187983 0
M  V30 END ATOM
M  V30 BEGIN BOND
M  V30 1 1 1 2
M  V30 2 1 2 3
M  V30 3 1 3 4
M  V30 4 2 4 5
M  V30 5 1 4 6
M  V30 6 1 6 7
M  V30 7 2 7 8
M  V30 8 1 8 9
M  V30 9 1 9 10
M  V30 10 2 10 11
M  V30 11 1 11 12
M  V30 12 1 12 13
M  V30 13 1 13 14
M  V30 14 2 14 15
M  V30 15 1 15 16
M  V30 16 2 16 17
M  V30 17 1 17 18
M  V30 18 2 18 19
M  V30 19 2 12 20
M  V30 20 1 20 21
M  V30 21 2 21 22
M  V30 22 1 22 7
M  V30 23 1 22 10
M  V30 24 1 19 14
M  V30 25 1 1 23
M  V30 26 1 1 24
M  V30 27 1 1 25
M  V30 28 1 2 26
M  V30 29 1 2 27
M  V30 30 1 3 28
M  V30 31 1 3 29
M  V30 32 1 6 30
M  V30 33 1 9 31
M  V30 34 1 11 32
M  V30 35 1 13 33
M  V30 36 1 13 34
M  V30 37 1 15 35
M  V30 38 1 16 36
M  V30 39 1 17 37
M  V30 40 1 18 38
M  V30 41 1 19 39
M  V30 42 1 20 40
M  V30 43 1 21 41
M  V30 END BOND
M  V30 END CTAB
M  END
>  <Dataset>  (550) 
ChEMBL_Kinases

>  <Ligand_Instance>  (550) 
nan

>  <PDB_ID>  (550) 
nan

>  <Standardized_SMILES>  (550) 
CCCC(=O)Nc1n[nH]c2cc(Cc3ccccc3)ccc12

>  <Name>  (550) 
nan

>  <Pocket>  (550) 
nan

>  <ATP_Site>  (550) 
nan

>  <Peripheral>  (550) 
nan

>  <Num_H_Atoms_ProtBoundConf>  (550) 
nan

>  <Num_Resolved_Atoms>  (550) 
nan

>  <Num_Not_Resolved_Atoms>  (550) 
nan

$$$$
CHEMBL1077258
     RDKit          3D

  0  0  0  0  0  0  0  0  0  0999 V3000
M  V30 BEGIN CTAB
M  V30 COUNTS 42 44 0 0 0
M  V30 BEGIN ATOM
M  V30 1 C 1.728862 -7.393913 -1.650056 0
M  V30 2 C 3.022135 -7.067640 -0.968955 0
M  V30 3 C 2.818553 -6.083133 0.162389 0
M  V30 4 C 2.229871 -4.800637 -0.362865 0
M  V30 5 O 2.026028 -4.786258 -1.613570 0
M  V30 6 N 1.948998 -3.730318 0.527873 0
M  V30 7 C 1.389191 -2.542676 -0.048917 0
M  V30 8 N 1.124856 -2.399679 -1.360687 0
M  V30 9 N 0.612024 -1.210636 -1.631920 0
M  V30 10 C 0.533545 -0.544685 -0.466603 0
M  V30 11 C 0.082486 0.721291 -0.157335 0
M  V30 12 C 0.134622 1.125538 1.178684 0
M  V30 13 C -0.360698 2.487101 1.449356 0
M  V30 14 C 0.152501 3.275634 2.476961 0
M  V30 15 C -0.327674 4.551246 2.713685 0
M  V30 16 C -1.343983 5.061537 1.911722 0
M  V30 17 S -1.878038 6.737858 2.328500 0
M  V30 18 C -3.232347 6.587645 3.552614 0
M  V30 19 C -1.871744 4.300533 0.884764 0
M  V30 20 C -1.368182 3.032080 0.677632 0
M  V30 21 C 0.624608 0.284703 2.174098 0
M  V30 22 C 1.078321 -0.984303 1.873491 0
M  V30 23 C 1.014016 -1.354560 0.545616 0
M  V30 24 H 1.598328 -8.504275 -1.750185 0
M  V30 25 H 0.831835 -6.958141 -1.185858 0
M  V30 26 H 1.756661 -7.015823 -2.695529 0
M  V30 27 H 3.758346 -6.596458 -1.664128 0
M  V30 28 H 3.480392 -7.985107 -0.557767 0
M  V30 29 H 2.141183 -6.533871 0.918847 0
M  V30 30 H 3.748448 -5.821026 0.669292 0
M  V30 31 H 2.136889 -3.795149 1.551921 0
M  V30 32 H 0.332724 -0.886321 -2.585688 0
M  V30 33 H -0.281221 1.324337 -0.947830 0
M  V30 34 H 0.940366 2.844158 3.077409 0
M  V30 35 H 0.135022 5.082191 3.533297 0
M  V30 36 H -2.797001 6.049815 4.444362 0
M  V30 37 H -3.640163 7.553454 3.846213 0
M  V30 38 H -4.039308 5.930253 3.186421 0
M  V30 39 H -2.658700 4.759563 0.302182 0
M  V30 40 H -1.813019 2.472087 -0.139321 0
M  V30 41 H 0.640492 0.656403 3.199487 0
M  V30 42 H 1.455667 -1.635366 2.632115 0
M  V30 END ATOM
M  V30 BEGIN BOND
M  V30 1 1 1 2
M  V30 2 1 2 3
M  V30 3 1 3 4
M  V30 4 2 4 5
M  V30 5 1 4 6
M  V30 6 1 6 7
M  V30 7 2 7 8
M  V30 8 1 8 9
M  V30 9 1 9 10
M  V30 10 2 10 11
M  V30 11 1 11 12
M  V30 12 1 12 13
M  V30 13 2 13 14
M  V30 14 1 14 15
M  V30 15 2 15 16
M  V30 16 1 16 17
M  V30 17 1 17 18
M  V30 18 1 16 19
M  V30 19 2 19 20
M  V30 20 2 12 21
M  V30 21 1 21 22
M  V30 22 2 22 23
M  V30 23 1 23 7
M  V30 24 1 23 10
M  V30 25 1 20 13
M  V30 26 1 1 24
M  V30 27 1 1 25
M  V30 28 1 1 26
M  V30 29 1 2 27
M  V30 30 1 2 28
M  V30 31 1 3 29
M  V30 32 1 3 30
M  V30 33 1 6 31
M  V30 34 1 9 32
M  V30 35 1 11 33
M  V30 36 1 14 34
M  V30 37 1 15 35
M  V30 38 1 18 36
M  V30 39 1 18 37
M  V30 40 1 18 38
M  V30 41 1 19 39
M  V30 42 1 20 40
M  V30 43 1 21 41
M  V30 44 1 22 42
M  V30 END BOND
M  V30 END CTAB
M  END
>  <Dataset>  (551) 
ChEMBL_Kinases

>  <Ligand_Instance>  (551) 
nan

>  <PDB_ID>  (551) 
nan

>  <Standardized_SMILES>  (551) 
CCCC(=O)Nc1n[nH]c2cc(-c3ccc(SC)cc3)ccc12

>  <Name>  (551) 
nan

>  <Pocket>  (551) 
nan

>  <ATP_Site>  (551) 
nan

>  <Peripheral>  (551) 
nan

>  <Num_H_Atoms_ProtBoundConf>  (551) 
nan

>  <Num_Resolved_Atoms>  (551) 
nan

>  <Num_Not_Resolved_Atoms>  (551) 
nan

$$$$
CHEMBL95002
     RDKit          3D

  0  0  0  0  0  0  0  0  0  0999 V3000
M  V30 BEGIN CTAB
M  V30 COUNTS 65 69 0 0 0
M  V30 BEGIN ATOM
M  V30 1 C 0.618840 -1.312625 3.795457 0
M  V30 2 O 1.618978 -1.216757 2.801677 0
M  V30 3 C 1.562513 -1.884691 1.610086 0
M  V30 4 C 0.466564 -2.691387 1.379412 0
M  V30 5 C 0.323897 -3.403364 0.206045 0
M  V30 6 C -0.736895 -4.223527 -0.090955 0
M  V30 7 N -1.748349 -4.329217 0.903927 0
M  V30 8 C -2.832854 -3.410323 0.854249 0
M  V30 9 C -2.851210 -2.471106 -0.151469 0
M  V30 10 C -3.859576 -1.539610 -0.280385 0
M  V30 11 C -4.911590 -1.509616 0.609745 0
M  V30 12 O -5.939242 -0.598460 0.519774 0
M  V30 13 C -5.848710 0.625194 1.168214 0
M  V30 14 C -5.268721 1.643494 0.402681 0
M  V30 15 C -5.088965 2.929749 0.865384 0
M  V30 16 C -5.500042 3.230984 2.145825 0
M  V30 17 C -6.081447 2.233301 2.930381 0
M  V30 18 C -6.249044 0.955288 2.442060 0
M  V30 19 C -4.872793 -2.466511 1.616940 0
M  V30 20 C -3.871688 -3.406229 1.761160 0
M  V30 21 C -0.859874 -4.924130 -1.266163 0
M  V30 22 C -1.989151 -5.753530 -1.500951 0
M  V30 23 N -2.899869 -6.441839 -1.701353 0
M  V30 24 C 0.168261 -4.763127 -2.172521 0
M  V30 25 N 1.241084 -3.957397 -1.916488 0
M  V30 26 C 1.310389 -3.296289 -0.752511 0
M  V30 27 C 2.388219 -2.481302 -0.484686 0
M  V30 28 C 2.584449 -1.747638 0.666158 0
M  V30 29 O 3.601256 -0.926669 1.014056 0
M  V30 30 C 4.750302 -0.537494 0.371348 0
M  V30 31 C 4.607320 0.190910 -0.919694 0
M  V30 32 N 3.857199 1.425187 -0.751158 0
M  V30 33 C 3.749417 2.083947 -2.022628 0
M  V30 34 C 3.361884 3.521330 -1.949717 0
M  V30 35 O 3.162502 3.971406 -0.646603 0
M  V30 36 C 4.347373 3.703770 0.038288 0
M  V30 37 C 4.377697 2.220111 0.299610 0
M  V30 38 H -0.229236 -0.618045 3.619894 0
M  V30 39 H 0.292870 -2.357168 3.926616 0
M  V30 40 H 1.081713 -1.012738 4.777222 0
M  V30 41 H -0.358493 -2.843601 2.061823 0
M  V30 42 H -1.589157 -5.083645 1.581918 0
M  V30 43 H -2.061028 -2.420897 -0.899240 0
M  V30 44 H -3.877232 -0.797452 -1.072472 0
M  V30 45 H -4.920507 1.484808 -0.612857 0
M  V30 46 H -4.638536 3.703274 0.258897 0
M  V30 47 H -5.372609 4.232851 2.539137 0
M  V30 48 H -6.410399 2.450080 3.938248 0
M  V30 49 H -6.690572 0.134303 2.993439 0
M  V30 50 H -5.713813 -2.437055 2.323141 0
M  V30 51 H -3.864735 -4.136016 2.549221 0
M  V30 52 H 0.084616 -5.312663 -3.109129 0
M  V30 53 H 3.158976 -2.402206 -1.228940 0
M  V30 54 H 5.340353 -1.473085 0.130429 0
M  V30 55 H 5.383030 0.003471 1.110781 0
M  V30 56 H 5.641165 0.513389 -1.249258 0
M  V30 57 H 4.198426 -0.354381 -1.758490 0
M  V30 58 H 4.759400 2.028878 -2.486283 0
M  V30 59 H 3.071995 1.539749 -2.711722 0
M  V30 60 H 2.381712 3.669635 -2.463119 0
M  V30 61 H 4.059435 4.217946 -2.434838 0
M  V30 62 H 4.402747 4.209615 1.020370 0
M  V30 63 H 5.183722 4.005692 -0.627592 0
M  V30 64 H 3.842198 2.038642 1.245012 0
M  V30 65 H 5.474767 1.966981 0.387388 0
M  V30 END ATOM
M  V30 BEGIN BOND
M  V30 1 1 1 2
M  V30 2 1 2 3
M  V30 3 2 3 4
M  V30 4 1 4 5
M  V30 5 2 5 6
M  V30 6 1 6 7
M  V30 7 1 7 8
M  V30 8 2 8 9
M  V30 9 1 9 10
M  V30 10 2 10 11
M  V30 11 1 11 12
M  V30 12 1 12 13
M  V30 13 2 13 14
M  V30 14 1 14 15
M  V30 15 2 15 16
M  V30 16 1 16 17
M  V30 17 2 17 18
M  V30 18 1 11 19
M  V30 19 2 19 20
M  V30 20 1 6 21
M  V30 21 1 21 22
M  V30 22 3 22 23
M  V30 23 2 21 24
M  V30 24 1 24 25
M  V30 25 2 25 26
M  V30 26 1 26 27
M  V30 27 2 27 28
M  V30 28 1 28 29
M  V30 29 1 29 30
M  V30 30 1 30 31
M  V30 31 1 31 32
M  V30 32 1 32 33
M  V30 33 1 33 34
M  V30 34 1 34 35
M  V30 35 1 35 36
M  V30 36 1 36 37
M  V30 37 1 28 3
M  V30 38 1 37 32
M  V30 39 1 26 5
M  V30 40 1 20 8
M  V30 41 1 18 13
M  V30 42 1 1 38
M  V30 43 1 1 39
M  V30 44 1 1 40
M  V30 45 1 4 41
M  V30 46 1 7 42
M  V30 47 1 9 43
M  V30 48 1 10 44
M  V30 49 1 14 45
M  V30 50 1 15 46
M  V30 51 1 16 47
M  V30 52 1 17 48
M  V30 53 1 18 49
M  V30 54 1 19 50
M  V30 55 1 20 51
M  V30 56 1 24 52
M  V30 57 1 27 53
M  V30 58 1 30 54
M  V30 59 1 30 55
M  V30 60 1 31 56
M  V30 61 1 31 57
M  V30 62 1 33 58
M  V30 63 1 33 59
M  V30 64 1 34 60
M  V30 65 1 34 61
M  V30 66 1 36 62
M  V30 67 1 36 63
M  V30 68 1 37 64
M  V30 69 1 37 65
M  V30 END BOND
M  V30 END CTAB
M  END
>  <Dataset>  (552) 
ChEMBL_Kinases

>  <Ligand_Instance>  (552) 
nan

>  <PDB_ID>  (552) 
nan

>  <Standardized_SMILES>  (552) 
COc1cc2c(Nc3ccc(Oc4ccccc4)cc3)c(C#N)cnc2cc1OCCN1CCOCC1

>  <Name>  (552) 
nan

>  <Pocket>  (552) 
nan

>  <ATP_Site>  (552) 
nan

>  <Peripheral>  (552) 
nan

>  <Num_H_Atoms_ProtBoundConf>  (552) 
nan

>  <Num_Resolved_Atoms>  (552) 
nan

>  <Num_Not_Resolved_Atoms>  (552) 
nan

$$$$
CHEMBL106120
     RDKit          3D

  0  0  0  0  0  0  0  0  0  0999 V3000
M  V30 BEGIN CTAB
M  V30 COUNTS 55 58 0 0 0
M  V30 BEGIN ATOM
M  V30 1 C 2.516045 -4.248125 2.039317 0
M  V30 2 O 2.241624 -2.880050 1.881824 0
M  V30 3 C 3.015809 -1.978590 1.205118 0
M  V30 4 C 4.207136 -2.344914 0.576667 0
M  V30 5 C 4.931047 -1.373556 -0.086357 0
M  V30 6 N 6.105255 -1.438563 -0.775712 0
M  V30 7 C 6.407829 -0.206959 -1.247368 0
M  V30 8 C 5.418798 0.701625 -0.867809 0
M  V30 9 C 4.517671 -0.058601 -0.147992 0
M  V30 10 C 3.326816 0.316217 0.478181 0
M  V30 11 C 2.588817 -0.663816 1.151686 0
M  V30 12 C 1.367211 -0.156119 1.764883 0
M  V30 13 O 1.371175 0.287306 2.957189 0
M  V30 14 N 0.092118 -0.090624 1.158718 0
M  V30 15 C -0.983900 0.447145 1.941841 0
M  V30 16 C -1.873583 1.373824 1.154603 0 CFG=1
M  V30 17 C -1.289436 2.793518 1.159553 0
M  V30 18 N -2.114820 1.011336 -0.168517 0
M  V30 19 C -3.431671 0.827214 -0.630356 0
M  V30 20 C -4.230393 -0.211614 0.033696 0
M  V30 21 C -5.065148 -0.096772 1.123989 0
M  V30 22 C -5.749373 -1.180535 1.633280 0
M  V30 23 C -5.618199 -2.435620 1.058095 0
M  V30 24 C -4.784082 -2.564421 -0.036094 0
M  V30 25 C -4.105469 -1.470502 -0.534912 0
M  V30 26 C -1.078149 0.398472 -0.912392 0
M  V30 27 C -0.173275 -0.531767 -0.188315 0 CFG=2
M  V30 28 C -0.716626 -1.943507 -0.237414 0
M  V30 29 H 1.505069 -4.750195 2.076013 0
M  V30 30 H 3.161367 -4.690797 1.274974 0
M  V30 31 H 2.982874 -4.463501 3.043575 0
M  V30 32 H 4.558214 -3.363881 0.606055 0
M  V30 33 H 6.708303 -2.273836 -0.940889 0
M  V30 34 H 7.293893 0.052500 -1.840329 0
M  V30 35 H 5.421738 1.753300 -1.117283 0
M  V30 36 H 3.030406 1.347915 0.413093 0
M  V30 37 H -1.598258 -0.408243 2.324968 0
M  V30 38 H -0.626543 1.004422 2.822923 0
M  V30 39 H -2.823273 1.471773 1.717273 0
M  V30 40 H -2.096676 3.553144 1.246682 0
M  V30 41 H -0.826800 3.004403 0.154201 0
M  V30 42 H -0.592508 2.947047 1.999628 0
M  V30 43 H -3.403699 0.706312 -1.737073 0
M  V30 44 H -4.003318 1.790490 -0.479531 0
M  V30 45 H -5.134336 0.898999 1.533186 0
M  V30 46 H -6.369879 -0.927885 2.498506 0
M  V30 47 H -6.214457 -3.168499 1.570833 0
M  V30 48 H -4.741639 -3.572220 -0.418679 0
M  V30 49 H -3.500440 -1.735253 -1.384435 0
M  V30 50 H -1.540727 -0.171974 -1.760430 0
M  V30 51 H -0.503797 1.217764 -1.432442 0
M  V30 52 H 0.785911 -0.571118 -0.783063 0
M  V30 53 H 0.148338 -2.657943 -0.126775 0
M  V30 54 H -1.431983 -2.099325 0.597596 0
M  V30 55 H -1.135928 -2.116342 -1.236730 0
M  V30 END ATOM
M  V30 BEGIN BOND
M  V30 1 1 1 2
M  V30 2 1 2 3
M  V30 3 2 3 4
M  V30 4 1 4 5
M  V30 5 1 5 6
M  V30 6 1 6 7
M  V30 7 2 7 8
M  V30 8 1 8 9
M  V30 9 1 9 10
M  V30 10 2 10 11
M  V30 11 1 11 12
M  V30 12 2 12 13
M  V30 13 1 12 14
M  V30 14 1 14 15
M  V30 15 1 15 16
M  V30 16 1 16 17
M  V30 17 1 16 18
M  V30 18 1 18 19
M  V30 19 1 19 20
M  V30 20 2 20 21
M  V30 21 1 21 22
M  V30 22 2 22 23
M  V30 23 1 23 24
M  V30 24 2 24 25
M  V30 25 1 18 26
M  V30 26 1 26 27
M  V30 27 1 27 28
M  V30 28 1 11 3
M  V30 29 1 27 14
M  V30 30 2 9 5
M  V30 31 1 25 20
M  V30 32 1 1 29
M  V30 33 1 1 30
M  V30 34 1 1 31
M  V30 35 1 4 32
M  V30 36 1 6 33
M  V30 37 1 7 34
M  V30 38 1 8 35
M  V30 39 1 10 36
M  V30 40 1 15 37
M  V30 41 1 15 38
M  V30 42 1 16 39 CFG=1
M  V30 43 1 17 40
M  V30 44 1 17 41
M  V30 45 1 17 42
M  V30 46 1 19 43
M  V30 47 1 19 44
M  V30 48 1 21 45
M  V30 49 1 22 46
M  V30 50 1 23 47
M  V30 51 1 24 48
M  V30 52 1 25 49
M  V30 53 1 26 50
M  V30 54 1 26 51
M  V30 55 1 27 52 CFG=3
M  V30 56 1 28 53
M  V30 57 1 28 54
M  V30 58 1 28 55
M  V30 END BOND
M  V30 END CTAB
M  END
>  <Dataset>  (553) 
ChEMBL_Kinases

>  <Ligand_Instance>  (553) 
nan

>  <PDB_ID>  (553) 
nan

>  <Standardized_SMILES>  (553) 
COc1cc2[nH]ccc2cc1C(=O)N1C[C@@H](C)N(Cc2ccccc2)C[C@@H]1C

>  <Name>  (553) 
nan

>  <Pocket>  (553) 
nan

>  <ATP_Site>  (553) 
nan

>  <Peripheral>  (553) 
nan

>  <Num_H_Atoms_ProtBoundConf>  (553) 
nan

>  <Num_Resolved_Atoms>  (553) 
nan

>  <Num_Not_Resolved_Atoms>  (553) 
nan

$$$$
CHEMBL106265
     RDKit          3D

  0  0  0  0  0  0  0  0  0  0999 V3000
M  V30 BEGIN CTAB
M  V30 COUNTS 34 36 0 0 0
M  V30 BEGIN ATOM
M  V30 1 C -3.039243 1.486974 3.629965 0
M  V30 2 N -1.995690 1.201420 2.636159 0
M  V30 3 C -1.765900 -0.053694 2.205973 0
M  V30 4 O -2.442051 -1.023175 2.645225 0
M  V30 5 C -0.758524 -0.169357 1.274990 0
M  V30 6 N -0.272036 -1.275055 0.639311 0
M  V30 7 C 0.719648 -0.905158 -0.191406 0
M  V30 8 C 1.497820 -1.850672 -1.062273 0
M  V30 9 C 0.518576 -2.600633 -1.943156 0
M  V30 10 C 0.416320 -3.992718 -1.353188 0
M  V30 11 C 1.725003 -4.241562 -0.645460 0
M  V30 12 C 2.209293 -2.887174 -0.246453 0
M  V30 13 N 0.843115 0.429272 -0.066458 0
M  V30 14 C -0.045005 0.907232 0.820947 0
M  V30 15 N -0.311546 2.136187 1.279710 0
M  V30 16 C 0.421272 3.283850 0.820831 0
M  V30 17 C -1.295744 2.268700 2.192737 0
M  V30 18 O -1.525428 3.432058 2.606566 0
M  V30 19 H -3.728851 2.239799 3.200172 0
M  V30 20 H -2.632391 1.761847 4.609548 0
M  V30 21 H -3.685017 0.571945 3.775043 0
M  V30 22 H 2.245357 -1.273873 -1.635581 0
M  V30 23 H 0.899524 -2.612166 -2.981896 0
M  V30 24 H -0.489535 -2.159635 -1.933629 0
M  V30 25 H -0.408645 -4.042521 -0.610433 0
M  V30 26 H 0.205604 -4.745561 -2.135310 0
M  V30 27 H 1.499154 -4.886898 0.250902 0
M  V30 28 H 2.438601 -4.836718 -1.252505 0
M  V30 29 H 3.316386 -2.879392 -0.422201 0
M  V30 30 H 2.082719 -2.735312 0.852326 0
M  V30 31 H 1.549402 1.000053 -0.603621 0
M  V30 32 H 0.837997 3.164172 -0.194027 0
M  V30 33 H -0.258241 4.163503 0.758051 0
M  V30 34 H 1.226451 3.580780 1.537386 0
M  V30 END ATOM
M  V30 BEGIN BOND
M  V30 1 1 1 2
M  V30 2 1 2 3
M  V30 3 2 3 4
M  V30 4 1 3 5
M  V30 5 1 5 6
M  V30 6 2 6 7
M  V30 7 1 7 8
M  V30 8 1 8 9
M  V30 9 1 9 10
M  V30 10 1 10 11
M  V30 11 1 11 12
M  V30 12 1 7 13
M  V30 13 1 13 14
M  V30 14 1 14 15
M  V30 15 1 15 16
M  V30 16 1 15 17
M  V30 17 2 17 18
M  V30 18 1 17 2
M  V30 19 2 14 5
M  V30 20 1 12 8
M  V30 21 1 1 19
M  V30 22 1 1 20
M  V30 23 1 1 21
M  V30 24 1 8 22
M  V30 25 1 9 23
M  V30 26 1 9 24
M  V30 27 1 10 25
M  V30 28 1 10 26
M  V30 29 1 11 27
M  V30 30 1 11 28
M  V30 31 1 12 29
M  V30 32 1 12 30
M  V30 33 1 13 31
M  V30 34 1 16 32
M  V30 35 1 16 33
M  V30 36 1 16 34
M  V30 END BOND
M  V30 END CTAB
M  END
>  <Dataset>  (554) 
ChEMBL_Kinases

>  <Ligand_Instance>  (554) 
nan

>  <PDB_ID>  (554) 
nan

>  <Standardized_SMILES>  (554) 
Cn1c(=O)c2nc(C3CCCC3)[nH]c2n(C)c1=O

>  <Name>  (554) 
8-CYCLOPENTYLTHEOPHYLLINE

>  <Pocket>  (554) 
nan

>  <ATP_Site>  (554) 
nan

>  <Peripheral>  (554) 
nan

>  <Num_H_Atoms_ProtBoundConf>  (554) 
nan

>  <Num_Resolved_Atoms>  (554) 
nan

>  <Num_Not_Resolved_Atoms>  (554) 
nan

$$$$
CHEMBL106328
     RDKit          3D

  0  0  0  0  0  0  0  0  0  0999 V3000
M  V30 BEGIN CTAB
M  V30 COUNTS 49 52 0 0 0
M  V30 BEGIN ATOM
M  V30 1 C 2.424449 -3.430934 -0.131666 0
M  V30 2 O 2.367304 -2.043156 -0.033232 0
M  V30 3 C 2.409379 -1.143996 -1.090461 0
M  V30 4 C 2.514757 -1.410131 -2.441676 0
M  V30 5 C 2.541808 -0.381973 -3.352345 0
M  V30 6 N 2.641496 -0.511641 -4.693327 0
M  V30 7 C 2.632634 0.736726 -5.210110 0
M  V30 8 C 2.526605 1.656254 -4.185898 0
M  V30 9 C 2.468322 0.951480 -3.000701 0
M  V30 10 C 2.361918 1.213556 -1.633487 0
M  V30 11 C 2.332758 0.198322 -0.699614 0
M  V30 12 C 2.217412 0.589307 0.722375 0
M  V30 13 O 3.011336 0.866117 1.672164 0
M  V30 14 N 0.851679 0.685000 1.157536 0
M  V30 15 C 0.535834 1.061250 2.538064 0
M  V30 16 C -0.226336 -0.064354 3.147670 0
M  V30 17 N -0.572170 -1.104874 2.231042 0
M  V30 18 C -1.240019 -2.216196 2.813927 0
M  V30 19 C -2.509716 -1.743614 3.434602 0
M  V30 20 C -2.650857 -1.306852 4.740253 0
M  V30 21 C -3.870535 -0.887137 5.227296 0
M  V30 22 C -5.005216 -0.880301 4.445765 0
M  V30 23 C -4.881504 -1.313592 3.139008 0
M  V30 24 C -3.653363 -1.730044 2.668486 0
M  V30 25 C -1.151457 -0.643182 1.001013 0
M  V30 26 C -0.339560 0.434544 0.331760 0
M  V30 27 H 2.153356 -3.745321 -1.159487 0
M  V30 28 H 3.398444 -3.876971 0.146153 0
M  V30 29 H 1.592756 -3.835675 0.515698 0
M  V30 30 H 2.569865 -2.454338 -2.681977 0
M  V30 31 H 2.714831 -1.349830 -5.298012 0
M  V30 32 H 2.697495 1.005955 -6.264595 0
M  V30 33 H 2.488411 2.737193 -4.201968 0
M  V30 34 H 2.304346 2.250064 -1.354112 0
M  V30 35 H -0.133063 1.942943 2.464831 0
M  V30 36 H 1.456722 1.297771 3.106913 0
M  V30 37 H 0.375861 -0.485518 3.978327 0
M  V30 38 H -1.171721 0.303334 3.606017 0
M  V30 39 H -0.610831 -2.597233 3.655956 0
M  V30 40 H -1.517474 -3.002551 2.106141 0
M  V30 41 H -1.752925 -1.314408 5.351793 0
M  V30 42 H -3.961663 -0.549529 6.249595 0
M  V30 43 H -5.947615 -0.545626 4.855437 0
M  V30 44 H -5.795630 -1.291708 2.561963 0
M  V30 45 H -3.711018 -2.040275 1.630012 0
M  V30 46 H -2.161600 -0.257150 1.208943 0
M  V30 47 H -1.204921 -1.503673 0.304333 0
M  V30 48 H -0.893215 1.402133 0.357316 0
M  V30 49 H -0.034470 0.222382 -0.692120 0
M  V30 END ATOM
M  V30 BEGIN BOND
M  V30 1 1 1 2
M  V30 2 1 2 3
M  V30 3 2 3 4
M  V30 4 1 4 5
M  V30 5 1 5 6
M  V30 6 1 6 7
M  V30 7 2 7 8
M  V30 8 1 8 9
M  V30 9 1 9 10
M  V30 10 2 10 11
M  V30 11 1 11 12
M  V30 12 2 12 13
M  V30 13 1 12 14
M  V30 14 1 14 15
M  V30 15 1 15 16
M  V30 16 1 16 17
M  V30 17 1 17 18
M  V30 18 1 18 19
M  V30 19 2 19 20
M  V30 20 1 20 21
M  V30 21 2 21 22
M  V30 22 1 22 23
M  V30 23 2 23 24
M  V30 24 1 17 25
M  V30 25 1 25 26
M  V30 26 1 11 3
M  V30 27 1 26 14
M  V30 28 2 9 5
M  V30 29 1 24 19
M  V30 30 1 1 27
M  V30 31 1 1 28
M  V30 32 1 1 29
M  V30 33 1 4 30
M  V30 34 1 6 31
M  V30 35 1 7 32
M  V30 36 1 8 33
M  V30 37 1 10 34
M  V30 38 1 15 35
M  V30 39 1 15 36
M  V30 40 1 16 37
M  V30 41 1 16 38
M  V30 42 1 18 39
M  V30 43 1 18 40
M  V30 44 1 20 41
M  V30 45 1 21 42
M  V30 46 1 22 43
M  V30 47 1 23 44
M  V30 48 1 24 45
M  V30 49 1 25 46
M  V30 50 1 25 47
M  V30 51 1 26 48
M  V30 52 1 26 49
M  V30 END BOND
M  V30 END CTAB
M  END
>  <Dataset>  (555) 
ChEMBL_Kinases

>  <Ligand_Instance>  (555) 
nan

>  <PDB_ID>  (555) 
nan

>  <Standardized_SMILES>  (555) 
COc1cc2[nH]ccc2cc1C(=O)N1CCN(Cc2ccccc2)CC1

>  <Name>  (555) 
nan

>  <Pocket>  (555) 
nan

>  <ATP_Site>  (555) 
nan

>  <Peripheral>  (555) 
nan

>  <Num_H_Atoms_ProtBoundConf>  (555) 
nan

>  <Num_Resolved_Atoms>  (555) 
nan

>  <Num_Not_Resolved_Atoms>  (555) 
nan

$$$$
CHEMBL106772
     RDKit          3D

  0  0  0  0  0  0  0  0  0  0999 V3000
M  V30 BEGIN CTAB
M  V30 COUNTS 54 58 0 0 0
M  V30 BEGIN ATOM
M  V30 1 C 3.767654 -0.443620 -0.557955 0
M  V30 2 N 3.223641 0.813748 -0.047370 0
M  V30 3 C 4.069604 1.781192 0.409394 0
M  V30 4 O 5.310984 1.614500 0.402619 0
M  V30 5 C 3.480342 2.948798 0.877394 0
M  V30 6 C 4.374397 3.994030 1.363401 0
M  V30 7 C 4.876041 4.229617 2.624356 0
M  V30 8 Cl 4.336120 3.067503 3.807192 0
M  V30 9 C 5.714533 5.295990 2.854326 0
M  V30 10 C 6.085785 6.168124 1.837526 0
M  V30 11 C 5.576635 5.929015 0.558025 0
M  V30 12 C 4.733355 4.857374 0.324324 0
M  V30 13 Cl 4.195542 4.720433 -1.352262 0
M  V30 14 C 2.119232 3.176096 0.904258 0
M  V30 15 C 1.294117 2.151347 0.423548 0
M  V30 16 C -0.069637 2.357010 0.434526 0
M  V30 17 N -0.835951 1.343807 -0.044697 0
M  V30 18 C -0.272841 0.188950 -0.508937 0
M  V30 19 N -1.208470 -0.760026 -0.984183 0
M  V30 20 C -2.046295 -1.806001 -0.533872 0
M  V30 21 C -2.112767 -2.141227 0.794135 0
M  V30 22 C -2.952955 -3.161780 1.184872 0
M  V30 23 C -3.710985 -3.823735 0.221665 0
M  V30 24 N -4.597782 -4.883759 0.570653 0
M  V30 25 C -5.490170 -5.611782 -0.311332 0
M  V30 26 C -5.269188 -7.108597 -0.258547 0
M  V30 27 O -5.176206 -7.579597 1.039889 0
M  V30 28 C -4.238009 -6.878329 1.792717 0
M  V30 29 C -4.775079 -5.440901 1.897502 0
M  V30 30 C -3.613198 -3.455214 -1.100229 0
M  V30 31 C -2.783744 -2.436389 -1.544657 0
M  V30 32 N 1.062422 0.027674 -0.501815 0
M  V30 33 C 1.890694 0.993029 -0.039967 0
M  V30 34 H 4.760618 -0.242152 -1.044612 0
M  V30 35 H 3.101078 -0.702444 -1.427695 0
M  V30 36 H 3.790038 -1.231458 0.194561 0
M  V30 37 H 6.062020 5.406867 3.873367 0
M  V30 38 H 6.752499 7.004230 2.053732 0
M  V30 39 H 5.893486 6.633023 -0.191965 0
M  V30 40 H 1.743856 4.130019 1.292036 0
M  V30 41 H -0.508755 3.256749 0.795804 0
M  V30 42 H -1.138779 -0.458078 -1.986926 0
M  V30 43 H -1.516644 -1.618233 1.534350 0
M  V30 44 H -2.992385 -3.411389 2.230888 0
M  V30 45 H -6.536557 -5.469057 0.098750 0
M  V30 46 H -5.491595 -5.291122 -1.348563 0
M  V30 47 H -6.175139 -7.559132 -0.716171 0
M  V30 48 H -4.422615 -7.434101 -0.896686 0
M  V30 49 H -3.250960 -6.780001 1.279349 0
M  V30 50 H -4.182417 -7.368771 2.774086 0
M  V30 51 H -4.236277 -4.892904 2.678496 0
M  V30 52 H -5.846509 -5.555689 2.188295 0
M  V30 53 H -4.168220 -3.920907 -1.924828 0
M  V30 54 H -2.703604 -2.146184 -2.584067 0
M  V30 END ATOM
M  V30 BEGIN BOND
M  V30 1 1 1 2
M  V30 2 1 2 3
M  V30 3 2 3 4
M  V30 4 1 3 5
M  V30 5 1 5 6
M  V30 6 2 6 7
M  V30 7 1 7 8
M  V30 8 1 7 9
M  V30 9 2 9 10
M  V30 10 1 10 11
M  V30 11 2 11 12
M  V30 12 1 12 13
M  V30 13 2 5 14
M  V30 14 1 14 15
M  V30 15 2 15 16
M  V30 16 1 16 17
M  V30 17 2 17 18
M  V30 18 1 18 19
M  V30 19 1 19 20
M  V30 20 2 20 21
M  V30 21 1 21 22
M  V30 22 2 22 23
M  V30 23 1 23 24
M  V30 24 1 24 25
M  V30 25 1 25 26
M  V30 26 1 26 27
M  V30 27 1 27 28
M  V30 28 1 28 29
M  V30 29 1 23 30
M  V30 30 2 30 31
M  V30 31 1 18 32
M  V30 32 2 32 33
M  V30 33 1 33 2
M  V30 34 1 12 6
M  V30 35 1 33 15
M  V30 36 1 31 20
M  V30 37 1 29 24
M  V30 38 1 1 34
M  V30 39 1 1 35
M  V30 40 1 1 36
M  V30 41 1 9 37
M  V30 42 1 10 38
M  V30 43 1 11 39
M  V30 44 1 14 40
M  V30 45 1 16 41
M  V30 46 1 19 42
M  V30 47 1 21 43
M  V30 48 1 22 44
M  V30 49 1 25 45
M  V30 50 1 25 46
M  V30 51 1 26 47
M  V30 52 1 26 48
M  V30 53 1 28 49
M  V30 54 1 28 50
M  V30 55 1 29 51
M  V30 56 1 29 52
M  V30 57 1 30 53
M  V30 58 1 31 54
M  V30 END BOND
M  V30 END CTAB
M  END
>  <Dataset>  (556) 
ChEMBL_Kinases

>  <Ligand_Instance>  (556) 
nan

>  <PDB_ID>  (556) 
nan

>  <Standardized_SMILES>  (556) 
Cn1c(=O)c(-c2c(Cl)cccc2Cl)cc2cnc(Nc3ccc(N4CCOCC4)cc3)nc21

>  <Name>  (556) 
nan

>  <Pocket>  (556) 
nan

>  <ATP_Site>  (556) 
nan

>  <Peripheral>  (556) 
nan

>  <Num_H_Atoms_ProtBoundConf>  (556) 
nan

>  <Num_Resolved_Atoms>  (556) 
nan

>  <Num_Not_Resolved_Atoms>  (556) 
nan

$$$$
CHEMBL107
     RDKit          3D

  0  0  0  0  0  0  0  0  0  0999 V3000
M  V30 BEGIN CTAB
M  V30 COUNTS 54 56 0 0 0
M  V30 BEGIN ATOM
M  V30 1 C 3.055098 -3.893374 3.760041 0
M  V30 2 O 3.280142 -2.625650 3.173030 0
M  V30 3 C 2.204195 -2.046387 2.489375 0
M  V30 4 C 0.978081 -2.718182 2.410384 0
M  V30 5 C -0.074475 -2.171533 1.754071 0
M  V30 6 C 0.166210 -0.930889 1.189144 0
M  V30 7 C 1.321057 -0.172409 1.193223 0
M  V30 8 O 1.530363 1.077241 0.593398 0
M  V30 9 C 2.048673 1.136841 -0.746158 0
M  V30 10 C 2.372697 -0.792436 1.889656 0
M  V30 11 O 3.583828 -0.106552 1.955885 0
M  V30 12 C 3.789553 0.780903 3.050588 0
M  V30 13 C -0.864751 -0.127973 0.489132 0
M  V30 14 C -0.527317 1.188202 0.907527 0
M  V30 15 C -0.885722 2.329479 0.210386 0
M  V30 16 C -1.816290 2.453306 -0.786164 0
M  V30 17 O -2.075089 3.744624 -1.203410 0
M  V30 18 C -1.390122 4.815683 -0.599538 0
M  V30 19 C -2.551129 1.498065 -1.455700 0
M  V30 20 O -3.324858 1.863746 -2.385711 0
M  V30 21 C -2.605128 0.132599 -1.292360 0
M  V30 22 C -1.903439 -0.574768 -0.337904 0
M  V30 23 C -2.420797 -1.996237 -0.262587 0 CFG=1
M  V30 24 N -1.613343 -2.828798 -1.121736 0
M  V30 25 C -2.189873 -3.434392 -2.274496 0
M  V30 26 C -1.433729 -4.314338 -3.226639 0
M  V30 27 O -3.401386 -3.227161 -2.518950 0
M  V30 28 C -2.498016 -2.431701 1.154482 0
M  V30 29 C -1.280420 -3.030672 1.758418 0
M  V30 30 H 3.950054 -4.274411 4.280626 0
M  V30 31 H 2.189693 -3.835289 4.461337 0
M  V30 32 H 2.755112 -4.569818 2.937161 0
M  V30 33 H 0.896739 -3.676375 2.883715 0
M  V30 34 H 1.208146 0.844612 -1.404299 0
M  V30 35 H 2.366288 2.157928 -0.984718 0
M  V30 36 H 2.839885 0.396697 -0.898374 0
M  V30 37 H 3.166041 0.445357 3.917327 0
M  V30 38 H 3.462691 1.809973 2.818502 0
M  V30 39 H 4.850602 0.767506 3.402161 0
M  V30 40 H 0.034440 1.187131 1.874489 0
M  V30 41 H -0.322620 3.168491 0.553536 0
M  V30 42 H -1.525912 4.848085 0.516982 0
M  V30 43 H -0.278026 4.734149 -0.753148 0
M  V30 44 H -1.663616 5.796377 -1.038897 0
M  V30 45 H -3.189125 -0.541336 -1.875429 0
M  V30 46 H -3.443982 -1.972214 -0.690951 0
M  V30 47 H -0.602251 -3.016804 -0.939884 0
M  V30 48 H -1.810120 -4.107240 -4.255651 0
M  V30 49 H -1.482344 -5.377627 -2.964885 0
M  V30 50 H -0.379040 -3.951981 -3.236703 0
M  V30 51 H -3.339166 -3.125151 1.343314 0
M  V30 52 H -2.765695 -1.514534 1.757744 0
M  V30 53 H -0.999762 -3.940042 1.147559 0
M  V30 54 H -1.501084 -3.374171 2.789799 0
M  V30 END ATOM
M  V30 BEGIN BOND
M  V30 1 1 1 2
M  V30 2 1 2 3
M  V30 3 2 3 4
M  V30 4 1 4 5
M  V30 5 2 5 6
M  V30 6 1 6 7
M  V30 7 1 7 8
M  V30 8 1 8 9
M  V30 9 2 7 10
M  V30 10 1 10 11
M  V30 11 1 11 12
M  V30 12 1 6 13
M  V30 13 2 13 14
M  V30 14 1 14 15
M  V30 15 2 15 16
M  V30 16 1 16 17
M  V30 17 1 17 18
M  V30 18 1 16 19
M  V30 19 2 19 20
M  V30 20 1 19 21
M  V30 21 2 21 22
M  V30 22 1 22 23
M  V30 23 1 23 24
M  V30 24 1 24 25
M  V30 25 1 25 26
M  V30 26 2 25 27
M  V30 27 1 23 28
M  V30 28 1 28 29
M  V30 29 1 10 3
M  V30 30 1 22 13
M  V30 31 1 29 5
M  V30 32 1 1 30
M  V30 33 1 1 31
M  V30 34 1 1 32
M  V30 35 1 4 33
M  V30 36 1 9 34
M  V30 37 1 9 35
M  V30 38 1 9 36
M  V30 39 1 12 37
M  V30 40 1 12 38
M  V30 41 1 12 39
M  V30 42 1 14 40
M  V30 43 1 15 41
M  V30 44 1 18 42
M  V30 45 1 18 43
M  V30 46 1 18 44
M  V30 47 1 21 45
M  V30 48 1 23 46 CFG=3
M  V30 49 1 24 47
M  V30 50 1 26 48
M  V30 51 1 26 49
M  V30 52 1 26 50
M  V30 53 1 28 51
M  V30 54 1 28 52
M  V30 55 1 29 53
M  V30 56 1 29 54
M  V30 END BOND
M  V30 END CTAB
M  END
>  <Dataset>  (557) 
ChEMBL_Kinases

>  <Ligand_Instance>  (557) 
nan

>  <PDB_ID>  (557) 
nan

>  <Standardized_SMILES>  (557) 
COc1cc2c(c(OC)c1OC)-c1ccc(OC)c(=O)cc1[C@@H](NC(C)=O)CC2

>  <Name>  (557) 
COLCHICINE

>  <Pocket>  (557) 
nan

>  <ATP_Site>  (557) 
nan

>  <Peripheral>  (557) 
nan

>  <Num_H_Atoms_ProtBoundConf>  (557) 
nan

>  <Num_Resolved_Atoms>  (557) 
nan

>  <Num_Not_Resolved_Atoms>  (557) 
nan

$$$$
CHEMBL1071
     RDKit          3D

  0  0  0  0  0  0  0  0  0  0999 V3000
M  V30 BEGIN CTAB
M  V30 COUNTS 37 39 0 0 0
M  V30 BEGIN ATOM
M  V30 1 O -0.445523 -3.830006 4.727666 0
M  V30 2 C -0.214563 -3.994428 3.483843 0
M  V30 3 O -1.295123 -3.904754 2.617803 0
M  V30 4 C 1.221005 -4.262905 3.165266 0
M  V30 5 C 2.035579 -2.985280 3.216648 0
M  V30 6 C 1.491680 -2.009756 2.215276 0
M  V30 7 N 2.016212 -0.768965 2.026605 0
M  V30 8 C 1.285899 -0.155721 1.050584 0
M  V30 9 C 1.431599 1.175540 0.474659 0
M  V30 10 C 1.730080 1.075110 -0.886496 0
M  V30 11 C 1.915820 2.229288 -1.655584 0
M  V30 12 C 1.795443 3.463975 -1.030167 0
M  V30 13 C 1.501458 3.550683 0.309202 0
M  V30 14 C 1.316833 2.411989 1.074025 0
M  V30 15 C 0.306568 -1.077643 0.664838 0
M  V30 16 C -0.726760 -0.900099 -0.350516 0
M  V30 17 C -1.602958 0.128172 -0.017062 0
M  V30 18 C -2.670576 0.475721 -0.842892 0
M  V30 19 C -2.827669 -0.241456 -2.009739 0
M  V30 20 C -1.969041 -1.263282 -2.355446 0
M  V30 21 C -0.914856 -1.599545 -1.530887 0
M  V30 22 O 0.493767 -2.167169 1.408364 0
M  V30 23 H -1.990722 -3.176513 2.813419 0
M  V30 24 H 1.659070 -4.985292 3.879731 0
M  V30 25 H 1.263281 -4.627378 2.117154 0
M  V30 26 H 2.094455 -2.552734 4.228259 0
M  V30 27 H 3.074251 -3.298135 2.901736 0
M  V30 28 H 1.846857 0.176303 -1.474143 0
M  V30 29 H 2.149072 2.206081 -2.717012 0
M  V30 30 H 1.936687 4.385117 -1.611219 0
M  V30 31 H 1.395914 4.494327 0.847939 0
M  V30 32 H 1.083975 2.344776 2.126385 0
M  V30 33 H -1.550775 0.740373 0.878798 0
M  V30 34 H -3.361669 1.260382 -0.615948 0
M  V30 35 H -3.639346 -0.040826 -2.723393 0
M  V30 36 H -2.059688 -1.859931 -3.277066 0
M  V30 37 H -0.178587 -2.372443 -1.687659 0
M  V30 END ATOM
M  V30 BEGIN BOND
M  V30 1 2 1 2
M  V30 2 1 2 3
M  V30 3 1 2 4
M  V30 4 1 4 5
M  V30 5 1 5 6
M  V30 6 2 6 7
M  V30 7 1 7 8
M  V30 8 1 8 9
M  V30 9 2 9 10
M  V30 10 1 10 11
M  V30 11 2 11 12
M  V30 12 1 12 13
M  V30 13 2 13 14
M  V30 14 2 8 15
M  V30 15 1 15 16
M  V30 16 2 16 17
M  V30 17 1 17 18
M  V30 18 2 18 19
M  V30 19 1 19 20
M  V30 20 2 20 21
M  V30 21 1 15 22
M  V30 22 1 22 6
M  V30 23 1 14 9
M  V30 24 1 21 16
M  V30 25 1 3 23
M  V30 26 1 4 24
M  V30 27 1 4 25
M  V30 28 1 5 26
M  V30 29 1 5 27
M  V30 30 1 10 28
M  V30 31 1 11 29
M  V30 32 1 12 30
M  V30 33 1 13 31
M  V30 34 1 14 32
M  V30 35 1 17 33
M  V30 36 1 18 34
M  V30 37 1 19 35
M  V30 38 1 20 36
M  V30 39 1 21 37
M  V30 END BOND
M  V30 END CTAB
M  END
>  <Dataset>  (558) 
ChEMBL_Kinases

>  <Ligand_Instance>  (558) 
nan

>  <PDB_ID>  (558) 
nan

>  <Standardized_SMILES>  (558) 
O=C(O)CCc1nc(-c2ccccc2)c(-c2ccccc2)o1

>  <Name>  (558) 
OXAPROZIN

>  <Pocket>  (558) 
nan

>  <ATP_Site>  (558) 
nan

>  <Peripheral>  (558) 
nan

>  <Num_H_Atoms_ProtBoundConf>  (558) 
nan

>  <Num_Resolved_Atoms>  (558) 
nan

>  <Num_Not_Resolved_Atoms>  (558) 
nan

$$$$
CHEMBL107225
     RDKit          3D

  0  0  0  0  0  0  0  0  0  0999 V3000
M  V30 BEGIN CTAB
M  V30 COUNTS 29 31 0 0 0
M  V30 BEGIN ATOM
M  V30 1 O -1.262453 -2.161096 2.898537 0
M  V30 2 C -0.331386 -1.426764 2.523367 0
M  V30 3 N 0.708974 -0.912646 3.319304 0
M  V30 4 C 1.544462 -0.126937 2.469536 0
M  V30 5 C 2.682366 0.588931 2.733482 0
M  V30 6 C 3.415330 1.319027 1.833752 0
M  V30 7 C 2.927913 1.307648 0.546513 0
M  V30 8 C 3.481560 1.976944 -0.623775 0
M  V30 9 O 3.303896 2.168856 -1.840818 0
M  V30 10 O 4.666228 2.710135 -0.386330 0
M  V30 11 C 1.772362 0.596507 0.215175 0
M  V30 12 C 1.086297 -0.115498 1.171580 0
M  V30 13 C -0.114699 -0.939496 1.177352 0
M  V30 14 C -0.904398 -1.207022 0.172568 0
M  V30 15 C -2.122606 -1.993329 0.109173 0
M  V30 16 C -2.323164 -2.951233 -0.888945 0
M  V30 17 C -3.563194 -3.532091 -0.748136 0
M  V30 18 C -4.130621 -2.920271 0.352768 0
M  V30 19 N -3.245324 -2.043470 0.797630 0
M  V30 20 H 0.792086 -1.111753 4.339194 0
M  V30 21 H 3.111422 0.628303 3.746651 0
M  V30 22 H 4.311571 1.897333 1.984091 0
M  V30 23 H 5.503451 2.620833 -0.986616 0
M  V30 24 H 1.318447 0.534793 -0.776118 0
M  V30 25 H -0.599249 -0.760880 -0.789561 0
M  V30 26 H -1.672593 -3.279123 -1.708523 0
M  V30 27 H -4.036219 -4.304187 -1.345014 0
M  V30 28 H -5.122079 -3.160510 0.729865 0
M  V30 29 H -3.475482 -1.455401 1.621991 0
M  V30 END ATOM
M  V30 BEGIN BOND
M  V30 1 2 1 2
M  V30 2 1 2 3
M  V30 3 1 3 4
M  V30 4 2 4 5
M  V30 5 1 5 6
M  V30 6 2 6 7
M  V30 7 1 7 8
M  V30 8 2 8 9
M  V30 9 1 8 10
M  V30 10 1 7 11
M  V30 11 2 11 12
M  V30 12 1 12 13
M  V30 13 2 13 14
M  V30 14 1 14 15
M  V30 15 2 15 16
M  V30 16 1 16 17
M  V30 17 2 17 18
M  V30 18 1 18 19
M  V30 19 1 13 2
M  V30 20 1 19 15
M  V30 21 1 12 4
M  V30 22 1 3 20
M  V30 23 1 5 21
M  V30 24 1 6 22
M  V30 25 1 10 23
M  V30 26 1 11 24
M  V30 27 1 14 25
M  V30 28 1 16 26
M  V30 29 1 17 27
M  V30 30 1 18 28
M  V30 31 1 19 29
M  V30 END BOND
M  V30 END CTAB
M  END
>  <Dataset>  (559) 
ChEMBL_Kinases

>  <Ligand_Instance>  (559) 
nan

>  <PDB_ID>  (559) 
nan

>  <Standardized_SMILES>  (559) 
O=C1Nc2ccc(C(=O)O)cc2/C1=C/c1ccc[nH]1

>  <Name>  (559) 
nan

>  <Pocket>  (559) 
nan

>  <ATP_Site>  (559) 
nan

>  <Peripheral>  (559) 
nan

>  <Num_H_Atoms_ProtBoundConf>  (559) 
nan

>  <Num_Resolved_Atoms>  (559) 
nan

>  <Num_Not_Resolved_Atoms>  (559) 
nan

$$$$
CHEMBL1077243
     RDKit          3D

  0  0  0  0  0  0  0  0  0  0999 V3000
M  V30 BEGIN CTAB
M  V30 COUNTS 46 49 0 0 0
M  V30 BEGIN ATOM
M  V30 1 C 2.268918 -5.558404 5.449341 0
M  V30 2 C 2.399688 -4.367859 4.521974 0
M  V30 3 C 2.199599 -4.710555 3.084252 0
M  V30 4 C 2.332364 -3.524205 2.191296 0
M  V30 5 O 2.586553 -2.554198 2.936739 0
M  V30 6 N 2.176044 -3.617373 0.782708 0
M  V30 7 C 2.364205 -2.302668 0.210302 0
M  V30 8 N 3.591013 -1.857058 -0.192350 0
M  V30 9 N 3.466917 -0.622804 -0.673804 0
M  V30 10 C 2.178817 -0.241711 -0.597520 0
M  V30 11 C 1.410684 0.876746 -0.914832 0
M  V30 12 C 0.052340 0.931632 -0.691878 0
M  V30 13 C -0.681909 2.151236 -1.055078 0
M  V30 14 C -1.695265 2.295468 -1.980715 0
M  V30 15 C -2.250254 3.546557 -2.164387 0
M  V30 16 C -1.798885 4.637773 -1.433418 0
M  V30 17 O -2.463299 5.809135 -1.743325 0
M  V30 18 C -0.787957 4.491019 -0.510869 0
M  V30 19 C -0.221944 3.245468 -0.314995 0
M  V30 20 C -0.614611 -0.140944 -0.134086 0
M  V30 21 C -2.050574 -0.023476 0.077010 0
M  V30 22 C -2.674243 0.887476 0.902515 0
M  V30 23 C -4.025339 0.626510 0.784642 0
M  V30 24 O -4.214578 -0.369773 -0.050810 0
M  V30 25 C -3.050523 -0.801017 -0.509004 0
M  V30 26 C 0.096912 -1.275806 0.200126 0
M  V30 27 C 1.457075 -1.283261 -0.042591 0
M  V30 28 H 3.176221 -6.163069 5.497019 0
M  V30 29 H 2.054200 -5.153900 6.479494 0
M  V30 30 H 1.405319 -6.169924 5.134342 0
M  V30 31 H 3.453643 -4.017113 4.658142 0
M  V30 32 H 1.694375 -3.555789 4.812599 0
M  V30 33 H 3.017876 -5.414083 2.783946 0
M  V30 34 H 1.255341 -5.260082 2.900031 0
M  V30 35 H 1.961041 -4.542663 0.354652 0
M  V30 36 H 4.217383 0.007610 -1.066104 0
M  V30 37 H 1.972934 1.709698 -1.356291 0
M  V30 38 H -1.959206 1.375376 -2.485755 0
M  V30 39 H -3.048891 3.564703 -2.920012 0
M  V30 40 H -2.045240 6.707600 -1.656412 0
M  V30 41 H -0.496468 5.392170 0.015440 0
M  V30 42 H 0.559685 3.235304 0.426738 0
M  V30 43 H -2.253222 1.646953 1.517927 0
M  V30 44 H -4.888191 1.082456 1.240731 0
M  V30 45 H -2.833926 -1.611773 -1.217687 0
M  V30 46 H -0.406326 -2.127850 0.637858 0
M  V30 END ATOM
M  V30 BEGIN BOND
M  V30 1 1 1 2
M  V30 2 1 2 3
M  V30 3 1 3 4
M  V30 4 2 4 5
M  V30 5 1 4 6
M  V30 6 1 6 7
M  V30 7 2 7 8
M  V30 8 1 8 9
M  V30 9 1 9 10
M  V30 10 2 10 11
M  V30 11 1 11 12
M  V30 12 1 12 13
M  V30 13 2 13 14
M  V30 14 1 14 15
M  V30 15 2 15 16
M  V30 16 1 16 17
M  V30 17 1 16 18
M  V30 18 2 18 19
M  V30 19 2 12 20
M  V30 20 1 20 21
M  V30 21 1 21 22
M  V30 22 2 22 23
M  V30 23 1 23 24
M  V30 24 1 24 25
M  V30 25 1 20 26
M  V30 26 2 26 27
M  V30 27 1 27 7
M  V30 28 1 27 10
M  V30 29 1 19 13
M  V30 30 2 25 21
M  V30 31 1 1 28
M  V30 32 1 1 29
M  V30 33 1 1 30
M  V30 34 1 2 31
M  V30 35 1 2 32
M  V30 36 1 3 33
M  V30 37 1 3 34
M  V30 38 1 6 35
M  V30 39 1 9 36
M  V30 40 1 11 37
M  V30 41 1 14 38
M  V30 42 1 15 39
M  V30 43 1 17 40
M  V30 44 1 18 41
M  V30 45 1 19 42
M  V30 46 1 22 43
M  V30 47 1 23 44
M  V30 48 1 25 45
M  V30 49 1 26 46
M  V30 END BOND
M  V30 END CTAB
M  END
>  <Dataset>  (560) 
ChEMBL_Kinases

>  <Ligand_Instance>  (560) 
nan

>  <PDB_ID>  (560) 
nan

>  <Standardized_SMILES>  (560) 
CCCC(=O)Nc1n[nH]c2cc(-c3ccc(O)cc3)c(-c3ccoc3)cc12

>  <Name>  (560) 
nan

>  <Pocket>  (560) 
nan

>  <ATP_Site>  (560) 
nan

>  <Peripheral>  (560) 
nan

>  <Num_H_Atoms_ProtBoundConf>  (560) 
nan

>  <Num_Resolved_Atoms>  (560) 
nan

>  <Num_Not_Resolved_Atoms>  (560) 
nan

$$$$
CHEMBL1076741
     RDKit          3D

  0  0  0  0  0  0  0  0  0  0999 V3000
M  V30 BEGIN CTAB
M  V30 COUNTS 46 50 0 0 0
M  V30 BEGIN ATOM
M  V30 1 O 3.244561 -0.632678 3.511636 0
M  V30 2 C 3.578611 0.000607 2.456234 0
M  V30 3 N 4.877964 -0.300396 1.972228 0
M  V30 4 C 5.763882 -1.250982 2.620832 0
M  V30 5 C 7.236228 -0.929189 2.440412 0
M  V30 6 C 6.637101 -2.129900 1.804698 0
M  V30 7 C 2.674170 0.949536 1.822511 0
M  V30 8 C 3.040393 1.727765 0.718020 0
M  V30 9 C 2.124808 2.595119 0.168737 0
M  V30 10 C 0.843932 2.744592 0.650962 0
M  V30 11 Cl -0.372760 3.824865 0.012356 0
M  V30 12 C 0.459092 1.988852 1.737067 0
M  V30 13 N -0.817698 1.958229 2.406814 0
M  V30 14 C -1.850629 1.583995 1.514979 0
M  V30 15 N -2.703694 2.396846 0.873799 0
M  V30 16 N -3.641964 1.994757 0.036642 0
M  V30 17 C -3.807580 0.695779 -0.236314 0
M  V30 18 C -2.985102 -0.223357 0.368139 0
M  V30 19 C -2.019219 0.225002 1.234049 0
M  V30 20 C -1.386327 -0.912887 1.652318 0
M  V30 21 N -1.954413 -1.974764 1.058813 0
M  V30 22 N -2.948432 -1.556801 0.258987 0
M  V30 23 C -3.786271 -2.344968 -0.549397 0
M  V30 24 C -3.042920 -2.855015 -1.614917 0
M  V30 25 C -3.608081 -3.676105 -2.591022 0
M  V30 26 C -4.961278 -3.982510 -2.475942 0
M  V30 27 C -5.680204 -3.471112 -1.418560 0
M  V30 28 C -5.119218 -2.662005 -0.458467 0
M  V30 29 Cl -5.896617 -1.941984 0.931910 0
M  V30 30 C 1.394240 1.113656 2.286861 0
M  V30 31 H 5.210294 0.184245 1.110496 0
M  V30 32 H 5.377622 -1.642767 3.572650 0
M  V30 33 H 7.513995 -0.111329 1.742768 0
M  V30 34 H 7.837178 -0.974148 3.365529 0
M  V30 35 H 6.904812 -3.103986 2.273958 0
M  V30 36 H 6.562835 -2.174921 0.716690 0
M  V30 37 H 4.039595 1.635622 0.312908 0
M  V30 38 H 2.362445 3.217276 -0.686229 0
M  V30 39 H -0.895712 2.195769 3.428557 0
M  V30 40 H -4.574276 0.369491 -0.920257 0
M  V30 41 H -0.571112 -1.015597 2.332915 0
M  V30 42 H -1.982441 -2.703904 -1.834668 0
M  V30 43 H -3.094618 -4.099586 -3.431364 0
M  V30 44 H -5.498895 -4.609930 -3.178609 0
M  V30 45 H -6.741586 -3.662276 -1.256234 0
M  V30 46 H 1.145585 0.494623 3.144405 0
M  V30 END ATOM
M  V30 BEGIN BOND
M  V30 1 2 1 2
M  V30 2 1 2 3
M  V30 3 1 3 4
M  V30 4 1 4 5
M  V30 5 1 5 6
M  V30 6 1 2 7
M  V30 7 2 7 8
M  V30 8 1 8 9
M  V30 9 2 9 10
M  V30 10 1 10 11
M  V30 11 1 10 12
M  V30 12 1 12 13
M  V30 13 1 13 14
M  V30 14 2 14 15
M  V30 15 1 15 16
M  V30 16 2 16 17
M  V30 17 1 17 18
M  V30 18 2 18 19
M  V30 19 1 19 20
M  V30 20 2 20 21
M  V30 21 1 21 22
M  V30 22 1 22 23
M  V30 23 2 23 24
M  V30 24 1 24 25
M  V30 25 2 25 26
M  V30 26 1 26 27
M  V30 27 2 27 28
M  V30 28 1 28 29
M  V30 29 2 12 30
M  V30 30 1 6 4
M  V30 31 1 30 7
M  V30 32 1 19 14
M  V30 33 1 28 23
M  V30 34 1 22 18
M  V30 35 1 3 31
M  V30 36 1 4 32
M  V30 37 1 5 33
M  V30 38 1 5 34
M  V30 39 1 6 35
M  V30 40 1 6 36
M  V30 41 1 8 37
M  V30 42 1 9 38
M  V30 43 1 13 39
M  V30 44 1 17 40
M  V30 45 1 20 41
M  V30 46 1 24 42
M  V30 47 1 25 43
M  V30 48 1 26 44
M  V30 49 1 27 45
M  V30 50 1 30 46
M  V30 END BOND
M  V30 END CTAB
M  END
>  <Dataset>  (561) 
ChEMBL_Kinases

>  <Ligand_Instance>  (561) 
nan

>  <PDB_ID>  (561) 
nan

>  <Standardized_SMILES>  (561) 
O=C(NC1CC1)c1ccc(Cl)c(Nc2nncc3c2cnn3-c2ccccc2Cl)c1

>  <Name>  (561) 
nan

>  <Pocket>  (561) 
nan

>  <ATP_Site>  (561) 
nan

>  <Peripheral>  (561) 
nan

>  <Num_H_Atoms_ProtBoundConf>  (561) 
nan

>  <Num_Resolved_Atoms>  (561) 
nan

>  <Num_Not_Resolved_Atoms>  (561) 
nan

$$$$
CHEMBL1077116
     RDKit          3D

  0  0  0  0  0  0  0  0  0  0999 V3000
M  V30 BEGIN CTAB
M  V30 COUNTS 33 35 0 0 0
M  V30 BEGIN ATOM
M  V30 1 C -0.032195 -0.257751 4.458327 0
M  V30 2 O 0.740914 -1.408304 4.119781 0
M  V30 3 C 0.952498 -1.703491 2.787610 0
M  V30 4 C 0.492591 -0.998657 1.705588 0
M  V30 5 C 0.700460 -1.285545 0.398695 0
M  V30 6 C 1.455261 -2.412085 0.226211 0
M  V30 7 C 1.965681 -3.193339 1.238696 0
M  V30 8 C 1.722359 -2.850818 2.552393 0
M  V30 9 Cl 2.369512 -3.839346 3.840569 0
M  V30 10 C 1.794356 -2.864656 -1.142125 0
M  V30 11 C 1.018616 -2.143291 -2.181951 0
M  V30 12 N 0.297635 -1.003982 -1.764292 0
M  V30 13 C 0.069815 -0.495709 -0.628566 0
M  V30 14 C -0.745062 0.678627 -0.473155 0
M  V30 15 C -1.096316 1.585002 0.443408 0
M  V30 16 C -2.021719 2.589998 0.437136 0
M  V30 17 C -2.751154 2.729893 -0.719124 0
M  V30 18 C -2.522707 1.883051 -1.775705 0
M  V30 19 Cl -3.465914 2.084282 -3.231286 0
M  V30 20 C -1.554924 0.923286 -1.604930 0
M  V30 21 H 0.455089 0.677144 4.090187 0
M  V30 22 H -0.200403 -0.228788 5.553200 0
M  V30 23 H -0.997681 -0.330758 3.909681 0
M  V30 24 H -0.107168 -0.188889 2.028210 0
M  V30 25 H 2.558398 -4.077989 1.054944 0
M  V30 26 H 1.571147 -3.956676 -1.204942 0
M  V30 27 H 2.881891 -2.673290 -1.325291 0
M  V30 28 H 1.697353 -1.893167 -3.068209 0
M  V30 29 H 0.285451 -2.889229 -2.619230 0
M  V30 30 H -0.487269 1.534766 1.319787 0
M  V30 31 H -2.132382 3.206771 1.314405 0
M  V30 32 H -3.493914 3.506601 -0.774456 0
M  V30 33 H -1.479239 0.314265 -2.530456 0
M  V30 END ATOM
M  V30 BEGIN BOND
M  V30 1 1 1 2
M  V30 2 1 2 3
M  V30 3 2 3 4
M  V30 4 1 4 5
M  V30 5 2 5 6
M  V30 6 1 6 7
M  V30 7 2 7 8
M  V30 8 1 8 9
M  V30 9 1 6 10
M  V30 10 1 10 11
M  V30 11 1 11 12
M  V30 12 2 12 13
M  V30 13 1 13 14
M  V30 14 2 14 15
M  V30 15 1 15 16
M  V30 16 2 16 17
M  V30 17 1 17 18
M  V30 18 1 18 19
M  V30 19 2 18 20
M  V30 20 1 8 3
M  V30 21 1 20 14
M  V30 22 1 13 5
M  V30 23 1 1 21
M  V30 24 1 1 22
M  V30 25 1 1 23
M  V30 26 1 4 24
M  V30 27 1 7 25
M  V30 28 1 10 26
M  V30 29 1 10 27
M  V30 30 1 11 28
M  V30 31 1 11 29
M  V30 32 1 15 30
M  V30 33 1 16 31
M  V30 34 1 17 32
M  V30 35 1 20 33
M  V30 END BOND
M  V30 END CTAB
M  END
>  <Dataset>  (562) 
ChEMBL_Kinases

>  <Ligand_Instance>  (562) 
nan

>  <PDB_ID>  (562) 
nan

>  <Standardized_SMILES>  (562) 
COc1cc2c(cc1Cl)CCN=C2c1cccc(Cl)c1

>  <Name>  (562) 
nan

>  <Pocket>  (562) 
nan

>  <ATP_Site>  (562) 
nan

>  <Peripheral>  (562) 
nan

>  <Num_H_Atoms_ProtBoundConf>  (562) 
nan

>  <Num_Resolved_Atoms>  (562) 
nan

>  <Num_Not_Resolved_Atoms>  (562) 
nan

$$$$
CHEMBL1077129
     RDKit          3D

  0  0  0  0  0  0  0  0  0  0999 V3000
M  V30 BEGIN CTAB
M  V30 COUNTS 33 35 0 0 0
M  V30 BEGIN ATOM
M  V30 1 C -1.221354 -4.189684 4.020387 0
M  V30 2 O -0.124241 -3.298784 3.778513 0
M  V30 3 C -0.161153 -2.432479 2.693296 0
M  V30 4 C -1.236708 -2.378043 1.798552 0
M  V30 5 C -1.210225 -1.479941 0.723363 0
M  V30 6 C -0.115684 -0.661672 0.568172 0
M  V30 7 C 0.951524 -0.686888 1.420821 0
M  V30 8 C 0.923247 -1.573777 2.480925 0
M  V30 9 Cl 2.262689 -1.628475 3.579178 0
M  V30 10 C -0.262296 0.196417 -0.590009 0
M  V30 11 C 0.839641 1.137914 -0.889918 0
M  V30 12 C 1.781215 0.616423 -1.731665 0
M  V30 13 C 2.862230 1.395342 -2.089790 0
M  V30 14 C 3.028097 2.685241 -1.627972 0
M  V30 15 C 2.056963 3.178507 -0.779492 0
M  V30 16 Cl 2.121672 4.794424 -0.108039 0
M  V30 17 C 0.954921 2.426139 -0.395989 0
M  V30 18 F -0.026438 2.828908 0.419183 0
M  V30 19 N -1.297789 0.159061 -1.340582 0
M  V30 20 C -2.451660 -0.657413 -1.232766 0
M  V30 21 C -2.450761 -1.611518 -0.073220 0
M  V30 22 H -1.009566 -4.707014 4.997675 0
M  V30 23 H -1.290073 -4.980490 3.262824 0
M  V30 24 H -2.176686 -3.644305 4.177052 0
M  V30 25 H -2.020497 -3.084922 2.057231 0
M  V30 26 H 1.766023 -0.007398 1.219222 0
M  V30 27 H 1.774122 -0.365143 -2.160451 0
M  V30 28 H 3.640246 1.033268 -2.754936 0
M  V30 29 H 3.850348 3.340224 -1.872767 0
M  V30 30 H -2.626562 -1.265369 -2.155232 0
M  V30 31 H -3.345954 0.023146 -1.101728 0
M  V30 32 H -2.482507 -2.668108 -0.418725 0
M  V30 33 H -3.361805 -1.475664 0.561996 0
M  V30 END ATOM
M  V30 BEGIN BOND
M  V30 1 1 1 2
M  V30 2 1 2 3
M  V30 3 2 3 4
M  V30 4 1 4 5
M  V30 5 2 5 6
M  V30 6 1 6 7
M  V30 7 2 7 8
M  V30 8 1 8 9
M  V30 9 1 6 10
M  V30 10 1 10 11
M  V30 11 2 11 12
M  V30 12 1 12 13
M  V30 13 2 13 14
M  V30 14 1 14 15
M  V30 15 1 15 16
M  V30 16 2 15 17
M  V30 17 1 17 18
M  V30 18 2 10 19
M  V30 19 1 19 20
M  V30 20 1 20 21
M  V30 21 1 8 3
M  V30 22 1 17 11
M  V30 23 1 21 5
M  V30 24 1 1 22
M  V30 25 1 1 23
M  V30 26 1 1 24
M  V30 27 1 4 25
M  V30 28 1 7 26
M  V30 29 1 12 27
M  V30 30 1 13 28
M  V30 31 1 14 29
M  V30 32 1 20 30
M  V30 33 1 20 31
M  V30 34 1 21 32
M  V30 35 1 21 33
M  V30 END BOND
M  V30 END CTAB
M  END
>  <Dataset>  (563) 
ChEMBL_Kinases

>  <Ligand_Instance>  (563) 
nan

>  <PDB_ID>  (563) 
nan

>  <Standardized_SMILES>  (563) 
COc1cc2c(cc1Cl)C(c1cccc(Cl)c1F)=NCC2

>  <Name>  (563) 
nan

>  <Pocket>  (563) 
nan

>  <ATP_Site>  (563) 
nan

>  <Peripheral>  (563) 
nan

>  <Num_H_Atoms_ProtBoundConf>  (563) 
nan

>  <Num_Resolved_Atoms>  (563) 
nan

>  <Num_Not_Resolved_Atoms>  (563) 
nan

$$$$
CHEMBL1077132
     RDKit          3D

  0  0  0  0  0  0  0  0  0  0999 V3000
M  V30 BEGIN CTAB
M  V30 COUNTS 33 35 0 0 0
M  V30 BEGIN ATOM
M  V30 1 C -2.246491 -4.621820 3.157625 0
M  V30 2 O -1.539746 -3.454116 3.527715 0
M  V30 3 C -1.044071 -2.575704 2.577611 0
M  V30 4 C -1.253382 -2.861414 1.243822 0
M  V30 5 C -0.777318 -2.016503 0.270893 0
M  V30 6 C -0.082672 -0.863718 0.500609 0
M  V30 7 C 0.098666 -0.621479 1.830279 0
M  V30 8 C -0.335552 -1.401475 2.876046 0
M  V30 9 Cl -0.102000 -1.092752 4.566826 0
M  V30 10 C 0.384507 0.131073 -0.422346 0
M  V30 11 C 1.098054 1.345452 -0.201488 0
M  V30 12 C 1.167243 2.173798 -1.328749 0
M  V30 13 C 1.822985 3.371027 -1.434852 0
M  V30 14 C 2.488260 3.833514 -0.347979 0
M  V30 15 C 2.493190 3.112595 0.806598 0
M  V30 16 C 1.807616 1.940914 0.787786 0
M  V30 17 N 0.040964 -0.193176 -1.603601 0
M  V30 18 C -0.674154 -1.300391 -2.092355 0
M  V30 19 C -1.034266 -2.385675 -1.146350 0
M  V30 20 H -3.297069 -4.369085 2.891009 0
M  V30 21 H -2.340003 -5.257591 4.086298 0
M  V30 22 H -1.745873 -5.221832 2.378284 0
M  V30 23 H -1.794403 -3.754068 0.962341 0
M  V30 24 H 0.568509 0.234574 2.210261 0
M  V30 25 H 0.664747 1.915620 -2.281605 0
M  V30 26 H 1.834245 3.957857 -2.331173 0
M  V30 27 H 3.011039 4.775600 -0.408772 0
M  V30 28 H 3.014289 3.465039 1.672364 0
M  V30 29 H 1.894994 1.394188 1.694062 0
M  V30 30 H -1.620396 -0.923574 -2.589251 0
M  V30 31 H -0.029839 -1.775326 -2.897288 0
M  V30 32 H -0.420903 -3.320921 -1.308213 0
M  V30 33 H -2.110194 -2.622706 -1.211300 0
M  V30 END ATOM
M  V30 BEGIN BOND
M  V30 1 1 1 2
M  V30 2 1 2 3
M  V30 3 2 3 4
M  V30 4 1 4 5
M  V30 5 2 5 6
M  V30 6 1 6 7
M  V30 7 2 7 8
M  V30 8 1 8 9
M  V30 9 1 6 10
M  V30 10 1 10 11
M  V30 11 2 11 12
M  V30 12 1 12 13
M  V30 13 2 13 14
M  V30 14 1 14 15
M  V30 15 2 15 16
M  V30 16 2 10 17
M  V30 17 1 17 18
M  V30 18 1 18 19
M  V30 19 1 8 3
M  V30 20 1 16 11
M  V30 21 1 19 5
M  V30 22 1 1 20
M  V30 23 1 1 21
M  V30 24 1 1 22
M  V30 25 1 4 23
M  V30 26 1 7 24
M  V30 27 1 12 25
M  V30 28 1 13 26
M  V30 29 1 14 27
M  V30 30 1 15 28
M  V30 31 1 16 29
M  V30 32 1 18 30
M  V30 33 1 18 31
M  V30 34 1 19 32
M  V30 35 1 19 33
M  V30 END BOND
M  V30 END CTAB
M  END
>  <Dataset>  (564) 
ChEMBL_Kinases

>  <Ligand_Instance>  (564) 
nan

>  <PDB_ID>  (564) 
nan

>  <Standardized_SMILES>  (564) 
COc1cc2c(cc1Cl)C(c1ccccc1)=NCC2

>  <Name>  (564) 
nan

>  <Pocket>  (564) 
nan

>  <ATP_Site>  (564) 
nan

>  <Peripheral>  (564) 
nan

>  <Num_H_Atoms_ProtBoundConf>  (564) 
nan

>  <Num_Resolved_Atoms>  (564) 
nan

>  <Num_Not_Resolved_Atoms>  (564) 
nan

$$$$
CHEMBL1077137
     RDKit          3D

  0  0  0  0  0  0  0  0  0  0999 V3000
M  V30 BEGIN CTAB
M  V30 COUNTS 33 35 0 0 0
M  V30 BEGIN ATOM
M  V30 1 C -0.295560 -0.400950 4.538884 0
M  V30 2 O 0.391984 -1.567747 4.124981 0
M  V30 3 C 0.679723 -1.844317 2.808252 0
M  V30 4 C 0.362362 -1.068458 1.717845 0
M  V30 5 C 0.644211 -1.333548 0.415920 0
M  V30 6 C 1.313253 -2.514862 0.256561 0
M  V30 7 C 1.678277 -3.366123 1.276374 0
M  V30 8 C 1.366805 -3.044596 2.579707 0
M  V30 9 Cl 1.828007 -4.119913 3.879836 0
M  V30 10 C 1.718837 -2.961173 -1.094140 0
M  V30 11 C 1.082734 -2.131030 -2.160180 0
M  V30 12 N 0.438067 -0.962963 -1.751121 0
M  V30 13 C 0.162552 -0.462982 -0.626983 0
M  V30 14 C -0.562302 0.771425 -0.485005 0
M  V30 15 C -0.909586 1.677697 0.435903 0
M  V30 16 C -1.746699 2.756700 0.392960 0
M  V30 17 C -2.368392 2.991901 -0.809448 0
M  V30 18 C -2.125841 2.159008 -1.874338 0
M  V30 19 Br -3.005487 2.515023 -3.521645 0
M  V30 20 C -1.256638 1.115728 -1.666458 0
M  V30 21 H 0.200867 0.509568 4.131587 0
M  V30 22 H -0.332206 -0.405205 5.655822 0
M  V30 23 H -1.294358 -0.431637 4.070928 0
M  V30 24 H -0.189507 -0.220063 2.021931 0
M  V30 25 H 2.207319 -4.293837 1.110759 0
M  V30 26 H 1.421040 -4.027122 -1.237243 0
M  V30 27 H 2.827486 -2.849837 -1.193341 0
M  V30 28 H 1.830851 -1.941364 -3.011749 0
M  V30 29 H 0.326802 -2.800407 -2.689825 0
M  V30 30 H -0.379419 1.549014 1.351362 0
M  V30 31 H -1.876212 3.354986 1.280100 0
M  V30 32 H -3.038157 3.830937 -0.890725 0
M  V30 33 H -1.159831 0.534075 -2.602401 0
M  V30 END ATOM
M  V30 BEGIN BOND
M  V30 1 1 1 2
M  V30 2 1 2 3
M  V30 3 2 3 4
M  V30 4 1 4 5
M  V30 5 2 5 6
M  V30 6 1 6 7
M  V30 7 2 7 8
M  V30 8 1 8 9
M  V30 9 1 6 10
M  V30 10 1 10 11
M  V30 11 1 11 12
M  V30 12 2 12 13
M  V30 13 1 13 14
M  V30 14 2 14 15
M  V30 15 1 15 16
M  V30 16 2 16 17
M  V30 17 1 17 18
M  V30 18 1 18 19
M  V30 19 2 18 20
M  V30 20 1 8 3
M  V30 21 1 20 14
M  V30 22 1 13 5
M  V30 23 1 1 21
M  V30 24 1 1 22
M  V30 25 1 1 23
M  V30 26 1 4 24
M  V30 27 1 7 25
M  V30 28 1 10 26
M  V30 29 1 10 27
M  V30 30 1 11 28
M  V30 31 1 11 29
M  V30 32 1 15 30
M  V30 33 1 16 31
M  V30 34 1 17 32
M  V30 35 1 20 33
M  V30 END BOND
M  V30 END CTAB
M  END
>  <Dataset>  (565) 
ChEMBL_Kinases

>  <Ligand_Instance>  (565) 
nan

>  <PDB_ID>  (565) 
nan

>  <Standardized_SMILES>  (565) 
COc1cc2c(cc1Cl)CCN=C2c1cccc(Br)c1

>  <Name>  (565) 
nan

>  <Pocket>  (565) 
nan

>  <ATP_Site>  (565) 
nan

>  <Peripheral>  (565) 
nan

>  <Num_H_Atoms_ProtBoundConf>  (565) 
nan

>  <Num_Resolved_Atoms>  (565) 
nan

>  <Num_Not_Resolved_Atoms>  (565) 
nan

$$$$
CHEMBL1077213
     RDKit          3D

  0  0  0  0  0  0  0  0  0  0999 V3000
M  V30 BEGIN CTAB
M  V30 COUNTS 44 46 0 0 0
M  V30 BEGIN ATOM
M  V30 1 C 1.584737 -6.141543 -0.948791 0
M  V30 2 C 1.783035 -5.394568 0.340637 0
M  V30 3 C 2.618678 -4.156109 0.087136 0
M  V30 4 C 1.958052 -3.252846 -0.883024 0
M  V30 5 O 0.904664 -3.171154 -1.585243 0
M  V30 6 N 2.720860 -2.071926 -1.145548 0
M  V30 7 C 2.267197 -1.052476 -2.059939 0
M  V30 8 N 2.427857 -0.852117 -3.377894 0
M  V30 9 N 1.781539 0.265439 -3.701600 0
M  V30 10 C 1.189439 0.826287 -2.644164 0
M  V30 11 C 0.419885 1.956961 -2.444800 0
M  V30 12 C -0.062820 2.279688 -1.189460 0
M  V30 13 Cl -1.045978 3.727499 -0.944414 0
M  V30 14 C 0.222015 1.467505 -0.111909 0
M  V30 15 C -0.262512 1.755719 1.252565 0
M  V30 16 C -0.771229 0.603956 1.861388 0
M  V30 17 C -1.278287 0.666105 3.153651 0
M  V30 18 C -1.271211 1.872611 3.819465 0
M  V30 19 C -1.804508 1.997033 5.212051 0
M  V30 20 C -3.273858 2.333705 5.223801 0
M  V30 21 C -0.761288 2.998902 3.193225 0
M  V30 22 C -0.260840 2.946925 1.923110 0
M  V30 23 C 0.991553 0.349100 -0.347071 0
M  V30 24 C 1.489709 -0.002582 -1.588129 0
M  V30 25 H 0.524449 -6.452498 -1.083627 0
M  V30 26 H 1.854907 -5.475210 -1.792266 0
M  V30 27 H 2.240833 -7.051293 -0.908220 0
M  V30 28 H 2.283508 -6.024762 1.099185 0
M  V30 29 H 0.798540 -5.022949 0.709057 0
M  V30 30 H 2.759835 -3.594212 1.031862 0
M  V30 31 H 3.600775 -4.433536 -0.347709 0
M  V30 32 H 3.643493 -1.734976 -0.784497 0
M  V30 33 H 1.721292 0.688210 -4.663527 0
M  V30 34 H 0.186504 2.607434 -3.283833 0
M  V30 35 H -0.828270 -0.396986 1.435867 0
M  V30 36 H -1.689155 -0.174941 3.695877 0
M  V30 37 H -1.698606 0.975494 5.680240 0
M  V30 38 H -1.188969 2.715144 5.763148 0
M  V30 39 H -3.468003 3.318257 5.731692 0
M  V30 40 H -3.669774 2.420465 4.172607 0
M  V30 41 H -3.867163 1.586269 5.782602 0
M  V30 42 H -0.738865 3.964341 3.684440 0
M  V30 43 H 0.156766 3.748387 1.341754 0
M  V30 44 H 1.209102 -0.285572 0.517894 0
M  V30 END ATOM
M  V30 BEGIN BOND
M  V30 1 1 1 2
M  V30 2 1 2 3
M  V30 3 1 3 4
M  V30 4 2 4 5
M  V30 5 1 4 6
M  V30 6 1 6 7
M  V30 7 2 7 8
M  V30 8 1 8 9
M  V30 9 1 9 10
M  V30 10 2 10 11
M  V30 11 1 11 12
M  V30 12 1 12 13
M  V30 13 2 12 14
M  V30 14 1 14 15
M  V30 15 2 15 16
M  V30 16 1 16 17
M  V30 17 2 17 18
M  V30 18 1 18 19
M  V30 19 1 19 20
M  V30 20 1 18 21
M  V30 21 2 21 22
M  V30 22 1 14 23
M  V30 23 2 23 24
M  V30 24 1 24 7
M  V30 25 1 24 10
M  V30 26 1 22 15
M  V30 27 1 1 25
M  V30 28 1 1 26
M  V30 29 1 1 27
M  V30 30 1 2 28
M  V30 31 1 2 29
M  V30 32 1 3 30
M  V30 33 1 3 31
M  V30 34 1 6 32
M  V30 35 1 9 33
M  V30 36 1 11 34
M  V30 37 1 16 35
M  V30 38 1 17 36
M  V30 39 1 19 37
M  V30 40 1 19 38
M  V30 41 1 20 39
M  V30 42 1 20 40
M  V30 43 1 20 41
M  V30 44 1 21 42
M  V30 45 1 22 43
M  V30 46 1 23 44
M  V30 END BOND
M  V30 END CTAB
M  END
>  <Dataset>  (566) 
ChEMBL_Kinases

>  <Ligand_Instance>  (566) 
nan

>  <PDB_ID>  (566) 
nan

>  <Standardized_SMILES>  (566) 
CCCC(=O)Nc1n[nH]c2cc(Cl)c(-c3ccc(CC)cc3)cc12

>  <Name>  (566) 
nan

>  <Pocket>  (566) 
nan

>  <ATP_Site>  (566) 
nan

>  <Peripheral>  (566) 
nan

>  <Num_H_Atoms_ProtBoundConf>  (566) 
nan

>  <Num_Resolved_Atoms>  (566) 
nan

>  <Num_Not_Resolved_Atoms>  (566) 
nan

$$$$
CHEMBL1077218
     RDKit          3D

  0  0  0  0  0  0  0  0  0  0999 V3000
M  V30 BEGIN CTAB
M  V30 COUNTS 35 37 0 0 0
M  V30 BEGIN ATOM
M  V30 1 C -0.943833 -3.985121 1.185178 0
M  V30 2 C 0.317997 -4.655802 1.647615 0
M  V30 3 C 1.210849 -3.636126 2.358877 0
M  V30 4 C 1.491410 -2.584587 1.335467 0
M  V30 5 O 1.016169 -2.665742 0.169566 0
M  V30 6 N 2.294049 -1.421443 1.554569 0
M  V30 7 C 2.313075 -0.669056 0.323596 0
M  V30 8 N 3.211082 -0.829018 -0.641240 0
M  V30 9 N 2.973656 0.003371 -1.651621 0
M  V30 10 C 1.874103 0.720966 -1.305883 0
M  V30 11 C 1.124139 1.729363 -1.901262 0
M  V30 12 C 0.018126 2.263911 -1.253560 0
M  V30 13 Cl -0.901617 3.532843 -2.035395 0
M  V30 14 C -0.369331 1.811629 -0.002310 0
M  V30 15 C -1.528212 2.354471 0.703988 0
M  V30 16 C -2.740698 2.566843 0.042307 0
M  V30 17 C -3.575868 3.076024 1.016098 0
M  V30 18 O -2.948840 3.173506 2.174929 0
M  V30 19 C -1.702198 2.745189 2.028140 0
M  V30 20 C 0.349664 0.811529 0.621887 0
M  V30 21 C 1.436807 0.322410 -0.072926 0
M  V30 22 H -1.817661 -4.618321 1.496690 0
M  V30 23 H -0.969988 -3.894746 0.076327 0
M  V30 24 H -1.013005 -2.988287 1.656371 0
M  V30 25 H 0.090227 -5.460371 2.368364 0
M  V30 26 H 0.871795 -5.075726 0.774912 0
M  V30 27 H 2.118536 -4.122392 2.743873 0
M  V30 28 H 0.585079 -3.225697 3.181237 0
M  V30 29 H 2.712744 -1.308833 2.511608 0
M  V30 30 H 3.461064 0.157435 -2.561125 0
M  V30 31 H 1.423749 2.086351 -2.880431 0
M  V30 32 H -3.091405 2.424755 -0.950788 0
M  V30 33 H -4.618084 3.410078 1.044164 0
M  V30 34 H -0.854555 2.643112 2.673462 0
M  V30 35 H 0.075138 0.436029 1.596606 0
M  V30 END ATOM
M  V30 BEGIN BOND
M  V30 1 1 1 2
M  V30 2 1 2 3
M  V30 3 1 3 4
M  V30 4 2 4 5
M  V30 5 1 4 6
M  V30 6 1 6 7
M  V30 7 2 7 8
M  V30 8 1 8 9
M  V30 9 1 9 10
M  V30 10 2 10 11
M  V30 11 1 11 12
M  V30 12 1 12 13
M  V30 13 2 12 14
M  V30 14 1 14 15
M  V30 15 1 15 16
M  V30 16 2 16 17
M  V30 17 1 17 18
M  V30 18 1 18 19
M  V30 19 1 14 20
M  V30 20 2 20 21
M  V30 21 1 21 7
M  V30 22 1 21 10
M  V30 23 2 19 15
M  V30 24 1 1 22
M  V30 25 1 1 23
M  V30 26 1 1 24
M  V30 27 1 2 25
M  V30 28 1 2 26
M  V30 29 1 3 27
M  V30 30 1 3 28
M  V30 31 1 6 29
M  V30 32 1 9 30
M  V30 33 1 11 31
M  V30 34 1 16 32
M  V30 35 1 17 33
M  V30 36 1 19 34
M  V30 37 1 20 35
M  V30 END BOND
M  V30 END CTAB
M  END
>  <Dataset>  (567) 
ChEMBL_Kinases

>  <Ligand_Instance>  (567) 
nan

>  <PDB_ID>  (567) 
nan

>  <Standardized_SMILES>  (567) 
CCCC(=O)Nc1n[nH]c2cc(Cl)c(-c3ccoc3)cc12

>  <Name>  (567) 
nan

>  <Pocket>  (567) 
nan

>  <ATP_Site>  (567) 
nan

>  <Peripheral>  (567) 
nan

>  <Num_H_Atoms_ProtBoundConf>  (567) 
nan

>  <Num_Resolved_Atoms>  (567) 
nan

>  <Num_Not_Resolved_Atoms>  (567) 
nan

$$$$
CHEMBL1077233
     RDKit          3D

  0  0  0  0  0  0  0  0  0  0999 V3000
M  V30 BEGIN CTAB
M  V30 COUNTS 37 39 0 0 0
M  V30 BEGIN ATOM
M  V30 1 C 1.365387 -4.867342 0.883743 0
M  V30 2 C 1.982049 -4.800464 2.242687 0
M  V30 3 C 1.551259 -3.535612 2.948317 0
M  V30 4 C 1.964635 -2.316926 2.193333 0
M  V30 5 O 2.592330 -2.255686 1.103873 0
M  V30 6 N 1.589033 -1.071999 2.804469 0
M  V30 7 C 1.962069 0.123106 2.120099 0
M  V30 8 N 3.111593 0.824346 2.268800 0
M  V30 9 N 3.091614 1.881076 1.456740 0
M  V30 10 C 1.943169 1.913378 0.753182 0
M  V30 11 C 1.464668 2.798204 -0.199843 0
M  V30 12 C 0.212885 2.551280 -0.753071 0
M  V30 13 Cl -0.405410 3.665248 -1.962295 0
M  V30 14 C -0.521667 1.463310 -0.363523 0
M  V30 15 C -1.845923 1.189096 -0.938972 0
M  V30 16 C -2.876167 2.100893 -1.151367 0
M  V30 17 C -4.038234 1.625013 -1.705489 0
M  V30 18 N -4.221586 0.339502 -2.046013 0
M  V30 19 C -3.238653 -0.573698 -1.852419 0
M  V30 20 C -2.045021 -0.131041 -1.292896 0
M  V30 21 C -0.034363 0.578651 0.594584 0
M  V30 22 C 1.213327 0.799899 1.164834 0
M  V30 23 H 0.491557 -4.156709 0.845290 0
M  V30 24 H 2.040259 -4.627660 0.050184 0
M  V30 25 H 0.892844 -5.865610 0.664452 0
M  V30 26 H 1.585171 -5.639212 2.859612 0
M  V30 27 H 3.068788 -4.909501 2.185075 0
M  V30 28 H 1.969348 -3.451656 3.959170 0
M  V30 29 H 0.447610 -3.556579 3.046722 0
M  V30 30 H 1.067290 -0.917164 3.703489 0
M  V30 31 H 3.882930 2.570097 1.402892 0
M  V30 32 H 2.090932 3.640644 -0.467483 0
M  V30 33 H -2.649957 3.098963 -0.854173 0
M  V30 34 H -4.823818 2.376006 -1.855798 0
M  V30 35 H -3.405996 -1.611356 -2.134852 0
M  V30 36 H -1.299290 -0.913230 -1.164703 0
M  V30 37 H -0.577015 -0.293691 0.934321 0
M  V30 END ATOM
M  V30 BEGIN BOND
M  V30 1 1 1 2
M  V30 2 1 2 3
M  V30 3 1 3 4
M  V30 4 2 4 5
M  V30 5 1 4 6
M  V30 6 1 6 7
M  V30 7 2 7 8
M  V30 8 1 8 9
M  V30 9 1 9 10
M  V30 10 2 10 11
M  V30 11 1 11 12
M  V30 12 1 12 13
M  V30 13 2 12 14
M  V30 14 1 14 15
M  V30 15 2 15 16
M  V30 16 1 16 17
M  V30 17 2 17 18
M  V30 18 1 18 19
M  V30 19 2 19 20
M  V30 20 1 14 21
M  V30 21 2 21 22
M  V30 22 1 22 7
M  V30 23 1 22 10
M  V30 24 1 20 15
M  V30 25 1 1 23
M  V30 26 1 1 24
M  V30 27 1 1 25
M  V30 28 1 2 26
M  V30 29 1 2 27
M  V30 30 1 3 28
M  V30 31 1 3 29
M  V30 32 1 6 30
M  V30 33 1 9 31
M  V30 34 1 11 32
M  V30 35 1 16 33
M  V30 36 1 17 34
M  V30 37 1 19 35
M  V30 38 1 20 36
M  V30 39 1 21 37
M  V30 END BOND
M  V30 END CTAB
M  END
>  <Dataset>  (568) 
ChEMBL_Kinases

>  <Ligand_Instance>  (568) 
nan

>  <PDB_ID>  (568) 
nan

>  <Standardized_SMILES>  (568) 
CCCC(=O)Nc1n[nH]c2cc(Cl)c(-c3ccncc3)cc12

>  <Name>  (568) 
nan

>  <Pocket>  (568) 
nan

>  <ATP_Site>  (568) 
nan

>  <Peripheral>  (568) 
nan

>  <Num_H_Atoms_ProtBoundConf>  (568) 
nan

>  <Num_Resolved_Atoms>  (568) 
nan

>  <Num_Not_Resolved_Atoms>  (568) 
nan

$$$$
CHEMBL1076560
     RDKit          3D

  0  0  0  0  0  0  0  0  0  0999 V3000
M  V30 BEGIN CTAB
M  V30 COUNTS 49 53 0 0 0
M  V30 BEGIN ATOM
M  V30 1 C -1.562725 -4.023542 -1.806707 0
M  V30 2 C -1.339214 -2.715065 -1.107510 0
M  V30 3 N -0.660129 -1.711092 -1.694408 0
M  V30 4 N -0.474572 -0.565058 -1.059619 0
M  V30 5 C -0.930533 -0.323273 0.169924 0
M  V30 6 N -0.703238 0.913321 0.794968 0
M  V30 7 C 0.039487 1.893052 0.045336 0
M  V30 8 C 1.195382 2.249864 0.711316 0
M  V30 9 C 2.060591 3.181285 0.167340 0
M  V30 10 C 3.313008 3.651992 0.756941 0
M  V30 11 O 4.070882 4.513683 0.208747 0
M  V30 12 N 3.808799 3.197598 1.995530 0
M  V30 13 C 5.035977 3.627573 2.622275 0
M  V30 14 C 5.728848 2.752732 3.585059 0
M  V30 15 C 4.921030 3.839179 4.167249 0
M  V30 16 C 1.719903 3.735157 -1.063090 0
M  V30 17 C 0.563216 3.376475 -1.726958 0
M  V30 18 C -0.295166 2.444593 -1.175032 0
M  V30 19 Cl -1.798119 1.873465 -1.872697 0
M  V30 20 C -1.636996 -1.298375 0.843761 0
M  V30 21 C -2.242377 -1.433637 2.060064 0
M  V30 22 N -2.776934 -2.687423 2.099302 0
M  V30 23 N -2.518848 -3.316807 0.954027 0
M  V30 24 C -2.989822 -4.647026 0.782910 0
M  V30 25 C -4.346153 -4.859965 0.568711 0
M  V30 26 C -4.837159 -6.139172 0.398679 0
M  V30 27 C -4.031541 -7.254493 0.430364 0
M  V30 28 F -4.481503 -8.521119 0.267297 0
M  V30 29 C -2.684551 -7.041756 0.643191 0
M  V30 30 C -2.176471 -5.781094 0.814286 0
M  V30 31 C -1.818572 -2.484253 0.163800 0
M  V30 32 H -0.804215 -4.784383 -1.538092 0
M  V30 33 H -2.590515 -4.374640 -1.687438 0
M  V30 34 H -1.419156 -3.854601 -2.914167 0
M  V30 35 H -1.052738 1.121379 1.758070 0
M  V30 36 H 1.536417 1.871741 1.666366 0
M  V30 37 H 3.272395 2.485428 2.544006 0
M  V30 38 H 5.678303 4.381527 2.120887 0
M  V30 39 H 6.837361 2.827956 3.704251 0
M  V30 40 H 5.372045 1.715833 3.692304 0
M  V30 41 H 5.314985 4.785041 4.547739 0
M  V30 42 H 3.949165 3.529883 4.625964 0
M  V30 43 H 2.361150 4.478745 -1.549848 0
M  V30 44 H 0.252505 3.773990 -2.680277 0
M  V30 45 H -2.244193 -0.641613 2.786542 0
M  V30 46 H -5.078470 -4.079725 0.521956 0
M  V30 47 H -5.899016 -6.367946 0.226220 0
M  V30 48 H -1.938956 -7.836303 0.690794 0
M  V30 49 H -1.106667 -5.586582 0.985263 0
M  V30 END ATOM
M  V30 BEGIN BOND
M  V30 1 1 1 2
M  V30 2 2 2 3
M  V30 3 1 3 4
M  V30 4 2 4 5
M  V30 5 1 5 6
M  V30 6 1 6 7
M  V30 7 2 7 8
M  V30 8 1 8 9
M  V30 9 1 9 10
M  V30 10 2 10 11
M  V30 11 1 10 12
M  V30 12 1 12 13
M  V30 13 1 13 14
M  V30 14 1 14 15
M  V30 15 2 9 16
M  V30 16 1 16 17
M  V30 17 2 17 18
M  V30 18 1 18 19
M  V30 19 1 5 20
M  V30 20 1 20 21
M  V30 21 2 21 22
M  V30 22 1 22 23
M  V30 23 1 23 24
M  V30 24 2 24 25
M  V30 25 1 25 26
M  V30 26 2 26 27
M  V30 27 1 27 28
M  V30 28 1 27 29
M  V30 29 2 29 30
M  V30 30 1 23 31
M  V30 31 1 31 2
M  V30 32 1 18 7
M  V30 33 2 31 20
M  V30 34 1 15 13
M  V30 35 1 30 24
M  V30 36 1 1 32
M  V30 37 1 1 33
M  V30 38 1 1 34
M  V30 39 1 6 35
M  V30 40 1 8 36
M  V30 41 1 12 37
M  V30 42 1 13 38
M  V30 43 1 14 39
M  V30 44 1 14 40
M  V30 45 1 15 41
M  V30 46 1 15 42
M  V30 47 1 16 43
M  V30 48 1 17 44
M  V30 49 1 21 45
M  V30 50 1 25 46
M  V30 51 1 26 47
M  V30 52 1 29 48
M  V30 53 1 30 49
M  V30 END BOND
M  V30 END CTAB
M  END
>  <Dataset>  (569) 
ChEMBL_Kinases

>  <Ligand_Instance>  (569) 
nan

>  <PDB_ID>  (569) 
nan

>  <Standardized_SMILES>  (569) 
Cc1nnc(Nc2cc(C(=O)NC3CC3)ccc2Cl)c2cnn(-c3ccc(F)cc3)c12

>  <Name>  (569) 
nan

>  <Pocket>  (569) 
nan

>  <ATP_Site>  (569) 
nan

>  <Peripheral>  (569) 
nan

>  <Num_H_Atoms_ProtBoundConf>  (569) 
nan

>  <Num_Resolved_Atoms>  (569) 
nan

>  <Num_Not_Resolved_Atoms>  (569) 
nan

$$$$
CHEMBL1090586
     RDKit          3D

  0  0  0  0  0  0  0  0  0  0999 V3000
M  V30 BEGIN CTAB
M  V30 COUNTS 57 61 0 0 0
M  V30 BEGIN ATOM
M  V30 1 C 2.039711 -4.643768 -1.385442 0
M  V30 2 C 1.610808 -3.244187 -0.949065 0 CFG=2
M  V30 3 N 1.466530 -3.215584 0.454603 0
M  V30 4 C 1.280897 -2.383440 1.597649 0
M  V30 5 N 1.099073 -2.730266 2.907779 0
M  V30 6 C 0.963679 -1.801813 3.858793 0
M  V30 7 C 1.002142 -0.476039 3.556169 0
M  V30 8 C 1.185919 -0.159809 2.231938 0
M  V30 9 N 1.218416 1.265277 1.973487 0
M  V30 10 C 2.481720 1.942600 2.022451 0
M  V30 11 C 3.248110 2.038967 0.763256 0
M  V30 12 C 2.629967 2.758761 -0.428264 0
M  V30 13 C 3.020727 1.283665 -0.464531 0
M  V30 14 C -0.011589 1.967755 1.685118 0
M  V30 15 O -0.498600 3.114786 1.398815 0
M  V30 16 C -1.278761 1.253543 1.673562 0
M  V30 17 C -1.820550 1.125819 2.957763 0
M  V30 18 C -3.034542 0.476265 3.193563 0
M  V30 19 C -3.686236 -0.040328 2.096466 0
M  V30 20 C -3.170028 0.075036 0.825948 0
M  V30 21 C -1.963975 0.724762 0.626843 0
M  V30 22 C -4.119888 -0.586955 -0.103731 0
M  V30 23 C -4.980501 -1.416297 0.845941 0
M  V30 24 O -4.902309 -0.723640 2.089714 0
M  V30 25 N 1.316938 -1.080914 1.312614 0
M  V30 26 C 0.493537 -2.775016 -1.771888 0
M  V30 27 C -0.273924 -1.641815 -1.739765 0
M  V30 28 C -1.309611 -1.333133 -2.585844 0
M  V30 29 C -1.650748 -2.219166 -3.584791 0
M  V30 30 C -0.940353 -3.392900 -3.705941 0
M  V30 31 C 0.076055 -3.617893 -2.818589 0
M  V30 32 H 2.848616 -4.927580 -0.650628 0
M  V30 33 H 1.214665 -5.350231 -1.225444 0
M  V30 34 H 2.516041 -4.656737 -2.363420 0
M  V30 35 H 2.486673 -2.596654 -1.219948 0
M  V30 36 H 1.500011 -4.191416 0.890085 0
M  V30 37 H 0.834156 -2.311133 4.799871 0
M  V30 38 H 0.883095 0.179017 4.396977 0
M  V30 39 H 2.255261 2.965159 2.453892 0
M  V30 40 H 3.108189 1.473882 2.818679 0
M  V30 41 H 4.318731 2.368794 0.920511 0
M  V30 42 H 3.250313 3.430873 -1.053601 0
M  V30 43 H 1.570967 3.045654 -0.406027 0
M  V30 44 H 3.901734 1.036868 -1.120966 0
M  V30 45 H 2.173672 0.638262 -0.697137 0
M  V30 46 H -1.350688 1.514259 3.870266 0
M  V30 47 H -3.443101 0.383037 4.190242 0
M  V30 48 H -1.505639 0.851721 -0.322430 0
M  V30 49 H -4.781376 0.173769 -0.562963 0
M  V30 50 H -3.631477 -1.229158 -0.862541 0
M  V30 51 H -6.044590 -1.434077 0.527198 0
M  V30 52 H -4.571969 -2.450058 0.944151 0
M  V30 53 H -0.033123 -0.940264 -0.990711 0
M  V30 54 H -1.840479 -0.411561 -2.463172 0
M  V30 55 H -2.465940 -1.955988 -4.235689 0
M  V30 56 H -1.208064 -4.085675 -4.486301 0
M  V30 57 H 0.583722 -4.578786 -2.994425 0
M  V30 END ATOM
M  V30 BEGIN BOND
M  V30 1 1 1 2
M  V30 2 1 2 3
M  V30 3 1 3 4
M  V30 4 2 4 5
M  V30 5 1 5 6
M  V30 6 2 6 7
M  V30 7 1 7 8
M  V30 8 1 8 9
M  V30 9 1 9 10
M  V30 10 1 10 11
M  V30 11 1 11 12
M  V30 12 1 12 13
M  V30 13 1 9 14
M  V30 14 2 14 15
M  V30 15 1 14 16
M  V30 16 2 16 17
M  V30 17 1 17 18
M  V30 18 2 18 19
M  V30 19 1 19 20
M  V30 20 2 20 21
M  V30 21 1 20 22
M  V30 22 1 22 23
M  V30 23 1 23 24
M  V30 24 2 8 25
M  V30 25 1 2 26
M  V30 26 2 26 27
M  V30 27 1 27 28
M  V30 28 2 28 29
M  V30 29 1 29 30
M  V30 30 2 30 31
M  V30 31 1 25 4
M  V30 32 1 31 26
M  V30 33 1 13 11
M  V30 34 1 21 16
M  V30 35 1 24 19
M  V30 36 1 1 32
M  V30 37 1 1 33
M  V30 38 1 1 34
M  V30 39 1 2 35 CFG=1
M  V30 40 1 3 36
M  V30 41 1 6 37
M  V30 42 1 7 38
M  V30 43 1 10 39
M  V30 44 1 10 40
M  V30 45 1 11 41
M  V30 46 1 12 42
M  V30 47 1 12 43
M  V30 48 1 13 44
M  V30 49 1 13 45
M  V30 50 1 17 46
M  V30 51 1 18 47
M  V30 52 1 21 48
M  V30 53 1 22 49
M  V30 54 1 22 50
M  V30 55 1 23 51
M  V30 56 1 23 52
M  V30 57 1 27 53
M  V30 58 1 28 54
M  V30 59 1 29 55
M  V30 60 1 30 56
M  V30 61 1 31 57
M  V30 END BOND
M  V30 END CTAB
M  END
>  <Dataset>  (570) 
ChEMBL_Kinases

>  <Ligand_Instance>  (570) 
nan

>  <PDB_ID>  (570) 
nan

>  <Standardized_SMILES>  (570) 
C[C@H](Nc1nccc(N(CC2CC2)C(=O)c2ccc3c(c2)CCO3)n1)c1ccccc1

>  <Name>  (570) 
nan

>  <Pocket>  (570) 
nan

>  <ATP_Site>  (570) 
nan

>  <Peripheral>  (570) 
nan

>  <Num_H_Atoms_ProtBoundConf>  (570) 
nan

>  <Num_Resolved_Atoms>  (570) 
nan

>  <Num_Not_Resolved_Atoms>  (570) 
nan

$$$$
CHEMBL1090585
     RDKit          3D

  0  0  0  0  0  0  0  0  0  0999 V3000
M  V30 BEGIN CTAB
M  V30 COUNTS 59 62 0 0 0
M  V30 BEGIN ATOM
M  V30 1 C 1.131055 -0.052904 4.232486 0
M  V30 2 C 1.677937 -1.281899 3.560904 0
M  V30 3 C 2.485046 -2.056472 4.594895 0
M  V30 4 C 2.623100 -0.991166 2.425939 0
M  V30 5 N 2.016236 -0.225310 1.371987 0
M  V30 6 C 2.120212 1.209008 1.497578 0
M  V30 7 O 2.715978 1.784464 2.460466 0
M  V30 8 C 1.573296 2.189147 0.565097 0
M  V30 9 C 1.799425 2.242318 -0.798423 0
M  V30 10 C 1.192603 3.255362 -1.549414 0
M  V30 11 C 0.373189 4.208842 -0.982186 0
M  V30 12 C 0.133078 4.175599 0.376916 0
M  V30 13 C 0.738298 3.171399 1.102971 0
M  V30 14 C -0.771366 5.296496 0.747209 0
M  V30 15 C -1.411878 5.578847 -0.595675 0
M  V30 16 O -0.338711 5.295923 -1.479532 0
M  V30 17 C 1.378410 -0.989262 0.326232 0
M  V30 18 C 1.979903 -1.447058 -0.835196 0
M  V30 19 C 1.189011 -2.161527 -1.710910 0
M  V30 20 N -0.106060 -2.394909 -1.434959 0
M  V30 21 C -0.676681 -1.949193 -0.312494 0
M  V30 22 N -2.041733 -2.196025 -0.024016 0
M  V30 23 C -2.849911 -2.960178 -0.967463 0 CFG=1
M  V30 24 C -2.861267 -2.259519 -2.290186 0
M  V30 25 C -2.366881 -4.345969 -1.020102 0
M  V30 26 C -2.135315 -5.145984 -2.106191 0
M  V30 27 C -1.677662 -6.435057 -1.954069 0
M  V30 28 C -1.434593 -6.969865 -0.690455 0
M  V30 29 C -1.666739 -6.165980 0.419867 0
M  V30 30 C -2.127336 -4.870140 0.251366 0
M  V30 31 N 0.073732 -1.246895 0.562856 0
M  V30 32 H 0.518559 0.571556 3.575636 0
M  V30 33 H 0.414101 -0.438494 5.014800 0
M  V30 34 H 1.904002 0.476803 4.790988 0
M  V30 35 H 0.853900 -1.938983 3.201280 0
M  V30 36 H 1.848996 -2.514448 5.364525 0
M  V30 37 H 3.194445 -1.341407 5.055679 0
M  V30 38 H 3.054974 -2.813728 3.982617 0
M  V30 39 H 2.974470 -1.954731 2.036328 0
M  V30 40 H 3.484073 -0.432956 2.861898 0
M  V30 41 H 2.439591 1.486249 -1.200008 0
M  V30 42 H 1.386468 3.269522 -2.603474 0
M  V30 43 H 0.534101 3.168630 2.159568 0
M  V30 44 H -1.526561 4.960687 1.487566 0
M  V30 45 H -0.207721 6.184974 1.081087 0
M  V30 46 H -2.199598 4.811716 -0.767391 0
M  V30 47 H -1.772878 6.618976 -0.678213 0
M  V30 48 H 3.018495 -1.196978 -0.939884 0
M  V30 49 H 1.692366 -2.507487 -2.617830 0
M  V30 50 H -2.471009 -1.836548 0.853029 0
M  V30 51 H -3.911531 -2.999105 -0.609573 0
M  V30 52 H -1.979189 -2.513819 -2.896640 0
M  V30 53 H -3.767752 -2.516136 -2.879421 0
M  V30 54 H -2.890693 -1.155245 -2.092720 0
M  V30 55 H -2.344986 -4.669444 -3.047618 0
M  V30 56 H -1.506200 -7.039381 -2.857717 0
M  V30 57 H -1.074889 -7.982532 -0.573767 0
M  V30 58 H -1.467136 -6.615542 1.385352 0
M  V30 59 H -2.263906 -4.359177 1.177954 0
M  V30 END ATOM
M  V30 BEGIN BOND
M  V30 1 1 1 2
M  V30 2 1 2 3
M  V30 3 1 2 4
M  V30 4 1 4 5
M  V30 5 1 5 6
M  V30 6 2 6 7
M  V30 7 1 6 8
M  V30 8 2 8 9
M  V30 9 1 9 10
M  V30 10 2 10 11
M  V30 11 1 11 12
M  V30 12 2 12 13
M  V30 13 1 12 14
M  V30 14 1 14 15
M  V30 15 1 15 16
M  V30 16 1 5 17
M  V30 17 2 17 18
M  V30 18 1 18 19
M  V30 19 2 19 20
M  V30 20 1 20 21
M  V30 21 1 21 22
M  V30 22 1 22 23
M  V30 23 1 23 24
M  V30 24 1 23 25
M  V30 25 2 25 26
M  V30 26 1 26 27
M  V30 27 2 27 28
M  V30 28 1 28 29
M  V30 29 2 29 30
M  V30 30 2 21 31
M  V30 31 1 13 8
M  V30 32 1 31 17
M  V30 33 1 16 11
M  V30 34 1 30 25
M  V30 35 1 1 32
M  V30 36 1 1 33
M  V30 37 1 1 34
M  V30 38 1 2 35
M  V30 39 1 3 36
M  V30 40 1 3 37
M  V30 41 1 3 38
M  V30 42 1 4 39
M  V30 43 1 4 40
M  V30 44 1 9 41
M  V30 45 1 10 42
M  V30 46 1 13 43
M  V30 47 1 14 44
M  V30 48 1 14 45
M  V30 49 1 15 46
M  V30 50 1 15 47
M  V30 51 1 18 48
M  V30 52 1 19 49
M  V30 53 1 22 50
M  V30 54 1 23 51 CFG=1
M  V30 55 1 24 52
M  V30 56 1 24 53
M  V30 57 1 24 54
M  V30 58 1 26 55
M  V30 59 1 27 56
M  V30 60 1 28 57
M  V30 61 1 29 58
M  V30 62 1 30 59
M  V30 END BOND
M  V30 END CTAB
M  END
>  <Dataset>  (571) 
ChEMBL_Kinases

>  <Ligand_Instance>  (571) 
nan

>  <PDB_ID>  (571) 
nan

>  <Standardized_SMILES>  (571) 
CC(C)CN(C(=O)c1ccc2c(c1)CCO2)c1ccnc(N[C@@H](C)c2ccccc2)n1

>  <Name>  (571) 
nan

>  <Pocket>  (571) 
nan

>  <ATP_Site>  (571) 
nan

>  <Peripheral>  (571) 
nan

>  <Num_H_Atoms_ProtBoundConf>  (571) 
nan

>  <Num_Resolved_Atoms>  (571) 
nan

>  <Num_Not_Resolved_Atoms>  (571) 
nan

$$$$
CHEMBL1090360
     RDKit          3D

  0  0  0  0  0  0  0  0  0  0999 V3000
M  V30 BEGIN CTAB
M  V30 COUNTS 72 78 0 0 0
M  V30 BEGIN ATOM
M  V30 1 O -0.627319 4.323985 -2.501491 0
M  V30 2 C -1.568345 3.676958 -1.996897 0
M  V30 3 C -2.351425 4.423500 -0.981567 0
M  V30 4 C -1.795161 5.794904 -0.821749 0
M  V30 5 C -0.812197 6.162815 0.071362 0
M  V30 6 C -0.347930 7.449819 0.161418 0
M  V30 7 C -0.908008 8.396653 -0.692083 0
M  V30 8 C -1.894498 8.081481 -1.604509 0
M  V30 9 C -2.333569 6.772680 -1.662375 0
M  V30 10 N -1.807582 2.363561 -2.401041 0
M  V30 11 C -1.123970 1.571171 -3.353007 0
M  V30 12 C -0.042077 1.952245 -4.100081 0
M  V30 13 C 0.602541 1.155603 -5.022595 0
M  V30 14 C 0.140663 -0.130259 -5.227561 0
M  V30 15 C -0.950153 -0.541395 -4.486939 0
M  V30 16 C -1.491257 -1.880303 -4.652307 0
M  V30 17 N -1.949404 -2.113760 -5.896091 0
M  V30 18 C -2.431543 -3.381831 -5.948906 0
M  V30 19 S -3.218074 -4.713208 -6.939608 0
M  V30 20 C -3.232045 -5.934776 -5.485418 0
M  V30 21 C -2.658300 -5.196819 -4.476201 0
M  V30 22 N -2.275673 -3.946513 -4.734582 0
M  V30 23 C -1.700537 -3.027663 -3.942077 0
M  V30 24 C -1.277086 -3.014584 -2.544104 0
M  V30 25 C -2.228733 -3.216492 -1.569739 0
M  V30 26 C -1.741681 -3.189333 -0.287948 0
M  V30 27 N -0.464556 -2.985214 -0.033785 0
M  V30 28 C 0.432371 -2.792440 -1.008557 0
M  V30 29 N 1.814168 -2.571918 -0.771760 0
M  V30 30 C 2.525723 -2.522052 0.454310 0
M  V30 31 C 3.877858 -2.266725 0.517013 0
M  V30 32 C 4.603211 -2.212795 1.682367 0
M  V30 33 C 3.976051 -2.421985 2.890571 0
M  V30 34 C 2.639096 -2.679574 2.897728 0
M  V30 35 N 2.010912 -2.892529 4.153773 0
M  V30 36 C 2.808271 -2.800726 5.359909 0
M  V30 37 C 1.837881 -2.578812 6.524242 0
M  V30 38 O 1.028584 -3.676134 6.726284 0
M  V30 39 C 0.587689 -4.231060 5.527180 0
M  V30 40 C 0.618422 -3.204379 4.403916 0
M  V30 41 C 1.970731 -2.719875 1.695707 0
M  V30 42 N 0.020283 -2.807188 -2.285575 0
M  V30 43 C -1.564794 0.289167 -3.574123 0
M  V30 44 H -2.308255 3.921344 0.005829 0
M  V30 45 H -3.430107 4.505368 -1.265096 0
M  V30 46 H -0.432024 5.362979 0.697664 0
M  V30 47 H 0.425044 7.663646 0.886173 0
M  V30 48 H -0.510108 9.412381 -0.588779 0
M  V30 49 H -2.311393 8.851624 -2.259529 0
M  V30 50 H -3.111553 6.555477 -2.391262 0
M  V30 51 H -2.626912 1.958922 -1.887775 0
M  V30 52 H 0.365094 2.927782 -3.993233 0
M  V30 53 H 1.455342 1.504401 -5.588853 0
M  V30 54 H 0.618743 -0.786133 -5.942007 0
M  V30 55 H -3.649644 -6.894125 -5.701258 0
M  V30 56 H -2.623649 -5.816662 -3.599100 0
M  V30 57 H -3.245575 -3.376349 -1.833302 0
M  V30 58 H -2.453060 -3.344189 0.531778 0
M  V30 59 H 2.437518 -2.418456 -1.601958 0
M  V30 60 H 4.430359 -2.091639 -0.420515 0
M  V30 61 H 5.658373 -2.005964 1.630095 0
M  V30 62 H 4.616130 -2.362934 3.758978 0
M  V30 63 H 3.358826 -3.720198 5.578670 0
M  V30 64 H 3.471140 -1.906369 5.379502 0
M  V30 65 H 1.251450 -1.647708 6.396130 0
M  V30 66 H 2.465688 -2.468084 7.434886 0
M  V30 67 H -0.455258 -4.566296 5.661820 0
M  V30 68 H 1.206693 -5.087268 5.251237 0
M  V30 69 H 0.160236 -3.700757 3.531800 0
M  V30 70 H 0.030510 -2.312721 4.673560 0
M  V30 71 H 0.920247 -2.930501 1.809423 0
M  V30 72 H -2.431454 -0.088406 -3.009285 0
M  V30 END ATOM
M  V30 BEGIN BOND
M  V30 1 2 1 2
M  V30 2 1 2 3
M  V30 3 1 3 4
M  V30 4 2 4 5
M  V30 5 1 5 6
M  V30 6 2 6 7
M  V30 7 1 7 8
M  V30 8 2 8 9
M  V30 9 1 2 10
M  V30 10 1 10 11
M  V30 11 2 11 12
M  V30 12 1 12 13
M  V30 13 2 13 14
M  V30 14 1 14 15
M  V30 15 1 15 16
M  V30 16 1 16 17
M  V30 17 2 17 18
M  V30 18 1 18 19
M  V30 19 1 19 20
M  V30 20 2 20 21
M  V30 21 1 21 22
M  V30 22 1 22 23
M  V30 23 1 23 24
M  V30 24 2 24 25
M  V30 25 1 25 26
M  V30 26 2 26 27
M  V30 27 1 27 28
M  V30 28 1 28 29
M  V30 29 1 29 30
M  V30 30 2 30 31
M  V30 31 1 31 32
M  V30 32 2 32 33
M  V30 33 1 33 34
M  V30 34 1 34 35
M  V30 35 1 35 36
M  V30 36 1 36 37
M  V30 37 1 37 38
M  V30 38 1 38 39
M  V30 39 1 39 40
M  V30 40 2 34 41
M  V30 41 2 28 42
M  V30 42 2 15 43
M  V30 43 1 9 4
M  V30 44 1 43 11
M  V30 45 2 23 16
M  V30 46 1 42 24
M  V30 47 1 22 18
M  V30 48 1 41 30
M  V30 49 1 40 35
M  V30 50 1 3 44
M  V30 51 1 3 45
M  V30 52 1 5 46
M  V30 53 1 6 47
M  V30 54 1 7 48
M  V30 55 1 8 49
M  V30 56 1 9 50
M  V30 57 1 10 51
M  V30 58 1 12 52
M  V30 59 1 13 53
M  V30 60 1 14 54
M  V30 61 1 20 55
M  V30 62 1 21 56
M  V30 63 1 25 57
M  V30 64 1 26 58
M  V30 65 1 29 59
M  V30 66 1 31 60
M  V30 67 1 32 61
M  V30 68 1 33 62
M  V30 69 1 36 63
M  V30 70 1 36 64
M  V30 71 1 37 65
M  V30 72 1 37 66
M  V30 73 1 39 67
M  V30 74 1 39 68
M  V30 75 1 40 69
M  V30 76 1 40 70
M  V30 77 1 41 71
M  V30 78 1 43 72
M  V30 END BOND
M  V30 END CTAB
M  END
>  <Dataset>  (572) 
ChEMBL_Kinases

>  <Ligand_Instance>  (572) 
nan

>  <PDB_ID>  (572) 
nan

>  <Standardized_SMILES>  (572) 
O=C(Cc1ccccc1)Nc1cccc(-c2nc3sccn3c2-c2ccnc(Nc3cccc(N4CCOCC4)c3)n2)c1

>  <Name>  (572) 
nan

>  <Pocket>  (572) 
nan

>  <ATP_Site>  (572) 
nan

>  <Peripheral>  (572) 
nan

>  <Num_H_Atoms_ProtBoundConf>  (572) 
nan

>  <Num_Resolved_Atoms>  (572) 
nan

>  <Num_Not_Resolved_Atoms>  (572) 
nan

$$$$
CHEMBL1090246
     RDKit          3D

  0  0  0  0  0  0  0  0  0  0999 V3000
M  V30 BEGIN CTAB
M  V30 COUNTS 69 73 0 0 0
M  V30 BEGIN ATOM
M  V30 1 C 5.602154 -1.133218 3.812217 0
M  V30 2 C 4.624935 -0.306413 2.999421 0 CFG=2
M  V30 3 N 3.583478 -1.142844 2.427161 0
M  V30 4 C 2.528036 -0.582415 1.654667 0
M  V30 5 N 2.497724 0.742095 1.453038 0
M  V30 6 C 1.497356 1.323803 0.725944 0
M  V30 7 C 0.547095 0.445086 0.230967 0
M  V30 8 C 0.550280 -0.930683 0.422515 0
M  V30 9 N -0.486414 -1.741512 -0.127339 0
M  V30 10 C -0.736016 -2.423605 -1.357589 0
M  V30 11 C -1.436266 -1.587700 -2.418909 0
M  V30 12 C -2.765581 -1.088748 -1.973330 0
M  V30 13 C -3.317433 0.004385 -2.865495 0
M  V30 14 N -2.325899 1.065880 -2.829989 0
M  V30 15 C -2.609901 2.385784 -2.453596 0
M  V30 16 N -3.865761 2.917680 -2.048441 0
M  V30 17 O -1.863224 3.417501 -2.375187 0
M  V30 18 C -0.962453 0.790067 -3.194917 0
M  V30 19 C -0.529553 -0.619306 -3.080471 0
M  V30 20 C -1.360811 -1.702083 1.000201 0
M  V30 21 O -0.714514 -0.951307 1.797155 0
M  V30 22 C -2.631143 -2.204224 1.470188 0
M  V30 23 C -2.502157 -3.525615 1.914107 0
M  V30 24 C -3.587022 -4.244908 2.417332 0
M  V30 25 C -4.788493 -3.560457 2.443381 0
M  V30 26 C -4.947840 -2.262194 2.014987 0
M  V30 27 C -3.855846 -1.583350 1.525243 0
M  V30 28 C -6.368269 -1.868364 2.192306 0
M  V30 29 C -6.767879 -2.846763 3.310617 0
M  V30 30 O -6.045349 -4.008031 2.886351 0
M  V30 31 N 1.586344 -1.405657 1.158250 0
M  V30 32 C 5.361560 0.440735 1.916373 0
M  V30 33 C 5.696218 1.778752 1.871837 0
M  V30 34 C 6.385684 2.245658 0.772743 0
M  V30 35 C 6.763039 1.450481 -0.289515 0
M  V30 36 C 6.416267 0.112956 -0.220733 0
M  V30 37 C 5.725323 -0.388380 0.864278 0
M  V30 38 H 6.622324 -0.701651 3.689115 0
M  V30 39 H 5.643439 -2.187633 3.486786 0
M  V30 40 H 5.376011 -1.051793 4.903703 0
M  V30 41 H 4.123949 0.392701 3.699137 0
M  V30 42 H 3.638415 -2.173094 2.604275 0
M  V30 43 H 1.406953 2.379010 0.520121 0
M  V30 44 H -0.267710 0.867308 -0.356267 0
M  V30 45 H -1.412878 -3.287979 -1.096874 0
M  V30 46 H 0.153966 -2.855348 -1.826573 0
M  V30 47 H -1.676928 -2.370418 -3.206721 0
M  V30 48 H -3.544943 -1.874989 -1.932523 0
M  V30 49 H -2.742272 -0.630820 -0.956081 0
M  V30 50 H -4.257607 0.364776 -2.383007 0
M  V30 51 H -3.481463 -0.322177 -3.908259 0
M  V30 52 H -4.763769 3.181561 -2.550502 0
M  V30 53 H -4.308252 3.216255 -1.133477 0
M  V30 54 H -0.248068 1.518191 -2.698126 0
M  V30 55 H -0.893700 1.119126 -4.277512 0
M  V30 56 H -0.155120 -0.983333 -4.085489 0
M  V30 57 H 0.424130 -0.613684 -2.471414 0
M  V30 58 H -1.578064 -4.125418 1.914680 0
M  V30 59 H -3.507132 -5.262821 2.763155 0
M  V30 60 H -3.865495 -0.570102 1.159245 0
M  V30 61 H -6.948510 -2.102482 1.275375 0
M  V30 62 H -6.501428 -0.822631 2.492513 0
M  V30 63 H -7.841909 -3.006769 3.376534 0
M  V30 64 H -6.269104 -2.502373 4.234474 0
M  V30 65 H 5.369910 2.327686 2.729114 0
M  V30 66 H 6.625147 3.301081 0.775227 0
M  V30 67 H 7.306134 1.877391 -1.133502 0
M  V30 68 H 6.742140 -0.467021 -1.089932 0
M  V30 69 H 5.543000 -1.451416 0.741362 0
M  V30 END ATOM
M  V30 BEGIN BOND
M  V30 1 1 1 2
M  V30 2 1 2 3
M  V30 3 1 3 4
M  V30 4 2 4 5
M  V30 5 1 5 6
M  V30 6 2 6 7
M  V30 7 1 7 8
M  V30 8 1 8 9
M  V30 9 1 9 10
M  V30 10 1 10 11
M  V30 11 1 11 12
M  V30 12 1 12 13
M  V30 13 1 13 14
M  V30 14 1 14 15
M  V30 15 1 15 16
M  V30 16 2 15 17
M  V30 17 1 14 18
M  V30 18 1 18 19
M  V30 19 1 9 20
M  V30 20 2 20 21
M  V30 21 1 20 22
M  V30 22 2 22 23
M  V30 23 1 23 24
M  V30 24 2 24 25
M  V30 25 1 25 26
M  V30 26 2 26 27
M  V30 27 1 26 28
M  V30 28 1 28 29
M  V30 29 1 29 30
M  V30 30 2 8 31
M  V30 31 1 2 32
M  V30 32 2 32 33
M  V30 33 1 33 34
M  V30 34 2 34 35
M  V30 35 1 35 36
M  V30 36 2 36 37
M  V30 37 1 31 4
M  V30 38 1 37 32
M  V30 39 1 19 11
M  V30 40 1 27 22
M  V30 41 1 30 25
M  V30 42 1 1 38
M  V30 43 1 1 39
M  V30 44 1 1 40
M  V30 45 1 2 41 CFG=1
M  V30 46 1 3 42
M  V30 47 1 6 43
M  V30 48 1 7 44
M  V30 49 1 10 45
M  V30 50 1 10 46
M  V30 51 1 11 47
M  V30 52 1 12 48
M  V30 53 1 12 49
M  V30 54 1 13 50
M  V30 55 1 13 51
M  V30 56 1 16 52
M  V30 57 1 16 53
M  V30 58 1 18 54
M  V30 59 1 18 55
M  V30 60 1 19 56
M  V30 61 1 19 57
M  V30 62 1 23 58
M  V30 63 1 24 59
M  V30 64 1 27 60
M  V30 65 1 28 61
M  V30 66 1 28 62
M  V30 67 1 29 63
M  V30 68 1 29 64
M  V30 69 1 33 65
M  V30 70 1 34 66
M  V30 71 1 35 67
M  V30 72 1 36 68
M  V30 73 1 37 69
M  V30 END BOND
M  V30 END CTAB
M  END
>  <Dataset>  (573) 
ChEMBL_Kinases

>  <Ligand_Instance>  (573) 
nan

>  <PDB_ID>  (573) 
nan

>  <Standardized_SMILES>  (573) 
C[C@H](Nc1nccc(N(CC2CCN(C(N)=O)CC2)C(=O)c2ccc3c(c2)CCO3)n1)c1ccccc1

>  <Name>  (573) 
nan

>  <Pocket>  (573) 
nan

>  <ATP_Site>  (573) 
nan

>  <Peripheral>  (573) 
nan

>  <Num_H_Atoms_ProtBoundConf>  (573) 
nan

>  <Num_Resolved_Atoms>  (573) 
nan

>  <Num_Not_Resolved_Atoms>  (573) 
nan

$$$$
CHEMBL1090230
     RDKit          3D

  0  0  0  0  0  0  0  0  0  0999 V3000
M  V30 BEGIN CTAB
M  V30 COUNTS 65 69 0 0 0
M  V30 BEGIN ATOM
M  V30 1 C 1.410763 1.640320 4.433541 0
M  V30 2 C 0.138588 0.901186 4.210652 0 CFG=2
M  V30 3 N 0.442939 -0.358969 3.520971 0
M  V30 4 C 1.100559 -0.725443 2.326687 0
M  V30 5 N 2.399579 -1.069692 2.459587 0
M  V30 6 C 3.022652 -1.430642 1.293635 0
M  V30 7 C 2.294332 -1.417325 0.092096 0
M  V30 8 C 0.950847 -1.052908 0.003902 0
M  V30 9 N 0.704709 -1.218550 -1.387675 0
M  V30 10 C 1.098509 -0.185068 -2.312926 0
M  V30 11 C 0.027882 0.810308 -2.656531 0
M  V30 12 C 0.492841 1.875038 -3.598123 0
M  V30 13 C 0.178426 3.281413 -3.178157 0
M  V30 14 N 0.417763 3.519584 -1.777774 0
M  V30 15 C -0.295370 2.637698 -0.916751 0
M  V30 16 C -0.756342 1.372723 -1.543466 0
M  V30 17 C 0.112612 -2.421090 -1.919687 0
M  V30 18 O -0.031936 -2.587046 -3.178985 0
M  V30 19 C -0.332962 -3.463210 -1.021459 0
M  V30 20 C -1.417965 -3.023237 -0.242963 0
M  V30 21 C -2.046584 -3.810275 0.702138 0
M  V30 22 C -1.567341 -5.088305 0.871058 0
M  V30 23 C -0.518831 -5.550299 0.135813 0
M  V30 24 C 0.095456 -4.751453 -0.800654 0
M  V30 25 C -0.251696 -6.943223 0.546871 0
M  V30 26 C -1.554006 -7.342909 1.229790 0
M  V30 27 O -2.012906 -6.093455 1.749726 0
M  V30 28 N 0.412849 -0.711655 1.194266 0
M  V30 29 C -0.814183 1.712418 3.410557 0
M  V30 30 C -1.829340 0.845910 2.977985 0
M  V30 31 C -2.895067 1.307086 2.192899 0
M  V30 32 C -2.915683 2.644789 1.855972 0
M  V30 33 C -1.918793 3.475154 2.284367 0
M  V30 34 C -0.863046 3.032458 3.059955 0
M  V30 35 H 1.276929 2.398618 5.260652 0
M  V30 36 H 1.780826 2.116051 3.509121 0
M  V30 37 H 2.189144 0.909520 4.770097 0
M  V30 38 H -0.329971 0.639114 5.182949 0
M  V30 39 H 0.147739 -1.277005 3.922867 0
M  V30 40 H 4.074754 -1.695744 1.474929 0
M  V30 41 H 3.050688 -1.750452 -0.644837 0
M  V30 42 H 2.057182 0.307576 -1.967348 0
M  V30 43 H 1.409777 -0.707956 -3.260518 0
M  V30 44 H -0.735005 0.181374 -3.261177 0
M  V30 45 H 0.008868 1.735374 -4.582398 0
M  V30 46 H 1.593616 1.782484 -3.812893 0
M  V30 47 H 0.865953 3.961499 -3.728391 0
M  V30 48 H -0.848329 3.609709 -3.406284 0
M  V30 49 H 1.391823 3.735684 -1.523779 0
M  V30 50 H -1.200310 3.228965 -0.557122 0
M  V30 51 H 0.285855 2.452354 0.029386 0
M  V30 52 H -0.971896 0.577506 -0.792026 0
M  V30 53 H -1.795415 1.598900 -1.951815 0
M  V30 54 H -1.864702 -2.023487 -0.312788 0
M  V30 55 H -2.878889 -3.468742 1.297352 0
M  V30 56 H 0.924350 -5.007125 -1.437458 0
M  V30 57 H -0.013471 -7.627310 -0.288241 0
M  V30 58 H 0.541411 -6.966909 1.340223 0
M  V30 59 H -1.390948 -8.030396 2.054429 0
M  V30 60 H -2.283788 -7.720223 0.496304 0
M  V30 61 H -1.944733 -0.224591 3.161814 0
M  V30 62 H -3.699202 0.707712 1.831629 0
M  V30 63 H -3.718726 3.045842 1.253851 0
M  V30 64 H -1.865155 4.540316 2.062872 0
M  V30 65 H -0.018696 3.552206 3.466074 0
M  V30 END ATOM
M  V30 BEGIN BOND
M  V30 1 1 1 2
M  V30 2 1 2 3
M  V30 3 1 3 4
M  V30 4 2 4 5
M  V30 5 1 5 6
M  V30 6 2 6 7
M  V30 7 1 7 8
M  V30 8 1 8 9
M  V30 9 1 9 10
M  V30 10 1 10 11
M  V30 11 1 11 12
M  V30 12 1 12 13
M  V30 13 1 13 14
M  V30 14 1 14 15
M  V30 15 1 15 16
M  V30 16 1 9 17
M  V30 17 2 17 18
M  V30 18 1 17 19
M  V30 19 2 19 20
M  V30 20 1 20 21
M  V30 21 2 21 22
M  V30 22 1 22 23
M  V30 23 2 23 24
M  V30 24 1 23 25
M  V30 25 1 25 26
M  V30 26 1 26 27
M  V30 27 2 8 28
M  V30 28 1 2 29
M  V30 29 2 29 30
M  V30 30 1 30 31
M  V30 31 2 31 32
M  V30 32 1 32 33
M  V30 33 2 33 34
M  V30 34 1 28 4
M  V30 35 1 34 29
M  V30 36 1 16 11
M  V30 37 1 24 19
M  V30 38 1 27 22
M  V30 39 1 1 35
M  V30 40 1 1 36
M  V30 41 1 1 37
M  V30 42 1 2 38 CFG=1
M  V30 43 1 3 39
M  V30 44 1 6 40
M  V30 45 1 7 41
M  V30 46 1 10 42
M  V30 47 1 10 43
M  V30 48 1 11 44
M  V30 49 1 12 45
M  V30 50 1 12 46
M  V30 51 1 13 47
M  V30 52 1 13 48
M  V30 53 1 14 49
M  V30 54 1 15 50
M  V30 55 1 15 51
M  V30 56 1 16 52
M  V30 57 1 16 53
M  V30 58 1 20 54
M  V30 59 1 21 55
M  V30 60 1 24 56
M  V30 61 1 25 57
M  V30 62 1 25 58
M  V30 63 1 26 59
M  V30 64 1 26 60
M  V30 65 1 30 61
M  V30 66 1 31 62
M  V30 67 1 32 63
M  V30 68 1 33 64
M  V30 69 1 34 65
M  V30 END BOND
M  V30 END CTAB
M  END
>  <Dataset>  (574) 
ChEMBL_Kinases

>  <Ligand_Instance>  (574) 
nan

>  <PDB_ID>  (574) 
nan

>  <Standardized_SMILES>  (574) 
C[C@H](Nc1nccc(N(CC2CCNCC2)C(=O)c2ccc3c(c2)CCO3)n1)c1ccccc1

>  <Name>  (574) 
nan

>  <Pocket>  (574) 
nan

>  <ATP_Site>  (574) 
nan

>  <Peripheral>  (574) 
nan

>  <Num_H_Atoms_ProtBoundConf>  (574) 
nan

>  <Num_Resolved_Atoms>  (574) 
nan

>  <Num_Not_Resolved_Atoms>  (574) 
nan

$$$$
CHEMBL1090156
     RDKit          3D

  0  0  0  0  0  0  0  0  0  0999 V3000
M  V30 BEGIN CTAB
M  V30 COUNTS 50 53 0 0 0
M  V30 BEGIN ATOM
M  V30 1 C 2.415788 -1.878747 6.054141 0
M  V30 2 C 3.191596 -2.495720 4.880311 0
M  V30 3 N 2.785544 -1.789398 3.680850 0
M  V30 4 C 3.336115 -0.684226 3.140563 0
M  V30 5 C 2.595704 -0.378952 1.999857 0
M  V30 6 C 2.732221 0.680419 1.041133 0
M  V30 7 C 2.993151 0.219602 -0.251578 0
M  V30 8 C 3.157883 1.083909 -1.317399 0
M  V30 9 N 3.057807 2.401482 -1.068782 0
M  V30 10 C 2.812112 2.906101 0.134003 0
M  V30 11 N 2.657912 4.130070 0.691470 0
M  V30 12 C 2.411912 4.049039 2.018896 0
M  V30 13 C 2.395706 2.700996 2.394895 0
M  V30 14 C 2.647369 2.048551 1.197778 0
M  V30 15 C 1.612619 -1.324005 1.893456 0
M  V30 16 C 0.521400 -1.567525 0.955562 0
M  V30 17 C -0.515389 -0.626125 0.934684 0
M  V30 18 C -1.553582 -0.840777 0.053952 0
M  V30 19 C -1.662514 -1.893113 -0.803706 0
M  V30 20 N -2.714548 -2.144781 -1.713006 0
M  V30 21 C -3.888267 -1.412791 -1.930294 0
M  V30 22 O -4.117351 -0.373565 -1.262981 0
M  V30 23 N -4.935365 -1.676452 -2.851916 0
M  V30 24 C -5.898918 -0.605931 -2.647742 0
M  V30 25 C -5.172582 -2.712033 -3.845265 0
M  V30 26 C -0.633640 -2.811558 -0.771983 0
M  V30 27 C 0.430516 -2.640659 0.094557 0
M  V30 28 N 1.770259 -2.172877 2.952201 0
M  V30 29 H 1.853162 -2.672891 6.598579 0
M  V30 30 H 3.060708 -1.268340 6.705290 0
M  V30 31 H 1.624370 -1.185259 5.669358 0
M  V30 32 H 4.280652 -2.401915 5.064618 0
M  V30 33 H 2.919444 -3.560325 4.825092 0
M  V30 34 H 4.182839 -0.117336 3.489827 0
M  V30 35 H 3.094969 -0.833459 -0.555658 0
M  V30 36 H 3.361474 0.749909 -2.333827 0
M  V30 37 H 2.720308 5.021352 0.161195 0
M  V30 38 H 2.255537 4.900304 2.668329 0
M  V30 39 H 2.230046 2.280429 3.364115 0
M  V30 40 H -0.471062 0.211194 1.587420 0
M  V30 41 H -2.311884 -0.100891 0.078521 0
M  V30 42 H -2.699528 -2.968673 -2.353893 0
M  V30 43 H -6.716287 -0.623169 -3.423943 0
M  V30 44 H -6.356295 -0.705522 -1.620469 0
M  V30 45 H -5.480895 0.399618 -2.698025 0
M  V30 46 H -5.879279 -3.494900 -3.511512 0
M  V30 47 H -4.234071 -3.234244 -4.120881 0
M  V30 48 H -5.553401 -2.189733 -4.768918 0
M  V30 49 H -0.643943 -3.674041 -1.420026 0
M  V30 50 H 1.231203 -3.364480 0.110414 0
M  V30 END ATOM
M  V30 BEGIN BOND
M  V30 1 1 1 2
M  V30 2 1 2 3
M  V30 3 1 3 4
M  V30 4 2 4 5
M  V30 5 1 5 6
M  V30 6 2 6 7
M  V30 7 1 7 8
M  V30 8 2 8 9
M  V30 9 1 9 10
M  V30 10 1 10 11
M  V30 11 1 11 12
M  V30 12 2 12 13
M  V30 13 1 13 14
M  V30 14 1 5 15
M  V30 15 1 15 16
M  V30 16 2 16 17
M  V30 17 1 17 18
M  V30 18 2 18 19
M  V30 19 1 19 20
M  V30 20 1 20 21
M  V30 21 2 21 22
M  V30 22 1 21 23
M  V30 23 1 23 24
M  V30 24 1 23 25
M  V30 25 1 19 26
M  V30 26 2 26 27
M  V30 27 2 15 28
M  V30 28 1 28 3
M  V30 29 1 14 6
M  V30 30 1 27 16
M  V30 31 2 14 10
M  V30 32 1 1 29
M  V30 33 1 1 30
M  V30 34 1 1 31
M  V30 35 1 2 32
M  V30 36 1 2 33
M  V30 37 1 4 34
M  V30 38 1 7 35
M  V30 39 1 8 36
M  V30 40 1 11 37
M  V30 41 1 12 38
M  V30 42 1 13 39
M  V30 43 1 17 40
M  V30 44 1 18 41
M  V30 45 1 20 42
M  V30 46 1 24 43
M  V30 47 1 24 44
M  V30 48 1 24 45
M  V30 49 1 25 46
M  V30 50 1 25 47
M  V30 51 1 25 48
M  V30 52 1 26 49
M  V30 53 1 27 50
M  V30 END BOND
M  V30 END CTAB
M  END
>  <Dataset>  (575) 
ChEMBL_Kinases

>  <Ligand_Instance>  (575) 
nan

>  <PDB_ID>  (575) 
nan

>  <Standardized_SMILES>  (575) 
CCn1cc(-c2ccnc3[nH]ccc23)c(-c2ccc(NC(=O)N(C)C)cc2)n1

>  <Name>  (575) 
nan

>  <Pocket>  (575) 
nan

>  <ATP_Site>  (575) 
nan

>  <Peripheral>  (575) 
nan

>  <Num_H_Atoms_ProtBoundConf>  (575) 
nan

>  <Num_Resolved_Atoms>  (575) 
nan

>  <Num_Not_Resolved_Atoms>  (575) 
nan

$$$$
CHEMBL1089866
     RDKit          3D

  0  0  0  0  0  0  0  0  0  0999 V3000
M  V30 BEGIN CTAB
M  V30 COUNTS 55 59 0 0 0
M  V30 BEGIN ATOM
M  V30 1 C -2.456470 1.595579 0.720954 0
M  V30 2 C -2.827059 0.433122 -0.208364 0
M  V30 3 N -1.930733 -0.644063 0.111246 0
M  V30 4 C -0.732772 -0.709698 -0.545279 0
M  V30 5 O -0.426292 0.142558 -1.397700 0
M  V30 6 C 0.208830 -1.695185 -0.325800 0
M  V30 7 C 1.465394 -1.745717 -1.028495 0
M  V30 8 C 2.498464 -1.060654 -0.413067 0
M  V30 9 C 3.756296 -1.030916 -0.984360 0
M  V30 10 C 4.936287 -0.352612 -0.452451 0
M  V30 11 O 6.073767 -0.337542 -0.989031 0
M  V30 12 N 4.877699 0.373648 0.769517 0
M  V30 13 C 6.009019 1.055716 1.331751 0
M  V30 14 C 6.110293 1.376744 2.761852 0
M  V30 15 C 5.667539 2.473336 1.805856 0
M  V30 16 C 3.957341 -1.702531 -2.186110 0
M  V30 17 C 2.914388 -2.392817 -2.805235 0
M  V30 18 C 1.643476 -2.426242 -2.233582 0
M  V30 19 C 0.478358 -3.115526 -2.790869 0
M  V30 20 C -0.038697 -2.684798 0.599778 0
M  V30 21 C -1.239145 -2.646394 1.278734 0
M  V30 22 C -1.889069 -3.407614 2.256699 0
M  V30 23 N -3.095003 -2.826042 2.507767 0
M  V30 24 N -3.236155 -1.749810 1.746783 0
M  V30 25 C -4.471036 -1.078880 1.936873 0
M  V30 26 C -5.623898 -1.522068 1.270928 0
M  V30 27 C -6.890569 -0.987053 1.357945 0
M  V30 28 C -7.020890 0.100450 2.193992 0
M  V30 29 F -8.247748 0.662594 2.313308 0
M  V30 30 C -5.926563 0.585926 2.878305 0
M  V30 31 C -4.678680 0.011331 2.754803 0
M  V30 32 F -3.641622 0.497496 3.439377 0
M  V30 33 C -2.125514 -1.629299 1.001686 0
M  V30 34 H -3.331557 2.073761 1.173249 0
M  V30 35 H -1.858871 2.364960 0.199756 0
M  V30 36 H -1.834735 1.239085 1.575864 0
M  V30 37 H -3.881182 0.264156 -0.042667 0
M  V30 38 H -2.584587 0.789594 -1.233100 0
M  V30 39 H 2.394491 -0.531267 0.507294 0
M  V30 40 H 3.990491 0.445198 1.324759 0
M  V30 41 H 6.933933 0.977677 0.745828 0
M  V30 42 H 5.334326 1.109798 3.499726 0
M  V30 43 H 7.138880 1.453254 3.185561 0
M  V30 44 H 4.622825 2.809788 1.811804 0
M  V30 45 H 6.402676 3.274203 1.626480 0
M  V30 46 H 4.885254 -1.741567 -2.707761 0
M  V30 47 H 3.044947 -2.928794 -3.749565 0
M  V30 48 H 0.433770 -4.127225 -2.361080 0
M  V30 49 H -0.464695 -2.541292 -2.711570 0
M  V30 50 H 0.615267 -3.270772 -3.886653 0
M  V30 51 H 0.626578 -3.482817 0.835260 0
M  V30 52 H -1.454630 -4.294107 2.697108 0
M  V30 53 H -5.471747 -2.392520 0.614513 0
M  V30 54 H -7.679847 -1.444001 0.779105 0
M  V30 55 H -6.015738 1.448917 3.545528 0
M  V30 END ATOM
M  V30 BEGIN BOND
M  V30 1 1 1 2
M  V30 2 1 2 3
M  V30 3 1 3 4
M  V30 4 2 4 5
M  V30 5 1 4 6
M  V30 6 1 6 7
M  V30 7 2 7 8
M  V30 8 1 8 9
M  V30 9 1 9 10
M  V30 10 2 10 11
M  V30 11 1 10 12
M  V30 12 1 12 13
M  V30 13 1 13 14
M  V30 14 1 14 15
M  V30 15 2 9 16
M  V30 16 1 16 17
M  V30 17 2 17 18
M  V30 18 1 18 19
M  V30 19 2 6 20
M  V30 20 1 20 21
M  V30 21 1 21 22
M  V30 22 2 22 23
M  V30 23 1 23 24
M  V30 24 1 24 25
M  V30 25 2 25 26
M  V30 26 1 26 27
M  V30 27 2 27 28
M  V30 28 1 28 29
M  V30 29 1 28 30
M  V30 30 2 30 31
M  V30 31 1 31 32
M  V30 32 1 24 33
M  V30 33 1 33 3
M  V30 34 1 18 7
M  V30 35 2 33 21
M  V30 36 1 15 13
M  V30 37 1 31 25
M  V30 38 1 1 34
M  V30 39 1 1 35
M  V30 40 1 1 36
M  V30 41 1 2 37
M  V30 42 1 2 38
M  V30 43 1 8 39
M  V30 44 1 12 40
M  V30 45 1 13 41
M  V30 46 1 14 42
M  V30 47 1 14 43
M  V30 48 1 15 44
M  V30 49 1 15 45
M  V30 50 1 16 46
M  V30 51 1 17 47
M  V30 52 1 19 48
M  V30 53 1 19 49
M  V30 54 1 19 50
M  V30 55 1 20 51
M  V30 56 1 22 52
M  V30 57 1 26 53
M  V30 58 1 27 54
M  V30 59 1 30 55
M  V30 END BOND
M  V30 END CTAB
M  END
>  <Dataset>  (576) 
ChEMBL_Kinases

>  <Ligand_Instance>  (576) 
nan

>  <PDB_ID>  (576) 
nan

>  <Standardized_SMILES>  (576) 
CCn1c(=O)c(-c2cc(C(=O)NC3CC3)ccc2C)cc2cnn(-c3ccc(F)cc3F)c21

>  <Name>  (576) 
nan

>  <Pocket>  (576) 
nan

>  <ATP_Site>  (576) 
nan

>  <Peripheral>  (576) 
nan

>  <Num_H_Atoms_ProtBoundConf>  (576) 
nan

>  <Num_Resolved_Atoms>  (576) 
nan

>  <Num_Not_Resolved_Atoms>  (576) 
nan

$$$$
CHEMBL1089723
     RDKit          3D

  0  0  0  0  0  0  0  0  0  0999 V3000
M  V30 BEGIN CTAB
M  V30 COUNTS 46 49 0 0 0
M  V30 BEGIN ATOM
M  V30 1 C 2.291535 -5.991254 4.798118 0
M  V30 2 C 2.410063 -4.795126 3.888469 0
M  V30 3 C 1.977248 -5.068628 2.489831 0
M  V30 4 C 2.106512 -3.861688 1.614043 0
M  V30 5 O 2.544772 -3.188911 2.581869 0
M  V30 6 N 1.768636 -3.832323 0.236536 0
M  V30 7 C 2.035005 -2.495878 -0.243426 0
M  V30 8 N 3.236718 -2.121389 -0.753389 0
M  V30 9 N 3.192085 -0.837447 -1.111564 0
M  V30 10 C 1.943294 -0.375855 -0.828786 0
M  V30 11 C 1.351628 0.864245 -0.990980 0
M  V30 12 C 0.036047 1.029246 -0.599317 0
M  V30 13 C -0.464735 2.380104 -0.821955 0
M  V30 14 C -1.410362 2.884616 -1.668652 0
M  V30 15 C -1.688871 4.231928 -1.661340 0
M  V30 16 C -1.036322 5.119633 -0.812636 0
M  V30 17 O -1.393754 6.457096 -0.887531 0
M  V30 18 C -0.087420 4.623678 0.039051 0
M  V30 19 C 0.198534 3.267309 0.037459 0
M  V30 20 C -0.715799 0.011573 -0.052984 0
M  V30 21 C -2.096414 0.221838 0.346178 0
M  V30 22 C -3.332210 0.490263 -0.205546 0
M  V30 23 C -4.240274 0.559826 0.836816 0
M  V30 24 C -3.503229 0.326598 1.993115 0
M  V30 25 O -2.269897 0.138317 1.641348 0
M  V30 26 C -0.124017 -1.246638 0.114383 0
M  V30 27 C 1.190426 -1.397547 -0.280728 0
M  V30 28 H 2.679187 -6.918541 4.335275 0
M  V30 29 H 2.745456 -5.802940 5.778760 0
M  V30 30 H 1.198116 -6.132545 5.005009 0
M  V30 31 H 3.500541 -4.538328 3.864662 0
M  V30 32 H 1.801272 -3.970774 4.285046 0
M  V30 33 H 2.592912 -5.893666 2.073019 0
M  V30 34 H 0.926478 -5.473841 2.486317 0
M  V30 35 H 1.417273 -4.720565 -0.139222 0
M  V30 36 H 3.979371 -0.299644 -1.530401 0
M  V30 37 H 1.974296 1.635540 -1.422937 0
M  V30 38 H -1.844069 2.118716 -2.276319 0
M  V30 39 H -2.456248 4.524156 -2.374128 0
M  V30 40 H -1.570952 7.035283 -0.078146 0
M  V30 41 H 0.390034 5.353713 0.677008 0
M  V30 42 H 0.980192 3.029002 0.776610 0
M  V30 43 H -3.358478 0.586762 -1.274966 0
M  V30 44 H -5.257737 0.767575 0.538066 0
M  V30 45 H -4.051452 0.341827 2.924245 0
M  V30 46 H -0.677096 -2.081785 0.541624 0
M  V30 END ATOM
M  V30 BEGIN BOND
M  V30 1 1 1 2
M  V30 2 1 2 3
M  V30 3 1 3 4
M  V30 4 2 4 5
M  V30 5 1 4 6
M  V30 6 1 6 7
M  V30 7 2 7 8
M  V30 8 1 8 9
M  V30 9 1 9 10
M  V30 10 2 10 11
M  V30 11 1 11 12
M  V30 12 1 12 13
M  V30 13 2 13 14
M  V30 14 1 14 15
M  V30 15 2 15 16
M  V30 16 1 16 17
M  V30 17 1 16 18
M  V30 18 2 18 19
M  V30 19 2 12 20
M  V30 20 1 20 21
M  V30 21 2 21 22
M  V30 22 1 22 23
M  V30 23 2 23 24
M  V30 24 1 24 25
M  V30 25 1 20 26
M  V30 26 2 26 27
M  V30 27 1 27 7
M  V30 28 1 27 10
M  V30 29 1 19 13
M  V30 30 1 25 21
M  V30 31 1 1 28
M  V30 32 1 1 29
M  V30 33 1 1 30
M  V30 34 1 2 31
M  V30 35 1 2 32
M  V30 36 1 3 33
M  V30 37 1 3 34
M  V30 38 1 6 35
M  V30 39 1 9 36
M  V30 40 1 11 37
M  V30 41 1 14 38
M  V30 42 1 15 39
M  V30 43 1 17 40
M  V30 44 1 18 41
M  V30 45 1 19 42
M  V30 46 1 22 43
M  V30 47 1 23 44
M  V30 48 1 24 45
M  V30 49 1 26 46
M  V30 END BOND
M  V30 END CTAB
M  END
>  <Dataset>  (577) 
ChEMBL_Kinases

>  <Ligand_Instance>  (577) 
nan

>  <PDB_ID>  (577) 
nan

>  <Standardized_SMILES>  (577) 
CCCC(=O)Nc1n[nH]c2cc(-c3ccc(O)cc3)c(-c3ccco3)cc12

>  <Name>  (577) 
nan

>  <Pocket>  (577) 
nan

>  <ATP_Site>  (577) 
nan

>  <Peripheral>  (577) 
nan

>  <Num_H_Atoms_ProtBoundConf>  (577) 
nan

>  <Num_Resolved_Atoms>  (577) 
nan

>  <Num_Not_Resolved_Atoms>  (577) 
nan

$$$$
CHEMBL1089722
     RDKit          3D

  0  0  0  0  0  0  0  0  0  0999 V3000
M  V30 BEGIN CTAB
M  V30 COUNTS 28 29 0 0 0
M  V30 BEGIN ATOM
M  V30 1 C -2.114318 -4.223264 1.365030 0
M  V30 2 C -1.564662 -3.541132 2.601477 0
M  V30 3 C -0.171131 -3.026543 2.370235 0
M  V30 4 C -0.098667 -2.040284 1.273994 0
M  V30 5 O -1.093653 -1.645677 0.578074 0
M  V30 6 N 1.159592 -1.488601 0.966786 0
M  V30 7 C 1.387015 -0.528719 -0.060705 0
M  V30 8 N 1.694783 -0.719391 -1.359395 0
M  V30 9 N 1.828143 0.431716 -1.998024 0
M  V30 10 C 1.604226 1.418388 -1.105334 0
M  V30 11 C 1.615279 2.786172 -1.236508 0
M  V30 12 C 1.358422 3.656849 -0.196382 0
M  V30 13 Cl 1.373396 5.406126 -0.367661 0
M  V30 14 C 1.077479 3.079562 1.035325 0
M  V30 15 Br 0.702666 4.170770 2.564172 0
M  V30 16 C 1.061100 1.694419 1.190243 0
M  V30 17 C 1.321153 0.855059 0.134594 0
M  V30 18 H -1.264715 -4.699581 0.850078 0
M  V30 19 H -2.605308 -3.453701 0.748500 0
M  V30 20 H -2.823951 -5.043734 1.595908 0
M  V30 21 H -2.217931 -2.748466 2.983101 0
M  V30 22 H -1.493413 -4.316011 3.392363 0
M  V30 23 H 0.447673 -3.902295 2.039424 0
M  V30 24 H 0.229226 -2.663891 3.332630 0
M  V30 25 H 2.047622 -1.747967 1.483016 0
M  V30 26 H 2.067542 0.553462 -3.024796 0
M  V30 27 H 1.830460 3.268906 -2.182433 0
M  V30 28 H 0.847578 1.214840 2.128895 0
M  V30 END ATOM
M  V30 BEGIN BOND
M  V30 1 1 1 2
M  V30 2 1 2 3
M  V30 3 1 3 4
M  V30 4 2 4 5
M  V30 5 1 4 6
M  V30 6 1 6 7
M  V30 7 2 7 8
M  V30 8 1 8 9
M  V30 9 1 9 10
M  V30 10 2 10 11
M  V30 11 1 11 12
M  V30 12 1 12 13
M  V30 13 2 12 14
M  V30 14 1 14 15
M  V30 15 1 14 16
M  V30 16 2 16 17
M  V30 17 1 17 7
M  V30 18 1 17 10
M  V30 19 1 1 18
M  V30 20 1 1 19
M  V30 21 1 1 20
M  V30 22 1 2 21
M  V30 23 1 2 22
M  V30 24 1 3 23
M  V30 25 1 3 24
M  V30 26 1 6 25
M  V30 27 1 9 26
M  V30 28 1 11 27
M  V30 29 1 16 28
M  V30 END BOND
M  V30 END CTAB
M  END
>  <Dataset>  (578) 
ChEMBL_Kinases

>  <Ligand_Instance>  (578) 
nan

>  <PDB_ID>  (578) 
nan

>  <Standardized_SMILES>  (578) 
CCCC(=O)Nc1n[nH]c2cc(Cl)c(Br)cc12

>  <Name>  (578) 
nan

>  <Pocket>  (578) 
nan

>  <ATP_Site>  (578) 
nan

>  <Peripheral>  (578) 
nan

>  <Num_H_Atoms_ProtBoundConf>  (578) 
nan

>  <Num_Resolved_Atoms>  (578) 
nan

>  <Num_Not_Resolved_Atoms>  (578) 
nan

$$$$
CHEMBL1089655
     RDKit          3D

  0  0  0  0  0  0  0  0  0  0999 V3000
M  V30 BEGIN CTAB
M  V30 COUNTS 54 56 0 0 0
M  V30 BEGIN ATOM
M  V30 1 C 0.411693 -2.607146 5.730462 0
M  V30 2 C 0.850192 -2.600213 4.277083 0
M  V30 3 C -0.395284 -2.296166 3.452175 0
M  V30 4 N 1.842466 -1.548170 4.050663 0
M  V30 5 C 2.354826 -1.495060 2.717331 0
M  V30 6 N 3.547157 -1.976995 2.314625 0
M  V30 7 C 3.894036 -1.897362 1.008371 0
M  V30 8 C 3.044174 -1.327808 0.055792 0
M  V30 9 C 1.829641 -0.848607 0.523762 0
M  V30 10 N 0.877102 -0.328938 -0.435206 0
M  V30 11 C -0.228927 0.381841 0.200734 0
M  V30 12 C 0.171463 1.788467 0.548608 0
M  V30 13 C -0.959956 2.485872 1.222842 0
M  V30 14 C -0.566652 3.909340 1.583322 0
M  V30 15 N 0.551621 3.978958 2.488441 0
M  V30 16 C 1.093434 -0.390607 -1.835759 0
M  V30 17 O 2.042426 -0.393958 -2.640026 0
M  V30 18 C -0.112630 -0.503571 -2.661397 0
M  V30 19 C -0.909739 0.163256 -3.548049 0
M  V30 20 C -1.996816 -0.435536 -4.113365 0
M  V30 21 C -2.444498 -1.718311 -3.907008 0
M  V30 22 C -1.641709 -2.431760 -2.995873 0
M  V30 23 C -0.526908 -1.833143 -2.406698 0
M  V30 24 C -2.222522 -3.806749 -2.819955 0
M  V30 25 C -3.676917 -3.510169 -3.225808 0
M  V30 26 O -3.447387 -2.594994 -4.296645 0
M  V30 27 N 1.512023 -0.941294 1.839444 0
M  V30 28 H 1.103149 -3.270465 6.302744 0
M  V30 29 H -0.608286 -3.076214 5.816846 0
M  V30 30 H 0.427891 -1.592460 6.174239 0
M  V30 31 H 1.200970 -3.605909 4.015502 0
M  V30 32 H -1.215681 -2.988908 3.727412 0
M  V30 33 H -0.154857 -2.510985 2.403631 0
M  V30 34 H -0.719258 -1.269145 3.662602 0
M  V30 35 H 2.196712 -0.856306 4.767514 0
M  V30 36 H 4.882919 -2.310399 0.731106 0
M  V30 37 H 3.387672 -1.288056 -0.969779 0
M  V30 38 H -1.005877 0.492183 -0.604169 0
M  V30 39 H -0.652822 -0.179952 1.012071 0
M  V30 40 H 0.476184 2.352000 -0.363901 0
M  V30 41 H 1.013347 1.790550 1.302318 0
M  V30 42 H -1.898488 2.495294 0.650995 0
M  V30 43 H -1.198028 2.018355 2.223678 0
M  V30 44 H -1.449862 4.375204 2.066790 0
M  V30 45 H -0.416365 4.500436 0.653764 0
M  V30 46 H 0.732004 3.037005 2.887481 0
M  V30 47 H 0.268906 4.589830 3.302852 0
M  V30 48 H -0.506558 1.135738 -3.669830 0
M  V30 49 H -2.559559 0.168363 -4.796597 0
M  V30 50 H -0.033637 -2.554643 -1.725907 0
M  V30 51 H -2.145927 -4.175957 -1.776334 0
M  V30 52 H -1.780853 -4.488759 -3.548737 0
M  V30 53 H -4.203038 -3.087268 -2.370223 0
M  V30 54 H -4.142009 -4.444163 -3.595230 0
M  V30 END ATOM
M  V30 BEGIN BOND
M  V30 1 1 1 2
M  V30 2 1 2 3
M  V30 3 1 2 4
M  V30 4 1 4 5
M  V30 5 2 5 6
M  V30 6 1 6 7
M  V30 7 2 7 8
M  V30 8 1 8 9
M  V30 9 1 9 10
M  V30 10 1 10 11
M  V30 11 1 11 12
M  V30 12 1 12 13
M  V30 13 1 13 14
M  V30 14 1 14 15
M  V30 15 1 10 16
M  V30 16 2 16 17
M  V30 17 1 16 18
M  V30 18 2 18 19
M  V30 19 1 19 20
M  V30 20 2 20 21
M  V30 21 1 21 22
M  V30 22 2 22 23
M  V30 23 1 22 24
M  V30 24 1 24 25
M  V30 25 1 25 26
M  V30 26 2 9 27
M  V30 27 1 27 5
M  V30 28 1 23 18
M  V30 29 1 26 21
M  V30 30 1 1 28
M  V30 31 1 1 29
M  V30 32 1 1 30
M  V30 33 1 2 31
M  V30 34 1 3 32
M  V30 35 1 3 33
M  V30 36 1 3 34
M  V30 37 1 4 35
M  V30 38 1 7 36
M  V30 39 1 8 37
M  V30 40 1 11 38
M  V30 41 1 11 39
M  V30 42 1 12 40
M  V30 43 1 12 41
M  V30 44 1 13 42
M  V30 45 1 13 43
M  V30 46 1 14 44
M  V30 47 1 14 45
M  V30 48 1 15 46
M  V30 49 1 15 47
M  V30 50 1 19 48
M  V30 51 1 20 49
M  V30 52 1 23 50
M  V30 53 1 24 51
M  V30 54 1 24 52
M  V30 55 1 25 53
M  V30 56 1 25 54
M  V30 END BOND
M  V30 END CTAB
M  END
>  <Dataset>  (579) 
ChEMBL_Kinases

>  <Ligand_Instance>  (579) 
nan

>  <PDB_ID>  (579) 
nan

>  <Standardized_SMILES>  (579) 
CC(C)Nc1nccc(N(CCCCN)C(=O)c2ccc3c(c2)CCO3)n1

>  <Name>  (579) 
nan

>  <Pocket>  (579) 
nan

>  <ATP_Site>  (579) 
nan

>  <Peripheral>  (579) 
nan

>  <Num_H_Atoms_ProtBoundConf>  (579) 
nan

>  <Num_Resolved_Atoms>  (579) 
nan

>  <Num_Not_Resolved_Atoms>  (579) 
nan

$$$$
CHEMBL1089534
     RDKit          3D

  0  0  0  0  0  0  0  0  0  0999 V3000
M  V30 BEGIN CTAB
M  V30 COUNTS 52 56 0 0 0
M  V30 BEGIN ATOM
M  V30 1 C -0.210985 -0.192802 4.634010 0
M  V30 2 C 0.760311 0.551906 3.790176 0
M  V30 3 C 1.711706 1.372112 4.354761 0
M  V30 4 C 2.577726 2.028901 3.491638 0
M  V30 5 C 2.534496 1.903550 2.115502 0
M  V30 6 C 3.514437 2.660144 1.344747 0
M  V30 7 O 4.330195 3.371409 1.950042 0
M  V30 8 N 3.579587 2.621385 -0.069941 0
M  V30 9 C 4.530766 3.351578 -0.882045 0
M  V30 10 C 4.167697 3.905106 -2.203964 0
M  V30 11 C 5.126492 2.732118 -2.088704 0
M  V30 12 C 1.584046 1.084431 1.555608 0
M  V30 13 C 0.707960 0.419292 2.417805 0
M  V30 14 C -0.266464 -0.427732 1.733710 0
M  V30 15 C -1.450896 0.205548 1.399478 0
M  V30 16 C -2.414068 -0.541727 0.750206 0
M  V30 17 C -3.681704 -0.255129 0.275512 0
M  V30 18 N -4.127291 -1.419347 -0.269638 0
M  V30 19 N -3.195248 -2.354939 -0.137386 0
M  V30 20 C -3.508203 -3.641121 -0.660443 0
M  V30 21 C -3.872287 -4.784374 0.059001 0
M  V30 22 C -4.137628 -5.942567 -0.640179 0
M  V30 23 F -4.483000 -7.004275 0.127889 0
M  V30 24 C -4.054444 -6.003170 -2.015997 0
M  V30 25 C -3.692831 -4.876158 -2.762428 0
M  V30 26 C -3.429602 -3.718114 -2.034728 0
M  V30 27 F -3.085484 -2.667017 -2.825161 0
M  V30 28 C -2.111052 -1.862689 0.489134 0
M  V30 29 N -0.969058 -2.500004 0.803403 0
M  V30 30 C -0.760120 -3.897623 0.477891 0
M  V30 31 C -0.019312 -1.758111 1.445126 0
M  V30 32 O 1.062242 -2.270509 1.770026 0
M  V30 33 H -0.782016 -0.896763 4.016255 0
M  V30 34 H 0.343739 -0.661092 5.475104 0
M  V30 35 H -0.922893 0.514113 5.105489 0
M  V30 36 H 1.754949 1.477663 5.427056 0
M  V30 37 H 3.306712 2.661479 3.987212 0
M  V30 38 H 2.909110 2.033833 -0.612757 0
M  V30 39 H 5.232588 3.968595 -0.282780 0
M  V30 40 H 4.622610 4.846815 -2.557896 0
M  V30 41 H 3.170016 3.728205 -2.655771 0
M  V30 42 H 4.738276 1.800542 -2.522123 0
M  V30 43 H 6.194921 2.912648 -2.321988 0
M  V30 44 H 1.544431 0.981649 0.479798 0
M  V30 45 H -1.638007 1.242025 1.626732 0
M  V30 46 H -4.166020 0.708639 0.349627 0
M  V30 47 H -3.906732 -4.628356 1.121643 0
M  V30 48 H -4.278751 -6.949425 -2.483488 0
M  V30 49 H -3.633609 -4.942911 -3.830777 0
M  V30 50 H 0.347516 -4.080300 0.607055 0
M  V30 51 H -1.226031 -4.570626 1.225625 0
M  V30 52 H -0.964451 -4.133343 -0.565379 0
M  V30 END ATOM
M  V30 BEGIN BOND
M  V30 1 1 1 2
M  V30 2 2 2 3
M  V30 3 1 3 4
M  V30 4 2 4 5
M  V30 5 1 5 6
M  V30 6 2 6 7
M  V30 7 1 6 8
M  V30 8 1 8 9
M  V30 9 1 9 10
M  V30 10 1 10 11
M  V30 11 1 5 12
M  V30 12 2 12 13
M  V30 13 1 13 14
M  V30 14 2 14 15
M  V30 15 1 15 16
M  V30 16 1 16 17
M  V30 17 2 17 18
M  V30 18 1 18 19
M  V30 19 1 19 20
M  V30 20 2 20 21
M  V30 21 1 21 22
M  V30 22 1 22 23
M  V30 23 2 22 24
M  V30 24 1 24 25
M  V30 25 2 25 26
M  V30 26 1 26 27
M  V30 27 1 19 28
M  V30 28 1 28 29
M  V30 29 1 29 30
M  V30 30 1 29 31
M  V30 31 2 31 32
M  V30 32 1 13 2
M  V30 33 1 31 14
M  V30 34 1 11 9
M  V30 35 2 28 16
M  V30 36 1 26 20
M  V30 37 1 1 33
M  V30 38 1 1 34
M  V30 39 1 1 35
M  V30 40 1 3 36
M  V30 41 1 4 37
M  V30 42 1 8 38
M  V30 43 1 9 39
M  V30 44 1 10 40
M  V30 45 1 10 41
M  V30 46 1 11 42
M  V30 47 1 11 43
M  V30 48 1 12 44
M  V30 49 1 15 45
M  V30 50 1 17 46
M  V30 51 1 21 47
M  V30 52 1 24 48
M  V30 53 1 25 49
M  V30 54 1 30 50
M  V30 55 1 30 51
M  V30 56 1 30 52
M  V30 END BOND
M  V30 END CTAB
M  END
>  <Dataset>  (580) 
ChEMBL_Kinases

>  <Ligand_Instance>  (580) 
nan

>  <PDB_ID>  (580) 
nan

>  <Standardized_SMILES>  (580) 
Cc1ccc(C(=O)NC2CC2)cc1-c1cc2cnn(-c3cc(F)ccc3F)c2n(C)c1=O

>  <Name>  (580) 
nan

>  <Pocket>  (580) 
nan

>  <ATP_Site>  (580) 
nan

>  <Peripheral>  (580) 
nan

>  <Num_H_Atoms_ProtBoundConf>  (580) 
nan

>  <Num_Resolved_Atoms>  (580) 
nan

>  <Num_Not_Resolved_Atoms>  (580) 
nan

$$$$
CHEMBL1089513
     RDKit          3D

  0  0  0  0  0  0  0  0  0  0999 V3000
M  V30 BEGIN CTAB
M  V30 COUNTS 48 52 0 0 0
M  V30 BEGIN ATOM
M  V30 1 C -5.516137 -3.558115 4.608263 0
M  V30 2 N -4.663058 -4.053112 3.524362 0
M  V30 3 C -3.710228 -3.223495 2.844009 0
M  V30 4 N -3.535156 -1.911674 3.163700 0
M  V30 5 O -2.620103 -1.398477 2.401561 0
M  V30 6 C -2.162043 -2.307496 1.572844 0
M  V30 7 C -1.218649 -2.360789 0.563721 0
M  V30 8 C -0.472140 -1.146278 0.247214 0
M  V30 9 C -0.949273 -0.262177 -0.698692 0
M  V30 10 C -0.217302 0.875472 -0.972242 0
M  V30 11 C -0.380504 1.960933 -1.837268 0
M  V30 12 N 0.704784 2.753543 -1.624479 0
M  V30 13 N 1.488358 2.212759 -0.701169 0
M  V30 14 C 2.662409 2.951881 -0.389152 0
M  V30 15 C 3.765724 2.942615 -1.251079 0
M  V30 16 F 3.667594 2.194594 -2.400598 0
M  V30 17 C 4.945934 3.624834 -1.039743 0
M  V30 18 C 5.055539 4.378233 0.109795 0
M  V30 19 C 4.007397 4.421309 0.984695 0
M  V30 20 C 2.845704 3.726406 0.738337 0
M  V30 21 F 1.831826 3.792060 1.621563 0
M  V30 22 C 0.957754 1.053687 -0.271664 0
M  V30 23 N 1.464644 0.231321 0.652410 0
M  V30 24 C 2.714274 0.505471 1.339015 0
M  V30 25 C 0.712178 -0.882345 0.895009 0
M  V30 26 O 1.142078 -1.697726 1.760278 0
M  V30 27 C -0.949376 -3.496418 -0.154067 0
M  V30 28 C 0.079633 -3.459677 -1.218380 0
M  V30 29 C -1.660125 -4.645623 0.150008 0
M  V30 30 C -2.623149 -4.676964 1.147243 0
M  V30 31 C -2.842677 -3.495901 1.830324 0
M  V30 32 H -5.612113 -4.359619 5.362893 0
M  V30 33 H -5.008437 -2.690760 5.109292 0
M  V30 34 H -6.515689 -3.271288 4.276843 0
M  V30 35 H -4.730677 -5.055661 3.210673 0
M  V30 36 H -1.875392 -0.428839 -1.232736 0
M  V30 37 H -1.212956 2.104706 -2.520319 0
M  V30 38 H 5.745404 3.557696 -1.763239 0
M  V30 39 H 5.949305 4.936105 0.337377 0
M  V30 40 H 4.053280 5.006783 1.908176 0
M  V30 41 H 3.534443 0.815510 0.693849 0
M  V30 42 H 2.950696 -0.446866 1.900239 0
M  V30 43 H 2.471776 1.229203 2.162461 0
M  V30 44 H -0.333068 -3.155359 -2.210803 0
M  V30 45 H 0.951677 -2.845810 -0.926903 0
M  V30 46 H 0.457627 -4.498517 -1.359336 0
M  V30 47 H -1.430655 -5.537966 -0.432757 0
M  V30 48 H -3.177106 -5.575380 1.383197 0
M  V30 END ATOM
M  V30 BEGIN BOND
M  V30 1 1 1 2
M  V30 2 1 2 3
M  V30 3 2 3 4
M  V30 4 1 4 5
M  V30 5 1 5 6
M  V30 6 2 6 7
M  V30 7 1 7 8
M  V30 8 2 8 9
M  V30 9 1 9 10
M  V30 10 1 10 11
M  V30 11 2 11 12
M  V30 12 1 12 13
M  V30 13 1 13 14
M  V30 14 2 14 15
M  V30 15 1 15 16
M  V30 16 1 15 17
M  V30 17 2 17 18
M  V30 18 1 18 19
M  V30 19 2 19 20
M  V30 20 1 20 21
M  V30 21 1 13 22
M  V30 22 1 22 23
M  V30 23 1 23 24
M  V30 24 1 23 25
M  V30 25 2 25 26
M  V30 26 1 7 27
M  V30 27 1 27 28
M  V30 28 2 27 29
M  V30 29 1 29 30
M  V30 30 2 30 31
M  V30 31 1 31 3
M  V30 32 1 31 6
M  V30 33 1 25 8
M  V30 34 2 22 10
M  V30 35 1 20 14
M  V30 36 1 1 32
M  V30 37 1 1 33
M  V30 38 1 1 34
M  V30 39 1 2 35
M  V30 40 1 9 36
M  V30 41 1 11 37
M  V30 42 1 17 38
M  V30 43 1 18 39
M  V30 44 1 19 40
M  V30 45 1 24 41
M  V30 46 1 24 42
M  V30 47 1 24 43
M  V30 48 1 28 44
M  V30 49 1 28 45
M  V30 50 1 28 46
M  V30 51 1 29 47
M  V30 52 1 30 48
M  V30 END BOND
M  V30 END CTAB
M  END
>  <Dataset>  (581) 
ChEMBL_Kinases

>  <Ligand_Instance>  (581) 
nan

>  <PDB_ID>  (581) 
nan

>  <Standardized_SMILES>  (581) 
CNc1noc2c(-c3cc4cnn(-c5c(F)cccc5F)c4n(C)c3=O)c(C)ccc12

>  <Name>  (581) 
nan

>  <Pocket>  (581) 
nan

>  <ATP_Site>  (581) 
nan

>  <Peripheral>  (581) 
nan

>  <Num_H_Atoms_ProtBoundConf>  (581) 
nan

>  <Num_Resolved_Atoms>  (581) 
nan

>  <Num_Not_Resolved_Atoms>  (581) 
nan

$$$$
CHEMBL1089457
     RDKit          3D

  0  0  0  0  0  0  0  0  0  0999 V3000
M  V30 BEGIN CTAB
M  V30 COUNTS 54 58 0 0 0
M  V30 BEGIN ATOM
M  V30 1 C 0.450523 0.316508 4.588913 0
M  V30 2 C 1.045778 1.152999 3.514730 0
M  V30 3 C 1.849542 2.235107 3.815298 0
M  V30 4 C 2.397648 3.006381 2.787100 0
M  V30 5 C 2.136181 2.687342 1.470294 0
M  V30 6 C 2.744908 3.540528 0.454397 0
M  V30 7 O 3.455740 4.494614 0.825770 0
M  V30 8 N 2.581308 3.356456 -0.941676 0
M  V30 9 C 3.171562 4.184415 -1.951465 0
M  V30 10 C 3.625025 3.527777 -3.258444 0
M  V30 11 C 2.368786 4.286208 -3.256822 0
M  V30 12 C 1.338036 1.612266 1.191467 0
M  V30 13 C 0.775204 0.821601 2.198267 0
M  V30 14 C -0.061933 -0.302795 1.790636 0
M  V30 15 C -1.409094 -0.028724 1.642081 0
M  V30 16 C -2.221697 -1.097484 1.251892 0
M  V30 17 C -3.597105 -1.104847 1.030272 0
M  V30 18 N -3.848725 -2.380173 0.679432 0
M  V30 19 N -2.746861 -3.105415 0.678897 0
M  V30 20 C -2.739874 -4.489985 0.342818 0
M  V30 21 N -2.514574 -5.475362 1.230618 0
M  V30 22 C -2.501424 -6.775596 0.948801 0
M  V30 23 C -2.740245 -7.159397 -0.375753 0
M  V30 24 C -2.970850 -6.157039 -1.286126 0
M  V30 25 C -2.987315 -4.786309 -1.002329 0
M  V30 26 C -3.248450 -3.793174 -2.071309 0
M  V30 27 F -3.458040 -4.408197 -3.308272 0
M  V30 28 F -2.207502 -2.894081 -2.202756 0
M  V30 29 F -4.448305 -3.151559 -1.767880 0
M  V30 30 C -1.681419 -2.355216 1.031902 0
M  V30 31 N -0.371922 -2.602013 1.181081 0
M  V30 32 C 0.130875 -3.929666 0.938067 0
M  V30 33 C 0.415139 -1.576891 1.556557 0
M  V30 34 O 1.646259 -1.777576 1.704441 0
M  V30 35 H 1.172642 0.179661 5.443836 0
M  V30 36 H 0.216577 -0.706398 4.238917 0
M  V30 37 H -0.443717 0.803915 5.029264 0
M  V30 38 H 2.048639 2.476813 4.862592 0
M  V30 39 H 3.020161 3.841743 3.120570 0
M  V30 40 H 1.985978 2.557377 -1.252081 0
M  V30 41 H 3.808026 5.039855 -1.668332 0
M  V30 42 H 4.530500 3.902560 -3.763113 0
M  V30 43 H 3.542769 2.404359 -3.286939 0
M  V30 44 H 1.401323 3.743726 -3.300804 0
M  V30 45 H 2.398716 5.244914 -3.816541 0
M  V30 46 H 1.131124 1.359489 0.160527 0
M  V30 47 H -1.849316 0.939340 1.807516 0
M  V30 48 H -4.290389 -0.281284 1.120056 0
M  V30 49 H -2.316293 -7.540774 1.690324 0
M  V30 50 H -2.745585 -8.186025 -0.678717 0
M  V30 51 H -3.163265 -6.404274 -2.336746 0
M  V30 52 H -0.254441 -4.355344 0.014271 0
M  V30 53 H 1.240708 -3.815306 0.764984 0
M  V30 54 H 0.079625 -4.598504 1.828212 0
M  V30 END ATOM
M  V30 BEGIN BOND
M  V30 1 1 1 2
M  V30 2 2 2 3
M  V30 3 1 3 4
M  V30 4 2 4 5
M  V30 5 1 5 6
M  V30 6 2 6 7
M  V30 7 1 6 8
M  V30 8 1 8 9
M  V30 9 1 9 10
M  V30 10 1 10 11
M  V30 11 1 5 12
M  V30 12 2 12 13
M  V30 13 1 13 14
M  V30 14 2 14 15
M  V30 15 1 15 16
M  V30 16 1 16 17
M  V30 17 2 17 18
M  V30 18 1 18 19
M  V30 19 1 19 20
M  V30 20 2 20 21
M  V30 21 1 21 22
M  V30 22 2 22 23
M  V30 23 1 23 24
M  V30 24 2 24 25
M  V30 25 1 25 26
M  V30 26 1 26 27
M  V30 27 1 26 28
M  V30 28 1 26 29
M  V30 29 1 19 30
M  V30 30 1 30 31
M  V30 31 1 31 32
M  V30 32 1 31 33
M  V30 33 2 33 34
M  V30 34 1 13 2
M  V30 35 1 33 14
M  V30 36 1 11 9
M  V30 37 2 30 16
M  V30 38 1 25 20
M  V30 39 1 1 35
M  V30 40 1 1 36
M  V30 41 1 1 37
M  V30 42 1 3 38
M  V30 43 1 4 39
M  V30 44 1 8 40
M  V30 45 1 9 41
M  V30 46 1 10 42
M  V30 47 1 10 43
M  V30 48 1 11 44
M  V30 49 1 11 45
M  V30 50 1 12 46
M  V30 51 1 15 47
M  V30 52 1 17 48
M  V30 53 1 22 49
M  V30 54 1 23 50
M  V30 55 1 24 51
M  V30 56 1 32 52
M  V30 57 1 32 53
M  V30 58 1 32 54
M  V30 END BOND
M  V30 END CTAB
M  END
>  <Dataset>  (582) 
ChEMBL_Kinases

>  <Ligand_Instance>  (582) 
nan

>  <PDB_ID>  (582) 
nan

>  <Standardized_SMILES>  (582) 
Cc1ccc(C(=O)NC2CC2)cc1-c1cc2cnn(-c3ncccc3C(F)(F)F)c2n(C)c1=O

>  <Name>  (582) 
nan

>  <Pocket>  (582) 
nan

>  <ATP_Site>  (582) 
nan

>  <Peripheral>  (582) 
nan

>  <Num_H_Atoms_ProtBoundConf>  (582) 
nan

>  <Num_Resolved_Atoms>  (582) 
nan

>  <Num_Not_Resolved_Atoms>  (582) 
nan

$$$$
CHEMBL1089456
     RDKit          3D

  0  0  0  0  0  0  0  0  0  0999 V3000
M  V30 BEGIN CTAB
M  V30 COUNTS 52 56 0 0 0
M  V30 BEGIN ATOM
M  V30 1 C -0.539955 3.193245 1.756167 0
M  V30 2 C 0.820138 2.604220 1.575186 0
M  V30 3 C 1.969245 3.348215 1.640689 0
M  V30 4 C 3.186031 2.712564 1.459657 0
M  V30 5 C 3.319543 1.359182 1.213999 0
M  V30 6 C 4.660258 0.810040 1.041152 0
M  V30 7 O 5.623758 1.614797 1.127976 0
M  V30 8 N 4.909657 -0.548951 0.787857 0
M  V30 9 C 6.269973 -1.079519 0.617174 0
M  V30 10 C 6.338232 -2.080120 -0.527584 0
M  V30 11 C 6.572766 -2.484374 0.866294 0
M  V30 12 C 2.171169 0.611903 1.147877 0
M  V30 13 C 0.952803 1.266527 1.332335 0
M  V30 14 C -0.213104 0.362212 1.239605 0
M  V30 15 C -0.661985 -0.248073 2.389497 0
M  V30 16 C -1.751439 -1.085594 2.268918 0
M  V30 17 C -2.502004 -1.868775 3.118164 0
M  V30 18 N -3.472445 -2.478069 2.392090 0
M  V30 19 N -3.356362 -2.106109 1.126301 0
M  V30 20 C -4.313475 -2.669445 0.239608 0
M  V30 21 C -5.599753 -2.151227 0.080359 0
M  V30 22 C -6.550485 -2.666277 -0.760981 0
M  V30 23 C -6.238202 -3.775776 -1.514922 0
M  V30 24 C -4.985060 -4.342017 -1.409204 0
M  V30 25 C -4.079491 -3.771149 -0.543124 0
M  V30 26 Cl -2.506146 -4.552616 -0.465638 0
M  V30 27 C -2.317213 -1.258716 1.022059 0
M  V30 28 N -1.897336 -0.679136 -0.092982 0
M  V30 29 C -2.521119 -0.887321 -1.388512 0
M  V30 30 C -0.822557 0.148990 0.017424 0
M  V30 31 O -0.341027 0.750871 -0.977312 0
M  V30 32 H -0.441046 4.244339 2.126897 0
M  V30 33 H -1.055855 3.243029 0.777485 0
M  V30 34 H -1.162556 2.590279 2.446274 0
M  V30 35 H 1.900926 4.417709 1.832699 0
M  V30 36 H 4.051894 3.389618 1.529499 0
M  V30 37 H 4.121040 -1.228876 0.713054 0
M  V30 38 H 7.046817 -0.314436 0.707676 0
M  V30 39 H 5.415184 -2.439800 -1.004579 0
M  V30 40 H 7.155022 -1.863841 -1.241236 0
M  V30 41 H 5.899172 -3.211306 1.340506 0
M  V30 42 H 7.651480 -2.691186 1.129204 0
M  V30 43 H 2.252037 -0.448022 0.956830 0
M  V30 44 H -0.220606 -0.114790 3.370242 0
M  V30 45 H -2.278884 -1.925831 4.176715 0
M  V30 46 H -5.874676 -1.267578 0.669074 0
M  V30 47 H -7.534675 -2.231458 -0.851963 0
M  V30 48 H -6.963061 -4.209747 -2.189658 0
M  V30 49 H -4.753382 -5.210206 -2.004856 0
M  V30 50 H -2.081518 -0.145643 -2.115064 0
M  V30 51 H -2.292041 -1.882116 -1.810693 0
M  V30 52 H -3.595345 -0.646185 -1.354548 0
M  V30 END ATOM
M  V30 BEGIN BOND
M  V30 1 1 1 2
M  V30 2 2 2 3
M  V30 3 1 3 4
M  V30 4 2 4 5
M  V30 5 1 5 6
M  V30 6 2 6 7
M  V30 7 1 6 8
M  V30 8 1 8 9
M  V30 9 1 9 10
M  V30 10 1 10 11
M  V30 11 1 5 12
M  V30 12 2 12 13
M  V30 13 1 13 14
M  V30 14 2 14 15
M  V30 15 1 15 16
M  V30 16 1 16 17
M  V30 17 2 17 18
M  V30 18 1 18 19
M  V30 19 1 19 20
M  V30 20 2 20 21
M  V30 21 1 21 22
M  V30 22 2 22 23
M  V30 23 1 23 24
M  V30 24 2 24 25
M  V30 25 1 25 26
M  V30 26 1 19 27
M  V30 27 1 27 28
M  V30 28 1 28 29
M  V30 29 1 28 30
M  V30 30 2 30 31
M  V30 31 1 13 2
M  V30 32 1 30 14
M  V30 33 1 11 9
M  V30 34 2 27 16
M  V30 35 1 25 20
M  V30 36 1 1 32
M  V30 37 1 1 33
M  V30 38 1 1 34
M  V30 39 1 3 35
M  V30 40 1 4 36
M  V30 41 1 8 37
M  V30 42 1 9 38
M  V30 43 1 10 39
M  V30 44 1 10 40
M  V30 45 1 11 41
M  V30 46 1 11 42
M  V30 47 1 12 43
M  V30 48 1 15 44
M  V30 49 1 17 45
M  V30 50 1 21 46
M  V30 51 1 22 47
M  V30 52 1 23 48
M  V30 53 1 24 49
M  V30 54 1 29 50
M  V30 55 1 29 51
M  V30 56 1 29 52
M  V30 END BOND
M  V30 END CTAB
M  END
>  <Dataset>  (583) 
ChEMBL_Kinases

>  <Ligand_Instance>  (583) 
nan

>  <PDB_ID>  (583) 
nan

>  <Standardized_SMILES>  (583) 
Cc1ccc(C(=O)NC2CC2)cc1-c1cc2cnn(-c3ccccc3Cl)c2n(C)c1=O

>  <Name>  (583) 
nan

>  <Pocket>  (583) 
nan

>  <ATP_Site>  (583) 
nan

>  <Peripheral>  (583) 
nan

>  <Num_H_Atoms_ProtBoundConf>  (583) 
nan

>  <Num_Resolved_Atoms>  (583) 
nan

>  <Num_Not_Resolved_Atoms>  (583) 
nan

$$$$
CHEMBL1089203
     RDKit          3D

  0  0  0  0  0  0  0  0  0  0999 V3000
M  V30 BEGIN CTAB
M  V30 COUNTS 53 55 0 0 0
M  V30 BEGIN ATOM
M  V30 1 C -1.952854 -0.842312 -4.095541 0
M  V30 2 C -1.586534 0.135590 -3.510554 0
M  V30 3 C -1.146287 1.346186 -2.814912 0
M  V30 4 C -1.852491 2.497110 -3.109656 0
M  V30 5 C -1.390249 3.617528 -2.425462 0
M  V30 6 C -0.321096 3.577430 -1.532654 0
M  V30 7 C 0.314019 2.376030 -1.311290 0
M  V30 8 N 1.431831 2.321280 -0.433588 0
M  V30 9 C 2.189662 1.242998 0.028255 0
M  V30 10 C 3.540910 1.206715 -0.348565 0
M  V30 11 C 4.485505 0.267397 -0.024241 0
M  V30 12 N 4.016040 -0.740651 0.763763 0
M  V30 13 C 2.733687 -0.794037 1.178302 0
M  V30 14 C 2.320486 -1.849843 2.001537 0
M  V30 15 C 0.981501 -1.874961 2.436670 0
M  V30 16 O 0.612394 -2.849266 3.188809 0
M  V30 17 C 0.262443 -3.841583 3.946316 0
M  V30 18 C 0.205490 -5.272840 3.578696 0
M  V30 19 O 1.266205 -5.955832 3.153549 0
M  V30 20 C 1.873105 -5.666304 1.979073 0
M  V30 21 C 0.079643 -0.846156 2.043341 0
M  V30 22 O -1.080916 -1.102400 2.582227 0
M  V30 23 C -2.347922 -0.807088 2.808821 0
M  V30 24 C -3.276785 -0.687684 1.632158 0
M  V30 25 O -2.838697 0.315739 0.801570 0
M  V30 26 C -3.686342 0.501405 -0.292643 0
M  V30 27 C 0.522200 0.177101 1.231801 0
M  V30 28 C 1.838235 0.172534 0.822107 0
M  V30 29 C -0.084838 1.224855 -1.949148 0
M  V30 30 H -2.269972 -1.716787 -4.599111 0
M  V30 31 H -2.678174 2.504131 -3.808780 0
M  V30 32 H -1.916181 4.563115 -2.623070 0
M  V30 33 H -0.037349 4.504624 -1.049079 0
M  V30 34 H 1.832589 3.193668 -0.004478 0
M  V30 35 H 3.916468 2.021140 -0.982448 0
M  V30 36 H 5.501635 0.347195 -0.377669 0
M  V30 37 H 3.103723 -2.536664 2.222195 0
M  V30 38 H 0.846902 -3.741508 4.956870 0
M  V30 39 H -0.798581 -3.608181 4.383774 0
M  V30 40 H -0.152924 -5.809731 4.530470 0
M  V30 41 H -0.719807 -5.431489 2.915683 0
M  V30 42 H 1.211949 -5.756343 1.084627 0
M  V30 43 H 2.326935 -4.674150 1.943205 0
M  V30 44 H 2.752698 -6.373751 1.870004 0
M  V30 45 H -2.404979 0.235379 3.294698 0
M  V30 46 H -2.888633 -1.418926 3.582434 0
M  V30 47 H -4.327331 -0.478988 1.990619 0
M  V30 48 H -3.317892 -1.635973 1.038311 0
M  V30 49 H -4.724975 0.763774 0.033846 0
M  V30 50 H -3.263361 1.347547 -0.876881 0
M  V30 51 H -3.733792 -0.373036 -0.962834 0
M  V30 52 H -0.190330 0.937942 0.957401 0
M  V30 53 H 0.409103 0.274084 -1.780925 0
M  V30 END ATOM
M  V30 BEGIN BOND
M  V30 1 3 1 2
M  V30 2 1 2 3
M  V30 3 2 3 4
M  V30 4 1 4 5
M  V30 5 2 5 6
M  V30 6 1 6 7
M  V30 7 1 7 8
M  V30 8 1 8 9
M  V30 9 2 9 10
M  V30 10 1 10 11
M  V30 11 2 11 12
M  V30 12 1 12 13
M  V30 13 2 13 14
M  V30 14 1 14 15
M  V30 15 1 15 16
M  V30 16 1 16 17
M  V30 17 1 17 18
M  V30 18 1 18 19
M  V30 19 1 19 20
M  V30 20 2 15 21
M  V30 21 1 21 22
M  V30 22 1 22 23
M  V30 23 1 23 24
M  V30 24 1 24 25
M  V30 25 1 25 26
M  V30 26 1 21 27
M  V30 27 2 27 28
M  V30 28 2 7 29
M  V30 29 1 29 3
M  V30 30 1 28 9
M  V30 31 1 28 13
M  V30 32 1 1 30
M  V30 33 1 4 31
M  V30 34 1 5 32
M  V30 35 1 6 33
M  V30 36 1 8 34
M  V30 37 1 10 35
M  V30 38 1 11 36
M  V30 39 1 14 37
M  V30 40 1 17 38
M  V30 41 1 17 39
M  V30 42 1 18 40
M  V30 43 1 18 41
M  V30 44 1 20 42
M  V30 45 1 20 43
M  V30 46 1 20 44
M  V30 47 1 23 45
M  V30 48 1 23 46
M  V30 49 1 24 47
M  V30 50 1 24 48
M  V30 51 1 26 49
M  V30 52 1 26 50
M  V30 53 1 26 51
M  V30 54 1 27 52
M  V30 55 1 29 53
M  V30 END BOND
M  V30 END CTAB
M  END
>  <Dataset>  (584) 
ChEMBL_Kinases

>  <Ligand_Instance>  (584) 
nan

>  <PDB_ID>  (584) 
nan

>  <Standardized_SMILES>  (584) 
C#Cc1cccc(Nc2ccnc3cc(OCCOC)c(OCCOC)cc23)c1

>  <Name>  (584) 
nan

>  <Pocket>  (584) 
nan

>  <ATP_Site>  (584) 
nan

>  <Peripheral>  (584) 
nan

>  <Num_H_Atoms_ProtBoundConf>  (584) 
nan

>  <Num_Resolved_Atoms>  (584) 
nan

>  <Num_Not_Resolved_Atoms>  (584) 
nan

$$$$
CHEMBL1084134
     RDKit          3D

  0  0  0  0  0  0  0  0  0  0999 V3000
M  V30 BEGIN CTAB
M  V30 COUNTS 28 29 0 0 0
M  V30 BEGIN ATOM
M  V30 1 O 0.233439 -4.651217 4.207761 0
M  V30 2 C -0.819703 -4.221454 3.675675 0
M  V30 3 O -2.030820 -4.680706 4.123177 0
M  V30 4 C -0.785311 -3.223687 2.568843 0
M  V30 5 C 0.671672 -2.865780 2.246602 0
M  V30 6 C 0.620769 -1.873716 1.141919 0
M  V30 7 O -0.616775 -1.720889 0.908036 0
M  V30 8 N 1.746692 -1.271920 0.531733 0
M  V30 9 C 1.293095 -0.366579 -0.497485 0
M  V30 10 N 1.116838 -0.801414 -1.770078 0
M  V30 11 N 0.696010 0.218677 -2.525093 0
M  V30 12 C 0.598287 1.314093 -1.747993 0
M  V30 13 C 0.232904 2.634435 -1.921345 0
M  V30 14 C 0.228654 3.569351 -0.903215 0
M  V30 15 Cl -0.249296 5.232798 -1.200669 0
M  V30 16 C 0.617241 3.145438 0.368669 0
M  V30 17 C 0.999305 1.830623 0.622951 0
M  V30 18 C 0.970568 0.974620 -0.455561 0
M  V30 19 H -2.084753 -5.164030 5.013788 0
M  V30 20 H -1.272915 -3.683494 1.709068 0
M  V30 21 H -1.337676 -2.314640 2.863820 0
M  V30 22 H 1.167161 -3.770547 1.829419 0
M  V30 23 H 1.204752 -2.529299 3.138482 0
M  V30 24 H 2.682801 -1.539336 0.877316 0
M  V30 25 H 0.456183 0.268719 -3.544807 0
M  V30 26 H -0.060783 2.903408 -2.939698 0
M  V30 27 H 0.624693 3.848572 1.182118 0
M  V30 28 H 1.302572 1.484991 1.599175 0
M  V30 END ATOM
M  V30 BEGIN BOND
M  V30 1 2 1 2
M  V30 2 1 2 3
M  V30 3 1 2 4
M  V30 4 1 4 5
M  V30 5 1 5 6
M  V30 6 2 6 7
M  V30 7 1 6 8
M  V30 8 1 8 9
M  V30 9 2 9 10
M  V30 10 1 10 11
M  V30 11 1 11 12
M  V30 12 2 12 13
M  V30 13 1 13 14
M  V30 14 1 14 15
M  V30 15 2 14 16
M  V30 16 1 16 17
M  V30 17 2 17 18
M  V30 18 1 18 9
M  V30 19 1 18 12
M  V30 20 1 3 19
M  V30 21 1 4 20
M  V30 22 1 4 21
M  V30 23 1 5 22
M  V30 24 1 5 23
M  V30 25 1 8 24
M  V30 26 1 11 25
M  V30 27 1 13 26
M  V30 28 1 16 27
M  V30 29 1 17 28
M  V30 END BOND
M  V30 END CTAB
M  END
>  <Dataset>  (585) 
ChEMBL_Kinases

>  <Ligand_Instance>  (585) 
nan

>  <PDB_ID>  (585) 
nan

>  <Standardized_SMILES>  (585) 
O=C(O)CCC(=O)Nc1n[nH]c2cc(Cl)ccc12

>  <Name>  (585) 
nan

>  <Pocket>  (585) 
nan

>  <ATP_Site>  (585) 
nan

>  <Peripheral>  (585) 
nan

>  <Num_H_Atoms_ProtBoundConf>  (585) 
nan

>  <Num_Resolved_Atoms>  (585) 
nan

>  <Num_Not_Resolved_Atoms>  (585) 
nan

$$$$
CHEMBL1088032
     RDKit          3D

  0  0  0  0  0  0  0  0  0  0999 V3000
M  V30 BEGIN CTAB
M  V30 COUNTS 46 50 0 0 0
M  V30 BEGIN ATOM
M  V30 1 O 1.595566 -0.374309 2.875737 0
M  V30 2 C 2.362695 0.462786 2.388837 0
M  V30 3 N 3.769915 0.130926 2.513647 0
M  V30 4 C 4.163604 -1.102032 3.177406 0
M  V30 5 C 5.025682 -2.082352 2.445816 0
M  V30 6 C 5.528275 -1.364403 3.637257 0
M  V30 7 C 1.965275 1.719796 1.716334 0
M  V30 8 C 2.773257 2.778544 1.355329 0
M  V30 9 C 2.201038 3.877408 0.701420 0
M  V30 10 C 0.845420 3.870022 0.435500 0
M  V30 11 Cl 0.186778 5.289663 -0.391316 0
M  V30 12 C 0.005210 2.834427 0.777517 0
M  V30 13 N -1.386531 2.862296 0.449815 0
M  V30 14 C -2.129807 1.679967 0.820189 0
M  V30 15 N -2.927579 1.448348 1.853595 0
M  V30 16 N -3.482517 0.260078 1.986599 0
M  V30 17 C -3.274662 -0.740487 1.112398 0
M  V30 18 C -2.451770 -0.577572 0.003766 0
M  V30 19 C -1.878275 0.675231 -0.119423 0
M  V30 20 C -1.126385 0.525640 -1.294061 0
M  V30 21 N -1.285485 -0.725184 -1.770517 0
M  V30 22 N -2.094651 -1.410714 -0.985077 0
M  V30 23 C -2.545274 -2.765376 -1.083639 0
M  V30 24 C -3.804522 -3.239972 -1.374483 0
M  V30 25 C -4.023015 -4.599265 -1.416263 0
M  V30 26 C -3.007240 -5.485667 -1.173711 0
M  V30 27 F -3.289053 -6.824675 -1.229705 0
M  V30 28 C -1.745057 -5.004296 -0.882423 0
M  V30 29 C -1.491949 -3.626695 -0.831890 0
M  V30 30 F -0.203965 -3.347501 -0.534749 0
M  V30 31 C 0.605032 1.772969 1.420445 0
M  V30 32 H 4.518651 0.780310 2.123071 0
M  V30 33 H 3.330658 -1.613597 3.712044 0
M  V30 34 H 5.270480 -1.819313 1.405265 0
M  V30 35 H 4.791430 -3.184890 2.526964 0
M  V30 36 H 5.656506 -2.024771 4.549630 0
M  V30 37 H 6.367526 -0.649009 3.575573 0
M  V30 38 H 3.818160 2.646727 1.627616 0
M  V30 39 H 2.891202 4.670191 0.447894 0
M  V30 40 H -1.758696 3.714771 -0.020670 0
M  V30 41 H -3.766986 -1.697571 1.280691 0
M  V30 42 H -0.523475 1.308359 -1.725667 0
M  V30 43 H -4.483667 -2.410658 -1.538469 0
M  V30 44 H -5.049114 -4.862815 -1.652840 0
M  V30 45 H -0.980297 -5.774238 -0.698677 0
M  V30 46 H -0.074091 0.952436 1.691126 0
M  V30 END ATOM
M  V30 BEGIN BOND
M  V30 1 2 1 2
M  V30 2 1 2 3
M  V30 3 1 3 4
M  V30 4 1 4 5
M  V30 5 1 5 6
M  V30 6 1 2 7
M  V30 7 2 7 8
M  V30 8 1 8 9
M  V30 9 2 9 10
M  V30 10 1 10 11
M  V30 11 1 10 12
M  V30 12 1 12 13
M  V30 13 1 13 14
M  V30 14 2 14 15
M  V30 15 1 15 16
M  V30 16 2 16 17
M  V30 17 1 17 18
M  V30 18 2 18 19
M  V30 19 1 19 20
M  V30 20 2 20 21
M  V30 21 1 21 22
M  V30 22 1 22 23
M  V30 23 2 23 24
M  V30 24 1 24 25
M  V30 25 2 25 26
M  V30 26 1 26 27
M  V30 27 1 26 28
M  V30 28 2 28 29
M  V30 29 1 29 30
M  V30 30 2 12 31
M  V30 31 1 6 4
M  V30 32 1 31 7
M  V30 33 1 19 14
M  V30 34 1 29 23
M  V30 35 1 22 18
M  V30 36 1 3 32
M  V30 37 1 4 33
M  V30 38 1 5 34
M  V30 39 1 5 35
M  V30 40 1 6 36
M  V30 41 1 6 37
M  V30 42 1 8 38
M  V30 43 1 9 39
M  V30 44 1 13 40
M  V30 45 1 17 41
M  V30 46 1 20 42
M  V30 47 1 24 43
M  V30 48 1 25 44
M  V30 49 1 28 45
M  V30 50 1 31 46
M  V30 END BOND
M  V30 END CTAB
M  END
>  <Dataset>  (586) 
ChEMBL_Kinases

>  <Ligand_Instance>  (586) 
nan

>  <PDB_ID>  (586) 
nan

>  <Standardized_SMILES>  (586) 
O=C(NC1CC1)c1ccc(Cl)c(Nc2nncc3c2cnn3-c2ccc(F)cc2F)c1

>  <Name>  (586) 
nan

>  <Pocket>  (586) 
nan

>  <ATP_Site>  (586) 
nan

>  <Peripheral>  (586) 
nan

>  <Num_H_Atoms_ProtBoundConf>  (586) 
nan

>  <Num_Resolved_Atoms>  (586) 
nan

>  <Num_Not_Resolved_Atoms>  (586) 
nan

$$$$
CHEMBL1088053
     RDKit          3D

  0  0  0  0  0  0  0  0  0  0999 V3000
M  V30 BEGIN CTAB
M  V30 COUNTS 39 42 0 0 0
M  V30 BEGIN ATOM
M  V30 1 C 0.888552 -6.076665 3.336635 0
M  V30 2 O 0.297556 -5.482372 2.195427 0
M  V30 3 C 0.396399 -4.109640 2.020705 0
M  V30 4 C 1.073852 -3.327865 2.965657 0
M  V30 5 C 1.176558 -1.964865 2.801552 0
M  V30 6 C 0.651044 -1.277302 1.748266 0
M  V30 7 C 0.000665 -2.070047 0.848523 0
M  V30 8 C -0.158349 -3.434427 0.920229 0
M  V30 9 Cl -0.984613 -4.438129 -0.219499 0
M  V30 10 C 0.774910 0.115695 1.433024 0
M  V30 11 C 0.261635 0.879924 0.344044 0
M  V30 12 C 0.809566 2.165375 0.264623 0
M  V30 13 C 0.480075 3.144650 -0.639585 0
M  V30 14 C -0.483738 2.860345 -1.573188 0
M  V30 15 C -0.848177 3.808982 -2.501920 0
M  V30 16 C -1.818831 3.513739 -3.437088 0
M  V30 17 C -2.418767 2.272698 -3.437985 0
M  V30 18 C -2.059089 1.296837 -2.499822 0
M  V30 19 C -1.090204 1.629050 -1.586840 0
M  V30 20 C -0.668560 0.750756 -0.632209 0
M  V30 21 N 1.504271 0.668816 2.320279 0
M  V30 22 C 2.145158 0.156078 3.458100 0
M  V30 23 C 1.899973 -1.247956 3.862006 0
M  V30 24 H 1.973265 -5.784443 3.421545 0
M  V30 25 H 0.803233 -7.172998 3.320251 0
M  V30 26 H 0.437857 -5.689644 4.277942 0
M  V30 27 H 1.500332 -3.838430 3.808177 0
M  V30 28 H -0.423541 -1.714217 -0.039466 0
M  V30 29 H 1.587270 2.523743 0.942630 0
M  V30 30 H 0.918173 4.107392 -0.670580 0
M  V30 31 H -0.353937 4.783217 -2.474920 0
M  V30 32 H -2.124227 4.239911 -4.177858 0
M  V30 33 H -3.185287 1.955227 -4.130484 0
M  V30 34 H -2.531554 0.307847 -2.494178 0
M  V30 35 H -1.203357 -0.163497 -0.641539 0
M  V30 36 H 1.972536 0.807230 4.371615 0
M  V30 37 H 3.272038 0.234809 3.296976 0
M  V30 38 H 2.841473 -1.789917 4.163386 0
M  V30 39 H 1.272807 -1.280709 4.781681 0
M  V30 END ATOM
M  V30 BEGIN BOND
M  V30 1 1 1 2
M  V30 2 1 2 3
M  V30 3 2 3 4
M  V30 4 1 4 5
M  V30 5 2 5 6
M  V30 6 1 6 7
M  V30 7 2 7 8
M  V30 8 1 8 9
M  V30 9 1 6 10
M  V30 10 1 10 11
M  V30 11 2 11 12
M  V30 12 1 12 13
M  V30 13 2 13 14
M  V30 14 1 14 15
M  V30 15 2 15 16
M  V30 16 1 16 17
M  V30 17 2 17 18
M  V30 18 1 18 19
M  V30 19 2 19 20
M  V30 20 2 10 21
M  V30 21 1 21 22
M  V30 22 1 22 23
M  V30 23 1 8 3
M  V30 24 1 20 11
M  V30 25 1 23 5
M  V30 26 1 19 14
M  V30 27 1 1 24
M  V30 28 1 1 25
M  V30 29 1 1 26
M  V30 30 1 4 27
M  V30 31 1 7 28
M  V30 32 1 12 29
M  V30 33 1 13 30
M  V30 34 1 15 31
M  V30 35 1 16 32
M  V30 36 1 17 33
M  V30 37 1 18 34
M  V30 38 1 20 35
M  V30 39 1 22 36
M  V30 40 1 22 37
M  V30 41 1 23 38
M  V30 42 1 23 39
M  V30 END BOND
M  V30 END CTAB
M  END
>  <Dataset>  (587) 
ChEMBL_Kinases

>  <Ligand_Instance>  (587) 
nan

>  <PDB_ID>  (587) 
nan

>  <Standardized_SMILES>  (587) 
COc1cc2c(cc1Cl)C(c1ccc3ccccc3c1)=NCC2

>  <Name>  (587) 
nan

>  <Pocket>  (587) 
nan

>  <ATP_Site>  (587) 
nan

>  <Peripheral>  (587) 
nan

>  <Num_H_Atoms_ProtBoundConf>  (587) 
nan

>  <Num_Resolved_Atoms>  (587) 
nan

>  <Num_Not_Resolved_Atoms>  (587) 
nan

$$$$
CHEMBL1088149
     RDKit          3D

  0  0  0  0  0  0  0  0  0  0999 V3000
M  V30 BEGIN CTAB
M  V30 COUNTS 45 48 0 0 0
M  V30 BEGIN ATOM
M  V30 1 C -1.068397 -3.616672 4.968581 0
M  V30 2 O -1.615917 -3.750880 3.673698 0
M  V30 3 C -1.441317 -2.748084 2.733242 0
M  V30 4 C -0.780063 -1.542462 2.828385 0
M  V30 5 C -0.748559 -0.704954 1.732181 0
M  V30 6 C -1.362060 -1.041860 0.539265 0
M  V30 7 C -1.228634 -0.040022 -0.540056 0
M  V30 8 C -0.161053 0.683321 -0.872684 0
M  V30 9 C 1.159633 0.673603 -0.258431 0
M  V30 10 C 1.891013 -0.451495 0.111249 0
M  V30 11 N 3.074379 -0.126609 0.663098 0
M  V30 12 C 4.120884 -0.988033 1.174648 0
M  V30 13 C 3.165855 1.235068 0.677171 0
M  V30 14 C 4.159799 2.075495 1.132650 0
M  V30 15 C 4.008583 3.442857 1.037267 0
M  V30 16 C 2.837174 3.923888 0.475050 0
M  V30 17 C 1.855938 3.066709 0.025730 0
M  V30 18 C 1.996275 1.701855 0.115129 0
M  V30 19 C -0.536911 1.516316 -2.008898 0
M  V30 20 O 0.111540 2.366645 -2.687562 0
M  V30 21 N -1.910527 1.278460 -2.377202 0
M  V30 22 C -2.337924 0.281762 -1.428925 0
M  V30 23 O -3.535225 -0.159547 -1.479706 0
M  V30 24 C -2.027411 -2.247033 0.431933 0
M  V30 25 O -2.618656 -2.520260 -0.795090 0
M  V30 26 C -3.334394 -3.709924 -1.055166 0
M  V30 27 C -2.056603 -3.093098 1.548483 0
M  V30 28 H -0.033580 -4.009217 5.053820 0
M  V30 29 H -1.044648 -2.551559 5.274480 0
M  V30 30 H -1.719695 -4.134537 5.720068 0
M  V30 31 H -0.332607 -1.368259 3.796568 0
M  V30 32 H -0.190272 0.208326 1.977966 0
M  V30 33 H 1.536170 -1.475303 -0.035171 0
M  V30 34 H 4.577861 -0.526050 2.095245 0
M  V30 35 H 4.967819 -1.099743 0.473966 0
M  V30 36 H 3.765387 -1.997794 1.439600 0
M  V30 37 H 5.070461 1.737548 1.569486 0
M  V30 38 H 4.714092 4.214897 1.357111 0
M  V30 39 H 2.671164 5.003767 0.377467 0
M  V30 40 H 0.974111 3.491506 -0.391299 0
M  V30 41 H -2.481891 1.710628 -3.142173 0
M  V30 42 H -3.982800 -4.038121 -0.243231 0
M  V30 43 H -3.992607 -3.476551 -1.941635 0
M  V30 44 H -2.668098 -4.564691 -1.330385 0
M  V30 45 H -2.619452 -4.002895 1.304223 0
M  V30 END ATOM
M  V30 BEGIN BOND
M  V30 1 1 1 2
M  V30 2 1 2 3
M  V30 3 2 3 4
M  V30 4 1 4 5
M  V30 5 2 5 6
M  V30 6 1 6 7
M  V30 7 2 7 8
M  V30 8 1 8 9
M  V30 9 2 9 10
M  V30 10 1 10 11
M  V30 11 1 11 12
M  V30 12 1 11 13
M  V30 13 2 13 14
M  V30 14 1 14 15
M  V30 15 2 15 16
M  V30 16 1 16 17
M  V30 17 2 17 18
M  V30 18 1 8 19
M  V30 19 2 19 20
M  V30 20 1 19 21
M  V30 21 1 21 22
M  V30 22 2 22 23
M  V30 23 1 6 24
M  V30 24 1 24 25
M  V30 25 1 25 26
M  V30 26 2 24 27
M  V30 27 1 27 3
M  V30 28 1 22 7
M  V30 29 1 18 9
M  V30 30 1 18 13
M  V30 31 1 1 28
M  V30 32 1 1 29
M  V30 33 1 1 30
M  V30 34 1 4 31
M  V30 35 1 5 32
M  V30 36 1 10 33
M  V30 37 1 12 34
M  V30 38 1 12 35
M  V30 39 1 12 36
M  V30 40 1 14 37
M  V30 41 1 15 38
M  V30 42 1 16 39
M  V30 43 1 17 40
M  V30 44 1 21 41
M  V30 45 1 26 42
M  V30 46 1 26 43
M  V30 47 1 26 44
M  V30 48 1 27 45
M  V30 END BOND
M  V30 END CTAB
M  END
>  <Dataset>  (588) 
ChEMBL_Kinases

>  <Ligand_Instance>  (588) 
nan

>  <PDB_ID>  (588) 
nan

>  <Standardized_SMILES>  (588) 
COc1ccc(C2=C(c3cn(C)c4ccccc34)C(=O)NC2=O)c(OC)c1

>  <Name>  (588) 
nan

>  <Pocket>  (588) 
nan

>  <ATP_Site>  (588) 
nan

>  <Peripheral>  (588) 
nan

>  <Num_H_Atoms_ProtBoundConf>  (588) 
nan

>  <Num_Resolved_Atoms>  (588) 
nan

>  <Num_Not_Resolved_Atoms>  (588) 
nan

$$$$
CHEMBL1088166
     RDKit          3D

  0  0  0  0  0  0  0  0  0  0999 V3000
M  V30 BEGIN CTAB
M  V30 COUNTS 48 52 0 0 0
M  V30 BEGIN ATOM
M  V30 1 C 0.468647 1.497714 -1.558664 0
M  V30 2 C 1.398945 1.182372 -0.455085 0
M  V30 3 C 2.723569 0.864762 -0.649094 0
M  V30 4 C 3.522589 0.592045 0.433841 0
M  V30 5 C 3.017706 0.632256 1.703676 0
M  V30 6 C 3.858258 0.345479 2.841947 0
M  V30 7 O 3.382820 0.384733 4.010390 0
M  V30 8 N 5.223452 0.013895 2.712588 0
M  V30 9 C 6.059816 -0.273927 3.880616 0
M  V30 10 C 7.531000 0.128092 3.742507 0
M  V30 11 C 7.125679 -1.306074 3.769103 0
M  V30 12 C 1.671070 0.956872 1.873508 0
M  V30 13 C 0.804806 1.245083 0.807546 0
M  V30 14 O -0.456872 1.536781 1.196946 0
M  V30 15 C -1.661196 0.959682 0.987624 0
M  V30 16 N -2.607675 1.736556 1.588841 0
M  V30 17 N -3.892545 1.390956 1.533796 0
M  V30 18 C -4.360596 0.306037 0.917280 0
M  V30 19 C -3.453850 -0.522309 0.289770 0
M  V30 20 C -2.126552 -0.163934 0.347493 0
M  V30 21 C -1.343352 -1.060379 -0.296889 0
M  V30 22 N -2.197371 -1.992799 -0.765235 0
M  V30 23 N -3.445854 -1.678620 -0.420880 0
M  V30 24 C -4.658565 -2.383063 -0.706152 0
M  V30 25 C -5.021846 -2.596264 -2.022770 0
M  V30 26 C -6.149457 -3.251492 -2.480954 0
M  V30 27 C -6.994100 -3.739876 -1.484755 0
M  V30 28 F -8.107116 -4.386419 -1.862724 0
M  V30 29 C -6.675231 -3.552445 -0.165098 0
M  V30 30 C -5.532099 -2.888317 0.236830 0
M  V30 31 F -5.202896 -2.694919 1.544676 0
M  V30 32 H -0.373412 2.125900 -1.269188 0
M  V30 33 H 0.172274 0.585049 -2.137777 0
M  V30 34 H 1.074285 2.094194 -2.296887 0
M  V30 35 H 3.041428 0.856006 -1.693160 0
M  V30 36 H 4.534760 0.355891 0.188287 0
M  V30 37 H 5.696971 -0.042433 1.803543 0
M  V30 38 H 5.566641 -0.217095 4.858704 0
M  V30 39 H 7.846906 0.579267 2.780708 0
M  V30 40 H 8.034203 0.568333 4.626593 0
M  V30 41 H 7.412996 -1.872097 4.664446 0
M  V30 42 H 7.191993 -1.881025 2.809714 0
M  V30 43 H 1.342165 0.968708 2.913656 0
M  V30 44 H -5.398260 0.012102 0.863227 0
M  V30 45 H -0.275934 -1.077273 -0.430949 0
M  V30 46 H -4.346850 -2.205937 -2.793893 0
M  V30 47 H -6.322598 -3.353890 -3.543041 0
M  V30 48 H -7.354727 -3.945389 0.600063 0
M  V30 END ATOM
M  V30 BEGIN BOND
M  V30 1 1 1 2
M  V30 2 2 2 3
M  V30 3 1 3 4
M  V30 4 2 4 5
M  V30 5 1 5 6
M  V30 6 2 6 7
M  V30 7 1 6 8
M  V30 8 1 8 9
M  V30 9 1 9 10
M  V30 10 1 10 11
M  V30 11 1 5 12
M  V30 12 2 12 13
M  V30 13 1 13 14
M  V30 14 1 14 15
M  V30 15 2 15 16
M  V30 16 1 16 17
M  V30 17 2 17 18
M  V30 18 1 18 19
M  V30 19 2 19 20
M  V30 20 1 20 21
M  V30 21 2 21 22
M  V30 22 1 22 23
M  V30 23 1 23 24
M  V30 24 2 24 25
M  V30 25 1 25 26
M  V30 26 2 26 27
M  V30 27 1 27 28
M  V30 28 1 27 29
M  V30 29 2 29 30
M  V30 30 1 30 31
M  V30 31 1 13 2
M  V30 32 1 20 15
M  V30 33 1 30 24
M  V30 34 1 11 9
M  V30 35 1 23 19
M  V30 36 1 1 32
M  V30 37 1 1 33
M  V30 38 1 1 34
M  V30 39 1 3 35
M  V30 40 1 4 36
M  V30 41 1 8 37
M  V30 42 1 9 38
M  V30 43 1 10 39
M  V30 44 1 10 40
M  V30 45 1 11 41
M  V30 46 1 11 42
M  V30 47 1 12 43
M  V30 48 1 18 44
M  V30 49 1 21 45
M  V30 50 1 25 46
M  V30 51 1 26 47
M  V30 52 1 29 48
M  V30 END BOND
M  V30 END CTAB
M  END
>  <Dataset>  (589) 
ChEMBL_Kinases

>  <Ligand_Instance>  (589) 
nan

>  <PDB_ID>  (589) 
nan

>  <Standardized_SMILES>  (589) 
Cc1ccc(C(=O)NC2CC2)cc1Oc1nncc2c1cnn2-c1ccc(F)cc1F

>  <Name>  (589) 
nan

>  <Pocket>  (589) 
nan

>  <ATP_Site>  (589) 
nan

>  <Peripheral>  (589) 
nan

>  <Num_H_Atoms_ProtBoundConf>  (589) 
nan

>  <Num_Resolved_Atoms>  (589) 
nan

>  <Num_Not_Resolved_Atoms>  (589) 
nan

$$$$
CHEMBL1088167
     RDKit          3D

  0  0  0  0  0  0  0  0  0  0999 V3000
M  V30 BEGIN CTAB
M  V30 COUNTS 45 49 0 0 0
M  V30 BEGIN ATOM
M  V30 1 O 1.226571 0.672953 6.890949 0
M  V30 2 C 1.278709 0.014547 5.819576 0
M  V30 3 N 2.341940 -0.890971 5.551249 0
M  V30 4 C 3.466098 -1.198967 6.386696 0
M  V30 5 C 4.051882 -2.563544 6.428234 0
M  V30 6 C 4.810364 -1.421517 5.794436 0
M  V30 7 C 0.190570 0.227276 4.863630 0
M  V30 8 C -0.801927 1.124545 5.203810 0
M  V30 9 C -1.865352 1.365899 4.327071 0
M  V30 10 C -1.964941 0.728964 3.108043 0
M  V30 11 Cl -3.287590 1.016616 1.995876 0
M  V30 12 C -0.963059 -0.169969 2.776392 0
M  V30 13 O -0.972799 -0.862445 1.570804 0
M  V30 14 C -0.947364 -0.106326 0.406442 0
M  V30 15 N -0.914206 1.233056 0.341201 0
M  V30 16 N -0.891066 1.901040 -0.796909 0
M  V30 17 C -0.900943 1.213632 -1.959193 0
M  V30 18 C -0.934799 -0.170817 -1.961325 0
M  V30 19 C -0.958639 -0.850652 -0.754718 0
M  V30 20 C -0.988749 -2.166377 -1.101566 0
M  V30 21 N -0.982995 -2.258430 -2.441798 0
M  V30 22 N -0.949798 -1.036006 -2.992528 0
M  V30 23 C -0.935855 -0.808223 -4.396251 0
M  V30 24 C 0.086455 -1.462658 -5.084189 0
M  V30 25 C 0.236523 -1.343312 -6.454627 0
M  V30 26 C -0.622999 -0.568335 -7.200744 0
M  V30 27 F -0.551129 -0.395236 -8.540563 0
M  V30 28 C -1.640920 0.081471 -6.504998 0
M  V30 29 C -1.799865 -0.030334 -5.139532 0
M  V30 30 F -2.767344 0.579259 -4.430887 0
M  V30 31 C 0.093279 -0.406853 3.652236 0
M  V30 32 H 2.382594 -1.435869 4.661614 0
M  V30 33 H 3.496446 -0.655463 7.361733 0
M  V30 34 H 3.701429 -3.361844 5.736884 0
M  V30 35 H 4.449060 -2.996178 7.367971 0
M  V30 36 H 5.726458 -1.118749 6.348198 0
M  V30 37 H 4.951371 -1.434279 4.702726 0
M  V30 38 H -0.817273 1.680119 6.142862 0
M  V30 39 H -2.667268 2.069415 4.564962 0
M  V30 40 H -0.882082 1.760169 -2.874534 0
M  V30 41 H -1.012825 -2.973602 -0.377377 0
M  V30 42 H 0.829415 -2.103572 -4.609918 0
M  V30 43 H 1.036145 -1.854166 -6.998603 0
M  V30 44 H -2.349162 0.704875 -7.030078 0
M  V30 45 H 0.844471 -1.102148 3.366889 0
M  V30 END ATOM
M  V30 BEGIN BOND
M  V30 1 2 1 2
M  V30 2 1 2 3
M  V30 3 1 3 4
M  V30 4 1 4 5
M  V30 5 1 5 6
M  V30 6 1 2 7
M  V30 7 2 7 8
M  V30 8 1 8 9
M  V30 9 2 9 10
M  V30 10 1 10 11
M  V30 11 1 10 12
M  V30 12 1 12 13
M  V30 13 1 13 14
M  V30 14 2 14 15
M  V30 15 1 15 16
M  V30 16 2 16 17
M  V30 17 1 17 18
M  V30 18 2 18 19
M  V30 19 1 19 20
M  V30 20 2 20 21
M  V30 21 1 21 22
M  V30 22 1 22 23
M  V30 23 2 23 24
M  V30 24 1 24 25
M  V30 25 2 25 26
M  V30 26 1 26 27
M  V30 27 1 26 28
M  V30 28 2 28 29
M  V30 29 1 29 30
M  V30 30 2 12 31
M  V30 31 1 6 4
M  V30 32 1 31 7
M  V30 33 1 19 14
M  V30 34 1 29 23
M  V30 35 1 22 18
M  V30 36 1 3 32
M  V30 37 1 4 33
M  V30 38 1 5 34
M  V30 39 1 5 35
M  V30 40 1 6 36
M  V30 41 1 6 37
M  V30 42 1 8 38
M  V30 43 1 9 39
M  V30 44 1 17 40
M  V30 45 1 20 41
M  V30 46 1 24 42
M  V30 47 1 25 43
M  V30 48 1 28 44
M  V30 49 1 31 45
M  V30 END BOND
M  V30 END CTAB
M  END
>  <Dataset>  (590) 
ChEMBL_Kinases

>  <Ligand_Instance>  (590) 
nan

>  <PDB_ID>  (590) 
nan

>  <Standardized_SMILES>  (590) 
O=C(NC1CC1)c1ccc(Cl)c(Oc2nncc3c2cnn3-c2ccc(F)cc2F)c1

>  <Name>  (590) 
nan

>  <Pocket>  (590) 
nan

>  <ATP_Site>  (590) 
nan

>  <Peripheral>  (590) 
nan

>  <Num_H_Atoms_ProtBoundConf>  (590) 
nan

>  <Num_Resolved_Atoms>  (590) 
nan

>  <Num_Not_Resolved_Atoms>  (590) 
nan

$$$$
CHEMBL1088173
     RDKit          3D

  0  0  0  0  0  0  0  0  0  0999 V3000
M  V30 BEGIN CTAB
M  V30 COUNTS 37 38 0 0 0
M  V30 BEGIN ATOM
M  V30 1 C 1.180697 -3.075709 4.606726 0
M  V30 2 O 1.438341 -2.465766 3.378250 0
M  V30 3 C 2.497762 -2.934114 2.521689 0
M  V30 4 C 3.376438 -3.929658 2.665128 0
M  V30 5 C 4.294916 -4.134801 1.642064 0
M  V30 6 C 4.158143 -3.231154 0.567403 0
M  V30 7 C 3.127565 -2.234559 0.639223 0
M  V30 8 C 2.092564 -1.933205 1.693747 0
M  V30 9 C 1.674629 -0.900180 0.838872 0
M  V30 10 O 0.853472 -0.809178 1.830823 0
M  V30 11 N 1.583816 -0.036182 -0.230404 0
M  V30 12 C 0.549272 0.917430 -0.149091 0
M  V30 13 C 0.729884 2.165491 0.461259 0
M  V30 14 C -0.351744 3.019195 0.477226 0
M  V30 15 C -1.547235 2.636897 -0.089108 0
M  V30 16 C -1.739202 1.408236 -0.694744 0
M  V30 17 N -3.033039 1.159053 -1.235244 0
M  V30 18 C -3.625652 1.382492 -2.518876 0
M  V30 19 C -5.019854 0.943555 -2.576812 0
M  V30 20 O -2.743555 1.908163 -3.243087 0
M  V30 21 C -0.662530 0.571128 -0.705065 0
M  V30 22 H 2.132305 -3.386111 5.128754 0
M  V30 23 H 0.465206 -3.915323 4.524429 0
M  V30 24 H 0.680013 -2.337343 5.299936 0
M  V30 25 H 3.118471 -4.368272 3.644276 0
M  V30 26 H 4.872420 -4.964165 1.985951 0
M  V30 27 H 4.980334 -3.615131 -0.065857 0
M  V30 28 H 3.505777 -1.887530 -0.391281 0
M  V30 29 H 2.375501 -0.402752 -0.794191 0
M  V30 30 H 1.701538 2.422498 0.898838 0
M  V30 31 H -0.227653 3.967386 0.937573 0
M  V30 32 H -2.359404 3.353099 -0.044872 0
M  V30 33 H -3.448623 0.736132 -0.352205 0
M  V30 34 H -5.140748 -0.140308 -2.299612 0
M  V30 35 H -5.307739 0.978804 -3.669185 0
M  V30 36 H -5.745500 1.576175 -2.046624 0
M  V30 37 H -0.838938 -0.400718 -1.192935 0
M  V30 END ATOM
M  V30 BEGIN BOND
M  V30 1 1 1 2
M  V30 2 1 2 3
M  V30 3 2 3 4
M  V30 4 1 4 5
M  V30 5 2 5 6
M  V30 6 1 6 7
M  V30 7 2 7 8
M  V30 8 1 8 9
M  V30 9 2 9 10
M  V30 10 1 9 11
M  V30 11 1 11 12
M  V30 12 2 12 13
M  V30 13 1 13 14
M  V30 14 2 14 15
M  V30 15 1 15 16
M  V30 16 1 16 17
M  V30 17 1 17 18
M  V30 18 1 18 19
M  V30 19 2 18 20
M  V30 20 2 16 21
M  V30 21 1 8 3
M  V30 22 1 21 12
M  V30 23 1 1 22
M  V30 24 1 1 23
M  V30 25 1 1 24
M  V30 26 1 4 25
M  V30 27 1 5 26
M  V30 28 1 6 27
M  V30 29 1 7 28
M  V30 30 1 11 29
M  V30 31 1 13 30
M  V30 32 1 14 31
M  V30 33 1 15 32
M  V30 34 1 17 33
M  V30 35 1 19 34
M  V30 36 1 19 35
M  V30 37 1 19 36
M  V30 38 1 21 37
M  V30 END BOND
M  V30 END CTAB
M  END
>  <Dataset>  (591) 
ChEMBL_Kinases

>  <Ligand_Instance>  (591) 
nan

>  <PDB_ID>  (591) 
nan

>  <Standardized_SMILES>  (591) 
COc1ccccc1C(=O)Nc1cccc(NC(C)=O)c1

>  <Name>  (591) 
nan

>  <Pocket>  (591) 
nan

>  <ATP_Site>  (591) 
nan

>  <Peripheral>  (591) 
nan

>  <Num_H_Atoms_ProtBoundConf>  (591) 
nan

>  <Num_Resolved_Atoms>  (591) 
nan

>  <Num_Not_Resolved_Atoms>  (591) 
nan

$$$$
CHEMBL1088440
     RDKit          3D

  0  0  0  0  0  0  0  0  0  0999 V3000
M  V30 BEGIN CTAB
M  V30 COUNTS 46 50 0 0 0
M  V30 BEGIN ATOM
M  V30 1 O 5.318620 1.369493 0.515212 0
M  V30 2 C 4.342491 0.990779 1.233031 0
M  V30 3 N 4.059235 -0.382386 1.319004 0
M  V30 4 C 4.592959 -1.620596 0.742008 0
M  V30 5 C 6.137459 -1.661393 0.676741 0
M  V30 6 C 5.318265 -2.653957 1.437417 0
M  V30 7 C 3.445004 1.829900 2.012604 0
M  V30 8 C 3.433857 2.799723 2.963631 0
M  V30 9 C 2.376431 3.490962 3.433141 0
M  V30 10 C 1.101443 3.273908 2.968437 0
M  V30 11 Cl -0.295942 4.128852 3.556516 0
M  V30 12 C 0.966711 2.310852 1.993325 0
M  V30 13 N -0.222375 1.991022 1.396863 0
M  V30 14 C -1.431000 1.663956 0.800740 0
M  V30 15 N -2.416991 2.470564 0.292235 0
M  V30 16 N -3.499538 1.941265 -0.269297 0
M  V30 17 C -3.593929 0.599037 -0.315066 0
M  V30 18 C -2.683639 -0.282766 0.157099 0
M  V30 19 C -1.526250 0.249139 0.753626 0
M  V30 20 C -0.777698 -0.858130 1.150325 0
M  V30 21 N -1.464277 -1.969787 0.803358 0
M  V30 22 N -2.591778 -1.651271 0.214393 0
M  V30 23 C -3.519688 -2.601222 -0.267749 0
M  V30 24 C -3.484499 -2.792341 -1.628183 0
M  V30 25 C -4.306024 -3.681286 -2.305143 0
M  V30 26 C -5.233772 -4.437276 -1.535048 0
M  V30 27 C -5.319406 -4.294093 -0.161976 0
M  V30 28 F -6.139594 -4.933543 0.702423 0
M  V30 29 C -4.454008 -3.379491 0.386778 0
M  V30 30 C 2.122736 1.625744 1.550240 0
M  V30 31 H 3.304439 -0.907418 1.872298 0
M  V30 32 H 4.269278 -1.716548 -0.357481 0
M  V30 33 H 6.615726 -2.022200 -0.257042 0
M  V30 34 H 6.615049 -0.791104 1.129975 0
M  V30 35 H 5.353404 -2.705963 2.552057 0
M  V30 36 H 5.286946 -3.689151 1.015036 0
M  V30 37 H 4.495073 2.889152 3.256074 0
M  V30 38 H 2.572595 4.215133 4.199337 0
M  V30 39 H 0.084360 2.365303 0.428619 0
M  V30 40 H -4.461634 0.190047 -0.776474 0
M  V30 41 H 0.152069 -0.758219 1.635520 0
M  V30 42 H -2.795972 -2.258763 -2.294522 0
M  V30 43 H -4.356988 -3.898777 -3.362865 0
M  V30 44 H -5.938250 -5.173558 -1.959729 0
M  V30 45 H -4.459409 -3.198522 1.471884 0
M  V30 46 H 1.896809 0.878464 0.758529 0
M  V30 END ATOM
M  V30 BEGIN BOND
M  V30 1 2 1 2
M  V30 2 1 2 3
M  V30 3 1 3 4
M  V30 4 1 4 5
M  V30 5 1 5 6
M  V30 6 1 2 7
M  V30 7 2 7 8
M  V30 8 1 8 9
M  V30 9 2 9 10
M  V30 10 1 10 11
M  V30 11 1 10 12
M  V30 12 1 12 13
M  V30 13 1 13 14
M  V30 14 2 14 15
M  V30 15 1 15 16
M  V30 16 2 16 17
M  V30 17 1 17 18
M  V30 18 2 18 19
M  V30 19 1 19 20
M  V30 20 2 20 21
M  V30 21 1 21 22
M  V30 22 1 22 23
M  V30 23 2 23 24
M  V30 24 1 24 25
M  V30 25 2 25 26
M  V30 26 1 26 27
M  V30 27 1 27 28
M  V30 28 2 27 29
M  V30 29 2 12 30
M  V30 30 1 6 4
M  V30 31 1 30 7
M  V30 32 1 19 14
M  V30 33 1 29 23
M  V30 34 1 22 18
M  V30 35 1 3 31
M  V30 36 1 4 32
M  V30 37 1 5 33
M  V30 38 1 5 34
M  V30 39 1 6 35
M  V30 40 1 6 36
M  V30 41 1 8 37
M  V30 42 1 9 38
M  V30 43 1 13 39
M  V30 44 1 17 40
M  V30 45 1 20 41
M  V30 46 1 24 42
M  V30 47 1 25 43
M  V30 48 1 26 44
M  V30 49 1 29 45
M  V30 50 1 30 46
M  V30 END BOND
M  V30 END CTAB
M  END
>  <Dataset>  (592) 
ChEMBL_Kinases

>  <Ligand_Instance>  (592) 
nan

>  <PDB_ID>  (592) 
nan

>  <Standardized_SMILES>  (592) 
O=C(NC1CC1)c1ccc(Cl)c(Nc2nncc3c2cnn3-c2cccc(F)c2)c1

>  <Name>  (592) 
nan

>  <Pocket>  (592) 
nan

>  <ATP_Site>  (592) 
nan

>  <Peripheral>  (592) 
nan

>  <Num_H_Atoms_ProtBoundConf>  (592) 
nan

>  <Num_Resolved_Atoms>  (592) 
nan

>  <Num_Not_Resolved_Atoms>  (592) 
nan

$$$$
CHEMBL1089122
     RDKit          3D

  0  0  0  0  0  0  0  0  0  0999 V3000
M  V30 BEGIN CTAB
M  V30 COUNTS 55 59 0 0 0
M  V30 BEGIN ATOM
M  V30 1 C 0.163524 1.140880 4.312938 0
M  V30 2 C 1.397628 0.865330 3.568335 0
M  V30 3 C 2.642231 1.220698 4.046804 0
M  V30 4 C 3.805499 0.946963 3.318256 0
M  V30 5 C 3.687769 0.309083 2.100593 0
M  V30 6 C 4.934954 0.041404 1.369466 0
M  V30 7 O 6.016176 0.411049 1.907279 0
M  V30 8 N 5.031088 -0.590399 0.122982 0
M  V30 9 C 6.286246 -0.814703 -0.525004 0
M  V30 10 C 6.458390 -2.232252 -1.054848 0
M  V30 11 C 6.388842 -1.084566 -1.976762 0
M  V30 12 C 2.461157 -0.049754 1.612455 0
M  V30 13 C 1.294164 0.218966 2.331749 0
M  V30 14 C 0.030128 -0.199445 1.734835 0
M  V30 15 C -0.354936 -1.479254 2.085495 0
M  V30 16 C -1.532731 -1.999973 1.589891 0
M  V30 17 C -2.264504 -3.170173 1.673430 0
M  V30 18 N -3.369893 -3.015170 0.911011 0
M  V30 19 N -3.373536 -1.820429 0.356527 0
M  V30 20 C -4.494348 -1.546224 -0.471628 0
M  V30 21 C -5.737184 -1.135472 0.025053 0
M  V30 22 C -6.826528 -0.874396 -0.779234 0
M  V30 23 C -6.676187 -1.027878 -2.139625 0
M  V30 24 C -5.491071 -1.428121 -2.720239 0
M  V30 25 C -4.438547 -1.674121 -1.864647 0
M  V30 26 C -3.158485 -2.107677 -2.488646 0
M  V30 27 C -2.261716 -1.179245 0.755050 0
M  V30 28 N -1.916862 0.064425 0.395972 0
M  V30 29 C -2.724010 0.892000 -0.490198 0
M  V30 30 C -0.758590 0.557437 0.892118 0
M  V30 31 O -0.340366 1.716405 0.618015 0
M  V30 32 H -0.516233 1.817822 3.757220 0
M  V30 33 H -0.324196 0.200721 4.654344 0
M  V30 34 H 0.442359 1.677729 5.253505 0
M  V30 35 H 2.670821 1.722093 5.015307 0
M  V30 36 H 4.745540 1.273021 3.790689 0
M  V30 37 H 4.135759 -0.899094 -0.328236 0
M  V30 38 H 7.170406 -0.448686 0.046260 0
M  V30 39 H 7.420153 -2.758819 -0.932315 0
M  V30 40 H 5.593083 -2.928480 -1.040875 0
M  V30 41 H 5.437190 -0.944698 -2.555556 0
M  V30 42 H 7.280429 -0.714872 -2.498178 0
M  V30 43 H 2.386120 -0.545458 0.663500 0
M  V30 44 H 0.220905 -2.131440 2.746713 0
M  V30 45 H -1.941791 -4.017299 2.266489 0
M  V30 46 H -5.821573 -1.024217 1.101492 0
M  V30 47 H -7.774299 -0.558597 -0.368438 0
M  V30 48 H -7.502769 -0.837144 -2.841759 0
M  V30 49 H -5.371002 -1.549147 -3.786992 0
M  V30 50 H -3.270784 -3.147811 -2.841738 0
M  V30 51 H -2.845757 -1.504086 -3.341050 0
M  V30 52 H -2.332395 -2.054947 -1.747196 0
M  V30 53 H -3.761872 0.952783 -0.109985 0
M  V30 54 H -2.661873 0.578870 -1.531685 0
M  V30 55 H -2.311439 1.945433 -0.481687 0
M  V30 END ATOM
M  V30 BEGIN BOND
M  V30 1 1 1 2
M  V30 2 2 2 3
M  V30 3 1 3 4
M  V30 4 2 4 5
M  V30 5 1 5 6
M  V30 6 2 6 7
M  V30 7 1 6 8
M  V30 8 1 8 9
M  V30 9 1 9 10
M  V30 10 1 10 11
M  V30 11 1 5 12
M  V30 12 2 12 13
M  V30 13 1 13 14
M  V30 14 2 14 15
M  V30 15 1 15 16
M  V30 16 1 16 17
M  V30 17 2 17 18
M  V30 18 1 18 19
M  V30 19 1 19 20
M  V30 20 2 20 21
M  V30 21 1 21 22
M  V30 22 2 22 23
M  V30 23 1 23 24
M  V30 24 2 24 25
M  V30 25 1 25 26
M  V30 26 1 19 27
M  V30 27 1 27 28
M  V30 28 1 28 29
M  V30 29 1 28 30
M  V30 30 2 30 31
M  V30 31 1 13 2
M  V30 32 1 30 14
M  V30 33 1 11 9
M  V30 34 2 27 16
M  V30 35 1 25 20
M  V30 36 1 1 32
M  V30 37 1 1 33
M  V30 38 1 1 34
M  V30 39 1 3 35
M  V30 40 1 4 36
M  V30 41 1 8 37
M  V30 42 1 9 38
M  V30 43 1 10 39
M  V30 44 1 10 40
M  V30 45 1 11 41
M  V30 46 1 11 42
M  V30 47 1 12 43
M  V30 48 1 15 44
M  V30 49 1 17 45
M  V30 50 1 21 46
M  V30 51 1 22 47
M  V30 52 1 23 48
M  V30 53 1 24 49
M  V30 54 1 26 50
M  V30 55 1 26 51
M  V30 56 1 26 52
M  V30 57 1 29 53
M  V30 58 1 29 54
M  V30 59 1 29 55
M  V30 END BOND
M  V30 END CTAB
M  END
>  <Dataset>  (593) 
ChEMBL_Kinases

>  <Ligand_Instance>  (593) 
nan

>  <PDB_ID>  (593) 
nan

>  <Standardized_SMILES>  (593) 
Cc1ccc(C(=O)NC2CC2)cc1-c1cc2cnn(-c3ccccc3C)c2n(C)c1=O

>  <Name>  (593) 
nan

>  <Pocket>  (593) 
nan

>  <ATP_Site>  (593) 
nan

>  <Peripheral>  (593) 
nan

>  <Num_H_Atoms_ProtBoundConf>  (593) 
nan

>  <Num_Resolved_Atoms>  (593) 
nan

>  <Num_Not_Resolved_Atoms>  (593) 
nan

$$$$
CHEMBL1088442
     RDKit          3D

  0  0  0  0  0  0  0  0  0  0999 V3000
M  V30 BEGIN CTAB
M  V30 COUNTS 51 54 0 0 0
M  V30 BEGIN ATOM
M  V30 1 C 5.587752 -0.843434 4.668245 0
M  V30 2 C 5.466869 0.440151 5.451295 0
M  V30 3 C 4.057720 0.700944 5.902276 0
M  V30 4 N 3.202663 0.794836 4.756690 0
M  V30 5 C 3.268693 1.708542 3.677614 0
M  V30 6 O 4.190055 2.559061 3.704846 0
M  V30 7 C 2.362066 1.747277 2.539478 0
M  V30 8 C 2.596470 2.734185 1.582876 0
M  V30 9 C 1.814693 2.887687 0.455020 0
M  V30 10 C 0.754034 2.036801 0.252172 0
M  V30 11 C -0.163511 2.090302 -0.915031 0
M  V30 12 C 0.474141 1.042786 1.162120 0
M  V30 13 N -0.547964 0.055757 1.157881 0
M  V30 14 C -1.021818 -1.020302 0.365249 0
M  V30 15 N -0.215575 -2.112282 0.530545 0
M  V30 16 N -0.503283 -3.241945 -0.135276 0
M  V30 17 C -1.559361 -3.328837 -0.957103 0
M  V30 18 C -2.401189 -2.251174 -1.153644 0
M  V30 19 C -2.111662 -1.088603 -0.473659 0
M  V30 20 C -3.000232 -0.104678 -0.735516 0
M  V30 21 N -3.880744 -0.668850 -1.613162 0
M  V30 22 N -3.513498 -1.931526 -1.847982 0
M  V30 23 C -4.136732 -2.910550 -2.698272 0
M  V30 24 C -5.445154 -3.331504 -2.572902 0
M  V30 25 C -5.985547 -4.280303 -3.418408 0
M  V30 26 C -5.211390 -4.836308 -4.424786 0
M  V30 27 F -5.732010 -5.771295 -5.257595 0
M  V30 28 C -3.898582 -4.416720 -4.554657 0
M  V30 29 C -3.343885 -3.458674 -3.705813 0
M  V30 30 F -2.052573 -3.144511 -3.950101 0
M  V30 31 C 1.291437 0.921815 2.291841 0
M  V30 32 H 6.575609 -1.297112 4.907454 0
M  V30 33 H 4.792764 -1.570518 4.971061 0
M  V30 34 H 5.532457 -0.651728 3.561890 0
M  V30 35 H 5.780601 1.255542 4.776565 0
M  V30 36 H 6.171780 0.366691 6.330659 0
M  V30 37 H 3.675298 -0.122183 6.556971 0
M  V30 38 H 3.978316 1.637567 6.494696 0
M  V30 39 H 2.393220 0.118364 4.643072 0
M  V30 40 H 3.395552 3.451050 1.642320 0
M  V30 41 H 1.995244 3.655853 -0.289364 0
M  V30 42 H -1.193573 2.367025 -0.620039 0
M  V30 43 H 0.186473 2.944145 -1.556540 0
M  V30 44 H -0.136986 1.191855 -1.545008 0
M  V30 45 H -1.240570 0.005771 1.943308 0
M  V30 46 H -1.800771 -4.223809 -1.493109 0
M  V30 47 H -3.026621 0.897601 -0.347823 0
M  V30 48 H -5.957596 -2.842770 -1.768187 0
M  V30 49 H -7.029387 -4.569067 -3.262754 0
M  V30 50 H -3.336058 -4.890599 -5.368742 0
M  V30 51 H 1.150068 0.170968 3.063991 0
M  V30 END ATOM
M  V30 BEGIN BOND
M  V30 1 1 1 2
M  V30 2 1 2 3
M  V30 3 1 3 4
M  V30 4 1 4 5
M  V30 5 2 5 6
M  V30 6 1 5 7
M  V30 7 2 7 8
M  V30 8 1 8 9
M  V30 9 2 9 10
M  V30 10 1 10 11
M  V30 11 1 10 12
M  V30 12 1 12 13
M  V30 13 1 13 14
M  V30 14 2 14 15
M  V30 15 1 15 16
M  V30 16 2 16 17
M  V30 17 1 17 18
M  V30 18 2 18 19
M  V30 19 1 19 20
M  V30 20 2 20 21
M  V30 21 1 21 22
M  V30 22 1 22 23
M  V30 23 2 23 24
M  V30 24 1 24 25
M  V30 25 2 25 26
M  V30 26 1 26 27
M  V30 27 1 26 28
M  V30 28 2 28 29
M  V30 29 1 29 30
M  V30 30 2 12 31
M  V30 31 1 31 7
M  V30 32 1 19 14
M  V30 33 1 29 23
M  V30 34 1 22 18
M  V30 35 1 1 32
M  V30 36 1 1 33
M  V30 37 1 1 34
M  V30 38 1 2 35
M  V30 39 1 2 36
M  V30 40 1 3 37
M  V30 41 1 3 38
M  V30 42 1 4 39
M  V30 43 1 8 40
M  V30 44 1 9 41
M  V30 45 1 11 42
M  V30 46 1 11 43
M  V30 47 1 11 44
M  V30 48 1 13 45
M  V30 49 1 17 46
M  V30 50 1 20 47
M  V30 51 1 24 48
M  V30 52 1 25 49
M  V30 53 1 28 50
M  V30 54 1 31 51
M  V30 END BOND
M  V30 END CTAB
M  END
>  <Dataset>  (594) 
ChEMBL_Kinases

>  <Ligand_Instance>  (594) 
nan

>  <PDB_ID>  (594) 
nan

>  <Standardized_SMILES>  (594) 
CCCNC(=O)c1ccc(C)c(Nc2nncc3c2cnn3-c2ccc(F)cc2F)c1

>  <Name>  (594) 
nan

>  <Pocket>  (594) 
nan

>  <ATP_Site>  (594) 
nan

>  <Peripheral>  (594) 
nan

>  <Num_H_Atoms_ProtBoundConf>  (594) 
nan

>  <Num_Resolved_Atoms>  (594) 
nan

>  <Num_Not_Resolved_Atoms>  (594) 
nan

$$$$
CHEMBL1088443
     RDKit          3D

  0  0  0  0  0  0  0  0  0  0999 V3000
M  V30 BEGIN CTAB
M  V30 COUNTS 49 53 0 0 0
M  V30 BEGIN ATOM
M  V30 1 C -0.765854 4.390792 -0.073024 0
M  V30 2 C 0.223640 3.284182 0.065545 0
M  V30 3 C 1.448682 3.375012 -0.543667 0
M  V30 4 C 2.359172 2.368034 -0.421990 0
M  V30 5 C 2.043583 1.248795 0.320861 0
M  V30 6 C 2.973212 0.138326 0.489979 0
M  V30 7 O 2.642707 -0.878981 1.188722 0
M  V30 8 N 4.251586 0.112732 -0.084284 0
M  V30 9 C 5.166351 -1.014757 0.101321 0
M  V30 10 C 5.794852 -1.491140 -1.222050 0
M  V30 11 C 6.629161 -0.786792 -0.204608 0
M  V30 12 C 0.802115 1.186267 0.922431 0
M  V30 13 C -0.158528 2.191889 0.824414 0
M  V30 14 N -1.428006 2.078289 1.465794 0
M  V30 15 C -1.649188 0.880490 2.204845 0
M  V30 16 N -1.380438 0.626974 3.499253 0
M  V30 17 N -1.651082 -0.547452 4.031507 0
M  V30 18 C -2.206011 -1.580941 3.357859 0
M  V30 19 C -2.490881 -1.345565 2.028621 0
M  V30 20 C -2.221199 -0.127294 1.436555 0
M  V30 21 C -2.639542 -0.276973 0.121467 0
M  V30 22 N -3.117279 -1.518570 -0.006297 0
M  V30 23 N -3.039894 -2.189087 1.133120 0
M  V30 24 C -3.494246 -3.534989 1.223582 0
M  V30 25 C -4.566230 -4.052256 1.921679 0
M  V30 26 C -4.819954 -5.409113 1.861675 0
M  V30 27 C -4.022752 -6.252688 1.118450 0
M  V30 28 F -4.288929 -7.580131 1.072987 0
M  V30 29 C -2.933429 -5.745850 0.405640 0
M  V30 30 C -2.696911 -4.402120 0.475924 0
M  V30 31 F -1.606782 -4.016645 -0.259571 0
M  V30 32 H -0.350033 5.256559 -0.611574 0
M  V30 33 H -1.609478 3.995355 -0.688294 0
M  V30 34 H -1.172686 4.668264 0.919977 0
M  V30 35 H 1.646451 4.284997 -1.120738 0
M  V30 36 H 3.300493 2.462112 -0.903103 0
M  V30 37 H 4.594558 0.903299 -0.667258 0
M  V30 38 H 4.832838 -1.856805 0.714157 0
M  V30 39 H 6.029424 -2.558453 -1.347741 0
M  V30 40 H 5.482486 -1.004522 -2.155792 0
M  V30 41 H 7.418897 -1.301608 0.354785 0
M  V30 42 H 6.877228 0.280166 -0.477717 0
M  V30 43 H 0.572209 0.307779 1.497273 0
M  V30 44 H -2.083165 2.873069 1.342189 0
M  V30 45 H -2.415124 -2.534593 3.828228 0
M  V30 46 H -2.570390 0.495115 -0.620292 0
M  V30 47 H -5.117627 -3.297789 2.466995 0
M  V30 48 H -5.656710 -5.756309 2.416843 0
M  V30 49 H -2.344397 -6.454524 -0.159077 0
M  V30 END ATOM
M  V30 BEGIN BOND
M  V30 1 1 1 2
M  V30 2 2 2 3
M  V30 3 1 3 4
M  V30 4 2 4 5
M  V30 5 1 5 6
M  V30 6 2 6 7
M  V30 7 1 6 8
M  V30 8 1 8 9
M  V30 9 1 9 10
M  V30 10 1 10 11
M  V30 11 1 5 12
M  V30 12 2 12 13
M  V30 13 1 13 14
M  V30 14 1 14 15
M  V30 15 2 15 16
M  V30 16 1 16 17
M  V30 17 2 17 18
M  V30 18 1 18 19
M  V30 19 2 19 20
M  V30 20 1 20 21
M  V30 21 2 21 22
M  V30 22 1 22 23
M  V30 23 1 23 24
M  V30 24 2 24 25
M  V30 25 1 25 26
M  V30 26 2 26 27
M  V30 27 1 27 28
M  V30 28 1 27 29
M  V30 29 2 29 30
M  V30 30 1 30 31
M  V30 31 1 13 2
M  V30 32 1 20 15
M  V30 33 1 30 24
M  V30 34 1 11 9
M  V30 35 1 23 19
M  V30 36 1 1 32
M  V30 37 1 1 33
M  V30 38 1 1 34
M  V30 39 1 3 35
M  V30 40 1 4 36
M  V30 41 1 8 37
M  V30 42 1 9 38
M  V30 43 1 10 39
M  V30 44 1 10 40
M  V30 45 1 11 41
M  V30 46 1 11 42
M  V30 47 1 12 43
M  V30 48 1 14 44
M  V30 49 1 18 45
M  V30 50 1 21 46
M  V30 51 1 25 47
M  V30 52 1 26 48
M  V30 53 1 29 49
M  V30 END BOND
M  V30 END CTAB
M  END
>  <Dataset>  (595) 
ChEMBL_Kinases

>  <Ligand_Instance>  (595) 
nan

>  <PDB_ID>  (595) 
nan

>  <Standardized_SMILES>  (595) 
Cc1ccc(C(=O)NC2CC2)cc1Nc1nncc2c1cnn2-c1ccc(F)cc1F

>  <Name>  (595) 
nan

>  <Pocket>  (595) 
nan

>  <ATP_Site>  (595) 
nan

>  <Peripheral>  (595) 
nan

>  <Num_H_Atoms_ProtBoundConf>  (595) 
nan

>  <Num_Resolved_Atoms>  (595) 
nan

>  <Num_Not_Resolved_Atoms>  (595) 
nan

$$$$
CHEMBL1088618
     RDKit          3D

  0  0  0  0  0  0  0  0  0  0999 V3000
M  V30 BEGIN CTAB
M  V30 COUNTS 39 41 0 0 0
M  V30 BEGIN ATOM
M  V30 1 C 2.842365 -6.214472 2.041506 0
M  V30 2 C 1.826288 -6.186917 0.948314 0
M  V30 3 C 2.057824 -5.059124 -0.034914 0
M  V30 4 C 2.004512 -3.730269 0.626008 0
M  V30 5 O 1.802425 -3.464759 1.825785 0
M  V30 6 N 2.223090 -2.668642 -0.302620 0
M  V30 7 C 2.209951 -1.302437 0.144459 0
M  V30 8 N 3.260880 -0.561715 0.593640 0
M  V30 9 N 2.835444 0.648911 0.908934 0
M  V30 10 C 1.522450 0.792162 0.699471 0
M  V30 11 C 0.551210 1.763028 0.829198 0
M  V30 12 C -0.785120 1.537992 0.493973 0
M  V30 13 C -1.715784 2.670341 0.684826 0
M  V30 14 C -1.577700 3.345203 1.880406 0
M  V30 15 C -2.406682 4.427458 2.157395 0
M  V30 16 C -3.369162 4.820613 1.225294 0
M  V30 17 O -4.192933 5.901525 1.508468 0
M  V30 18 C -3.472564 4.110994 0.033402 0
M  V30 19 C -2.654368 3.026915 -0.263080 0
M  V30 20 Cl -2.769207 2.124400 -1.752962 0
M  V30 21 C -1.159278 0.280502 0.006979 0
M  V30 22 C -0.189695 -0.664980 -0.114717 0
M  V30 23 C 1.135128 -0.440090 0.218212 0
M  V30 24 H 3.735403 -5.585601 1.873989 0
M  V30 25 H 3.221665 -7.264381 2.210608 0
M  V30 26 H 2.421862 -5.937926 3.049181 0
M  V30 27 H 0.769742 -6.144216 1.296810 0
M  V30 28 H 1.905536 -7.129316 0.367872 0
M  V30 29 H 1.346681 -5.158708 -0.869720 0
M  V30 30 H 3.066907 -5.173562 -0.480228 0
M  V30 31 H 2.402635 -2.765759 -1.330608 0
M  V30 32 H 3.443433 1.429578 1.284695 0
M  V30 33 H 0.876613 2.733409 1.212170 0
M  V30 34 H -0.864527 3.105919 2.646619 0
M  V30 35 H -2.359703 5.006291 3.071251 0
M  V30 36 H -4.356949 6.138854 2.496966 0
M  V30 37 H -4.221699 4.412463 -0.698665 0
M  V30 38 H -2.204886 0.150900 -0.240007 0
M  V30 39 H -0.574822 -1.615386 -0.502792 0
M  V30 END ATOM
M  V30 BEGIN BOND
M  V30 1 1 1 2
M  V30 2 1 2 3
M  V30 3 1 3 4
M  V30 4 2 4 5
M  V30 5 1 4 6
M  V30 6 1 6 7
M  V30 7 2 7 8
M  V30 8 1 8 9
M  V30 9 1 9 10
M  V30 10 2 10 11
M  V30 11 1 11 12
M  V30 12 1 12 13
M  V30 13 2 13 14
M  V30 14 1 14 15
M  V30 15 2 15 16
M  V30 16 1 16 17
M  V30 17 1 16 18
M  V30 18 2 18 19
M  V30 19 1 19 20
M  V30 20 2 12 21
M  V30 21 1 21 22
M  V30 22 2 22 23
M  V30 23 1 23 7
M  V30 24 1 23 10
M  V30 25 1 19 13
M  V30 26 1 1 24
M  V30 27 1 1 25
M  V30 28 1 1 26
M  V30 29 1 2 27
M  V30 30 1 2 28
M  V30 31 1 3 29
M  V30 32 1 3 30
M  V30 33 1 6 31
M  V30 34 1 9 32
M  V30 35 1 11 33
M  V30 36 1 14 34
M  V30 37 1 15 35
M  V30 38 1 17 36
M  V30 39 1 18 37
M  V30 40 1 21 38
M  V30 41 1 22 39
M  V30 END BOND
M  V30 END CTAB
M  END
>  <Dataset>  (596) 
ChEMBL_Kinases

>  <Ligand_Instance>  (596) 
nan

>  <PDB_ID>  (596) 
nan

>  <Standardized_SMILES>  (596) 
CCCC(=O)Nc1n[nH]c2cc(-c3ccc(O)cc3Cl)ccc12

>  <Name>  (596) 
nan

>  <Pocket>  (596) 
nan

>  <ATP_Site>  (596) 
nan

>  <Peripheral>  (596) 
nan

>  <Num_H_Atoms_ProtBoundConf>  (596) 
nan

>  <Num_Resolved_Atoms>  (596) 
nan

>  <Num_Not_Resolved_Atoms>  (596) 
nan

$$$$
CHEMBL1088634
     RDKit          3D

  0  0  0  0  0  0  0  0  0  0999 V3000
M  V30 BEGIN CTAB
M  V30 COUNTS 36 38 0 0 0
M  V30 BEGIN ATOM
M  V30 1 C 1.939293 2.026024 5.317838 0
M  V30 2 O 0.863226 1.978761 4.415626 0
M  V30 3 C 0.797915 1.195899 3.297004 0
M  V30 4 C 1.873188 0.353634 2.984286 0
M  V30 5 C 1.831171 -0.447635 1.860325 0
M  V30 6 C 0.784543 -0.493017 0.985452 0
M  V30 7 C -0.235487 0.332880 1.315897 0
M  V30 8 C -0.283213 1.156844 2.402905 0
M  V30 9 Cl -1.597381 2.218073 2.828757 0
M  V30 10 C 0.704020 -1.226139 -0.244664 0
M  V30 11 C -0.357561 -1.299300 -1.201053 0
M  V30 12 C 0.019344 -1.923365 -2.399015 0
M  V30 13 C -0.785152 -2.184770 -3.480316 0
M  V30 14 C -2.100512 -1.808070 -3.411162 0
M  V30 15 C -2.572535 -1.189515 -2.279031 0
M  V30 16 C -3.984695 -0.756939 -2.138770 0
M  V30 17 C -1.653132 -0.996645 -1.283278 0
M  V30 18 N 1.789054 -1.855653 -0.446949 0
M  V30 19 C 2.986809 -1.947457 0.292620 0
M  V30 20 C 3.013100 -1.307188 1.633171 0
M  V30 21 H 2.831235 2.558590 4.943438 0
M  V30 22 H 2.236454 0.956116 5.524918 0
M  V30 23 H 1.647721 2.448634 6.304281 0
M  V30 24 H 2.724838 0.352140 3.642620 0
M  V30 25 H -1.085615 0.448214 0.732638 0
M  V30 26 H 1.051709 -2.275765 -2.592148 0
M  V30 27 H -0.432818 -2.666056 -4.372112 0
M  V30 28 H -2.749483 -2.003004 -4.250270 0
M  V30 29 H -4.671660 -1.635282 -1.976243 0
M  V30 30 H -4.123024 -0.127266 -1.260109 0
M  V30 31 H -4.313318 -0.252122 -3.071090 0
M  V30 32 H -2.094264 -0.570685 -0.414984 0
M  V30 33 H 3.802865 -1.440461 -0.325944 0
M  V30 34 H 3.359302 -3.012905 0.332315 0
M  V30 35 H 3.103619 -2.101531 2.410625 0
M  V30 36 H 3.894110 -0.631910 1.717404 0
M  V30 END ATOM
M  V30 BEGIN BOND
M  V30 1 1 1 2
M  V30 2 1 2 3
M  V30 3 2 3 4
M  V30 4 1 4 5
M  V30 5 2 5 6
M  V30 6 1 6 7
M  V30 7 2 7 8
M  V30 8 1 8 9
M  V30 9 1 6 10
M  V30 10 1 10 11
M  V30 11 2 11 12
M  V30 12 1 12 13
M  V30 13 2 13 14
M  V30 14 1 14 15
M  V30 15 1 15 16
M  V30 16 2 15 17
M  V30 17 2 10 18
M  V30 18 1 18 19
M  V30 19 1 19 20
M  V30 20 1 8 3
M  V30 21 1 17 11
M  V30 22 1 20 5
M  V30 23 1 1 21
M  V30 24 1 1 22
M  V30 25 1 1 23
M  V30 26 1 4 24
M  V30 27 1 7 25
M  V30 28 1 12 26
M  V30 29 1 13 27
M  V30 30 1 14 28
M  V30 31 1 16 29
M  V30 32 1 16 30
M  V30 33 1 16 31
M  V30 34 1 17 32
M  V30 35 1 19 33
M  V30 36 1 19 34
M  V30 37 1 20 35
M  V30 38 1 20 36
M  V30 END BOND
M  V30 END CTAB
M  END
>  <Dataset>  (597) 
ChEMBL_Kinases

>  <Ligand_Instance>  (597) 
nan

>  <PDB_ID>  (597) 
nan

>  <Standardized_SMILES>  (597) 
COc1cc2c(cc1Cl)C(c1cccc(C)c1)=NCC2

>  <Name>  (597) 
nan

>  <Pocket>  (597) 
nan

>  <ATP_Site>  (597) 
nan

>  <Peripheral>  (597) 
nan

>  <Num_H_Atoms_ProtBoundConf>  (597) 
nan

>  <Num_Resolved_Atoms>  (597) 
nan

>  <Num_Not_Resolved_Atoms>  (597) 
nan

$$$$
CHEMBL1088724
     RDKit          3D

  0  0  0  0  0  0  0  0  0  0999 V3000
M  V30 BEGIN CTAB
M  V30 COUNTS 54 59 0 0 0
M  V30 BEGIN ATOM
M  V30 1 C -1.410312 -2.236851 3.568535 0
M  V30 2 N -0.936323 -2.576973 2.233039 0
M  V30 3 C 0.149839 -2.093028 1.595992 0
M  V30 4 C 0.238618 -2.678142 0.347002 0
M  V30 5 C 1.325660 -2.315221 -0.536220 0
M  V30 6 C 1.784000 -1.070457 -0.759172 0
M  V30 7 C 1.450280 0.267555 -0.293923 0
M  V30 8 C 0.219811 0.921103 -0.232406 0
M  V30 9 N 0.382161 2.164623 0.309345 0
M  V30 10 C 1.685769 2.328452 0.598005 0
M  V30 11 C 2.320755 3.426036 1.164831 0
M  V30 12 C 3.684724 3.395291 1.389968 0
M  V30 13 C 4.385089 2.257418 1.039467 0
M  V30 14 C 3.705554 1.209963 0.485595 0
M  V30 15 C 2.350560 1.174688 0.234055 0
M  V30 16 C -0.765077 3.052775 0.484442 0
M  V30 17 C -1.884777 2.225305 1.085227 0
M  V30 18 N -2.053092 0.973411 0.392766 0
M  V30 19 C -3.173330 0.204143 0.793786 0
M  V30 20 N -3.386432 -1.036440 0.142896 0
M  V30 21 S -4.231553 0.642366 1.947627 0
M  V30 22 C -1.144121 0.525374 -0.644284 0
M  V30 23 C 2.895697 -1.177919 -1.733470 0
M  V30 24 O 3.661426 -0.307332 -2.278177 0
M  V30 25 N 3.101512 -2.548581 -2.097554 0
M  V30 26 C 2.115267 -3.253796 -1.343512 0
M  V30 27 O 2.031361 -4.511685 -1.440295 0
M  V30 28 C -0.836417 -3.510552 0.298303 0
M  V30 29 C -1.213576 -4.330095 -0.745159 0
M  V30 30 C -2.337626 -5.124503 -0.662223 0
M  V30 31 C -3.099217 -5.091054 0.500523 0
M  V30 32 C -2.709419 -4.259635 1.547719 0
M  V30 33 C -1.581818 -3.465875 1.458186 0
M  V30 34 H -2.085041 -2.999854 3.970627 0
M  V30 35 H -0.564180 -2.095430 4.261018 0
M  V30 36 H -1.940353 -1.258300 3.531382 0
M  V30 37 H 0.780890 -1.363746 2.083696 0
M  V30 38 H 1.774625 4.323023 1.442185 0
M  V30 39 H 4.215801 4.228029 1.828460 0
M  V30 40 H 5.456150 2.233330 1.216125 0
M  V30 41 H 4.309370 0.356826 0.247016 0
M  V30 42 H -0.464572 3.882867 1.117156 0
M  V30 43 H -1.147765 3.399026 -0.496242 0
M  V30 44 H -2.870763 2.754899 0.983505 0
M  V30 45 H -1.677107 2.107468 2.151711 0
M  V30 46 H -3.142581 -1.893979 -0.392570 0
M  V30 47 H -3.966192 -1.814890 -0.169662 0
M  V30 48 H -1.436977 1.018142 -1.607914 0
M  V30 49 H -1.309750 -0.544186 -0.758392 0
M  V30 50 H 3.808658 -2.960669 -2.763125 0
M  V30 51 H -0.652340 -4.378496 -1.665828 0
M  V30 52 H -2.650559 -5.772390 -1.465753 0
M  V30 53 H -3.987126 -5.708298 0.585386 0
M  V30 54 H -3.284224 -4.217186 2.459002 0
M  V30 END ATOM
M  V30 BEGIN BOND
M  V30 1 1 1 2
M  V30 2 1 2 3
M  V30 3 2 3 4
M  V30 4 1 4 5
M  V30 5 2 5 6
M  V30 6 1 6 7
M  V30 7 2 7 8
M  V30 8 1 8 9
M  V30 9 1 9 10
M  V30 10 2 10 11
M  V30 11 1 11 12
M  V30 12 2 12 13
M  V30 13 1 13 14
M  V30 14 2 14 15
M  V30 15 1 9 16
M  V30 16 1 16 17
M  V30 17 1 17 18
M  V30 18 1 18 19
M  V30 19 1 19 20
M  V30 20 2 19 21
M  V30 21 1 18 22
M  V30 22 1 6 23
M  V30 23 2 23 24
M  V30 24 1 23 25
M  V30 25 1 25 26
M  V30 26 2 26 27
M  V30 27 1 4 28
M  V30 28 2 28 29
M  V30 29 1 29 30
M  V30 30 2 30 31
M  V30 31 1 31 32
M  V30 32 2 32 33
M  V30 33 1 33 2
M  V30 34 1 26 5
M  V30 35 1 33 28
M  V30 36 1 15 7
M  V30 37 1 22 8
M  V30 38 1 15 10
M  V30 39 1 1 34
M  V30 40 1 1 35
M  V30 41 1 1 36
M  V30 42 1 3 37
M  V30 43 1 11 38
M  V30 44 1 12 39
M  V30 45 1 13 40
M  V30 46 1 14 41
M  V30 47 1 16 42
M  V30 48 1 16 43
M  V30 49 1 17 44
M  V30 50 1 17 45
M  V30 51 1 20 46
M  V30 52 1 20 47
M  V30 53 1 22 48
M  V30 54 1 22 49
M  V30 55 1 25 50
M  V30 56 1 29 51
M  V30 57 1 30 52
M  V30 58 1 31 53
M  V30 59 1 32 54
M  V30 END BOND
M  V30 END CTAB
M  END
>  <Dataset>  (598) 
ChEMBL_Kinases

>  <Ligand_Instance>  (598) 
nan

>  <PDB_ID>  (598) 
nan

>  <Standardized_SMILES>  (598) 
Cn1cc(C2=C(c3c4n(c5ccccc35)CCN(C(N)=S)C4)C(=O)NC2=O)c2ccccc21

>  <Name>  (598) 
nan

>  <Pocket>  (598) 
nan

>  <ATP_Site>  (598) 
nan

>  <Peripheral>  (598) 
nan

>  <Num_H_Atoms_ProtBoundConf>  (598) 
nan

>  <Num_Resolved_Atoms>  (598) 
nan

>  <Num_Not_Resolved_Atoms>  (598) 
nan

$$$$
CHEMBL1088750
     RDKit          3D

  0  0  0  0  0  0  0  0  0  0999 V3000
M  V30 BEGIN CTAB
M  V30 COUNTS 56 58 0 0 0
M  V30 BEGIN ATOM
M  V30 1 C 0.207337 -2.184816 5.867109 0
M  V30 2 C 1.108333 -2.062680 4.661663 0
M  V30 3 C 2.389926 -2.848231 4.914115 0
M  V30 4 C 1.367609 -0.621594 4.381957 0
M  V30 5 N 2.242231 -0.399000 3.236906 0
M  V30 6 N 3.548718 -0.295505 3.183180 0
M  V30 7 C 3.973024 -0.104297 1.930098 0
M  V30 8 C 2.809176 -0.102508 1.232692 0
M  V30 9 C 2.658557 0.052833 -0.114183 0
M  V30 10 C 1.407754 0.012598 -0.583444 0
M  V30 11 O 1.146951 0.165860 -1.953285 0
M  V30 12 C 0.591567 1.262374 -2.521510 0
M  V30 13 C 1.703381 1.616265 -3.378116 0
M  V30 14 C 1.853583 2.676856 -4.281457 0
M  V30 15 C 0.796762 3.546262 -4.411675 0
M  V30 16 F 0.663523 4.646393 -5.201769 0
M  V30 17 C -0.330853 3.333466 -3.659288 0
M  V30 18 C -0.346858 2.260502 -2.813251 0
M  V30 19 F -1.390440 1.962039 -2.028235 0
M  V30 20 C 0.095121 -0.143130 -0.176098 0
M  V30 21 C -1.158632 -0.291493 0.215776 0
M  V30 22 O -1.142570 -0.626063 -1.036513 0
M  V30 23 N -2.371781 -0.415280 0.683379 0
M  V30 24 C -3.610700 -0.862305 0.109235 0
M  V30 25 C -3.620071 -2.291327 -0.317820 0
M  V30 26 N -2.718059 -2.677350 -1.354905 0
M  V30 27 C -2.565618 -4.153017 -1.377302 0
M  V30 28 C -3.292484 -2.312678 -2.678026 0
M  V30 29 C 0.403575 -0.294564 1.274745 0
M  V30 30 C 1.649652 -0.286947 2.010534 0
M  V30 31 H -0.076331 -1.165833 6.198792 0
M  V30 32 H 0.805875 -2.607196 6.728330 0
M  V30 33 H -0.666336 -2.847679 5.672973 0
M  V30 34 H 0.579184 -2.480089 3.767643 0
M  V30 35 H 3.015840 -2.309668 5.644329 0
M  V30 36 H 2.026586 -3.803365 5.394983 0
M  V30 37 H 2.891888 -3.117056 3.969236 0
M  V30 38 H 1.838826 -0.117717 5.271703 0
M  V30 39 H 0.382669 -0.106112 4.283886 0
M  V30 40 H 4.968763 0.016623 1.540528 0
M  V30 41 H 3.395012 0.203256 -0.880061 0
M  V30 42 H 2.694862 1.136655 -3.515296 0
M  V30 43 H 2.651761 2.997325 -4.937768 0
M  V30 44 H -1.253035 3.873740 -3.603880 0
M  V30 45 H -2.129692 -0.057923 1.669634 0
M  V30 46 H -3.844911 -0.256945 -0.807825 0
M  V30 47 H -4.450585 -0.682419 0.792725 0
M  V30 48 H -3.570446 -2.991647 0.557415 0
M  V30 49 H -4.653501 -2.473614 -0.729540 0
M  V30 50 H -2.802135 -4.479715 -0.333242 0
M  V30 51 H -1.483509 -4.342893 -1.531805 0
M  V30 52 H -3.154206 -4.613833 -2.157244 0
M  V30 53 H -4.383346 -2.398603 -2.568337 0
M  V30 54 H -2.965329 -3.026766 -3.462881 0
M  V30 55 H -3.032090 -1.265304 -2.857321 0
M  V30 56 H -0.231022 -0.451747 2.201358 0
M  V30 END ATOM
M  V30 BEGIN BOND
M  V30 1 1 1 2
M  V30 2 1 2 3
M  V30 3 1 2 4
M  V30 4 1 4 5
M  V30 5 1 5 6
M  V30 6 2 6 7
M  V30 7 1 7 8
M  V30 8 2 8 9
M  V30 9 1 9 10
M  V30 10 1 10 11
M  V30 11 1 11 12
M  V30 12 2 12 13
M  V30 13 1 13 14
M  V30 14 2 14 15
M  V30 15 1 15 16
M  V30 16 1 15 17
M  V30 17 2 17 18
M  V30 18 1 18 19
M  V30 19 2 10 20
M  V30 20 1 20 21
M  V30 21 2 21 22
M  V30 22 1 21 23
M  V30 23 1 23 24
M  V30 24 1 24 25
M  V30 25 1 25 26
M  V30 26 1 26 27
M  V30 27 1 26 28
M  V30 28 1 20 29
M  V30 29 2 29 30
M  V30 30 1 30 5
M  V30 31 1 30 8
M  V30 32 1 18 12
M  V30 33 1 1 31
M  V30 34 1 1 32
M  V30 35 1 1 33
M  V30 36 1 2 34
M  V30 37 1 3 35
M  V30 38 1 3 36
M  V30 39 1 3 37
M  V30 40 1 4 38
M  V30 41 1 4 39
M  V30 42 1 7 40
M  V30 43 1 9 41
M  V30 44 1 13 42
M  V30 45 1 14 43
M  V30 46 1 17 44
M  V30 47 1 23 45
M  V30 48 1 24 46
M  V30 49 1 24 47
M  V30 50 1 25 48
M  V30 51 1 25 49
M  V30 52 1 27 50
M  V30 53 1 27 51
M  V30 54 1 27 52
M  V30 55 1 28 53
M  V30 56 1 28 54
M  V30 57 1 28 55
M  V30 58 1 29 56
M  V30 END BOND
M  V30 END CTAB
M  END
>  <Dataset>  (599) 
ChEMBL_Kinases

>  <Ligand_Instance>  (599) 
nan

>  <PDB_ID>  (599) 
nan

>  <Standardized_SMILES>  (599) 
CC(C)Cn1ncc2cc(Oc3ccc(F)cc3F)c(C(=O)NCCN(C)C)cc21

>  <Name>  (599) 
ARRY-797

>  <Pocket>  (599) 
nan

>  <ATP_Site>  (599) 
nan

>  <Peripheral>  (599) 
nan

>  <Num_H_Atoms_ProtBoundConf>  (599) 
nan

>  <Num_Resolved_Atoms>  (599) 
nan

>  <Num_Not_Resolved_Atoms>  (599) 
nan

$$$$
CHEMBL108888
     RDKit          3D

  0  0  0  0  0  0  0  0  0  0999 V3000
M  V30 BEGIN CTAB
M  V30 COUNTS 36 38 0 0 0
M  V30 BEGIN ATOM
M  V30 1 O -0.939762 -1.752404 0.409588 0
M  V30 2 C -0.163943 -1.014284 1.077432 0
M  V30 3 N 1.193201 -1.406732 1.061566 0
M  V30 4 N 1.319057 -2.570876 0.266862 0
M  V30 5 C 1.568919 -2.218805 -1.086736 0
M  V30 6 O 1.604862 -0.943446 -1.178541 0
M  V30 7 C 1.761208 -3.101994 -2.225331 0
M  V30 8 C 1.989134 -2.466389 -3.428902 0
M  V30 9 C 2.188259 -3.166539 -4.588720 0
M  V30 10 C 2.175453 -4.543867 -4.636874 0
M  V30 11 C 1.948971 -5.189208 -3.442113 0
M  V30 12 C 1.749833 -4.477687 -2.281255 0
M  V30 13 F 1.527454 -5.097431 -1.107400 0
M  V30 14 C -0.722071 0.137198 1.780257 0
M  V30 15 C -2.083570 0.321949 1.647812 0
M  V30 16 C -2.682007 1.410776 2.298701 0
M  V30 17 C -1.858007 2.236964 3.038977 0
M  V30 18 C -2.448299 3.316833 3.685161 0
M  V30 19 C -1.721280 4.208268 4.452695 0
M  V30 20 C -0.356403 3.976522 4.552729 0
M  V30 21 C 0.286666 2.914496 3.929270 0
M  V30 22 C -0.496125 2.061425 3.177984 0
M  V30 23 C 0.088052 0.971282 2.523415 0
M  V30 24 H 1.864158 -0.808993 1.610678 0
M  V30 25 H 1.260848 -3.570208 0.505375 0
M  V30 26 H 2.021134 -1.373645 -3.511173 0
M  V30 27 H 2.364275 -2.645821 -5.515675 0
M  V30 28 H 2.323253 -5.166796 -5.506559 0
M  V30 29 H 1.921779 -6.264591 -3.384765 0
M  V30 30 H -2.734838 -0.321642 1.069355 0
M  V30 31 H -3.744754 1.620072 2.241110 0
M  V30 32 H -3.510645 3.494934 3.605678 0
M  V30 33 H -2.197697 5.043754 4.948843 0
M  V30 34 H 0.207814 4.684111 5.159510 0
M  V30 35 H 1.354864 2.761541 4.027568 0
M  V30 36 H 1.153871 0.814361 2.618461 0
M  V30 END ATOM
M  V30 BEGIN BOND
M  V30 1 2 1 2
M  V30 2 1 2 3
M  V30 3 1 3 4
M  V30 4 1 4 5
M  V30 5 2 5 6
M  V30 6 1 5 7
M  V30 7 2 7 8
M  V30 8 1 8 9
M  V30 9 2 9 10
M  V30 10 1 10 11
M  V30 11 2 11 12
M  V30 12 1 12 13
M  V30 13 1 2 14
M  V30 14 2 14 15
M  V30 15 1 15 16
M  V30 16 2 16 17
M  V30 17 1 17 18
M  V30 18 2 18 19
M  V30 19 1 19 20
M  V30 20 2 20 21
M  V30 21 1 21 22
M  V30 22 2 22 23
M  V30 23 1 12 7
M  V30 24 1 23 14
M  V30 25 1 22 17
M  V30 26 1 3 24
M  V30 27 1 4 25
M  V30 28 1 8 26
M  V30 29 1 9 27
M  V30 30 1 10 28
M  V30 31 1 11 29
M  V30 32 1 15 30
M  V30 33 1 16 31
M  V30 34 1 18 32
M  V30 35 1 19 33
M  V30 36 1 20 34
M  V30 37 1 21 35
M  V30 38 1 23 36
M  V30 END BOND
M  V30 END CTAB
M  END
>  <Dataset>  (600) 
ChEMBL_Kinases

>  <Ligand_Instance>  (600) 
nan

>  <PDB_ID>  (600) 
nan

>  <Standardized_SMILES>  (600) 
O=C(NNC(=O)c1ccccc1F)c1ccc2ccccc2c1

>  <Name>  (600) 
nan

>  <Pocket>  (600) 
nan

>  <ATP_Site>  (600) 
nan

>  <Peripheral>  (600) 
nan

>  <Num_H_Atoms_ProtBoundConf>  (600) 
nan

>  <Num_Resolved_Atoms>  (600) 
nan

>  <Num_Not_Resolved_Atoms>  (600) 
nan

$$$$
CHEMBL1089119
     RDKit          3D

  0  0  0  0  0  0  0  0  0  0999 V3000
M  V30 BEGIN CTAB
M  V30 COUNTS 42 45 0 0 0
M  V30 BEGIN ATOM
M  V30 1 F 4.485782 -5.776985 1.536098 0
M  V30 2 C 4.639278 -5.426575 0.223718 0
M  V30 3 F 3.763183 -6.168006 -0.552836 0
M  V30 4 F 5.944935 -5.608365 -0.135461 0
M  V30 5 C 4.305334 -3.974677 0.117724 0
M  V30 6 C 3.052578 -3.629300 -0.354362 0
M  V30 7 C 2.789432 -2.279926 -0.434794 0
M  V30 8 C 3.659412 -1.276423 -0.088581 0
M  V30 9 N 3.404195 0.113794 -0.164724 0
M  V30 10 C 2.294887 0.888033 -0.533310 0
M  V30 11 C 2.349415 1.757405 -1.615916 0
M  V30 12 C 1.285013 2.545625 -2.018572 0
M  V30 13 N 0.133238 2.465417 -1.322523 0
M  V30 14 C -0.004703 1.650115 -0.261563 0
M  V30 15 N -1.190892 1.657770 0.354835 0
M  V30 16 C -1.409781 0.877096 1.426676 0
M  V30 17 C -2.600853 0.716647 2.252278 0
M  V30 18 N -2.402201 0.710250 3.599751 0
M  V30 19 C -3.452157 0.563168 4.426459 0
M  V30 20 C -4.777261 0.410176 4.033979 0
M  V30 21 C -4.960491 0.418899 2.662702 0
M  V30 22 C -3.886443 0.569437 1.810653 0
M  V30 23 C -4.117128 0.576131 0.357584 0
M  V30 24 F -3.431543 -0.434606 -0.295853 0
M  V30 25 F -5.461882 0.382966 0.073275 0
M  V30 26 F -3.752738 1.783693 -0.179441 0
M  V30 27 C -0.337421 0.080908 1.836909 0
M  V30 28 C 0.899109 0.066762 1.202030 0
M  V30 29 C 1.075411 0.882220 0.108626 0
M  V30 30 N 4.849719 -1.669574 0.359200 0
M  V30 31 C 5.170392 -2.966914 0.462233 0
M  V30 32 H 2.279100 -4.341002 -0.659321 0
M  V30 33 H 1.807490 -1.981372 -0.804662 0
M  V30 34 H 4.131903 0.813685 0.086252 0
M  V30 35 H 3.279523 1.816746 -2.171928 0
M  V30 36 H 1.399397 3.206627 -2.880038 0
M  V30 37 H -3.258797 0.562607 5.509380 0
M  V30 38 H -5.575215 0.296977 4.727743 0
M  V30 39 H -5.973728 0.304622 2.245692 0
M  V30 40 H -0.400046 -0.595183 2.699579 0
M  V30 41 H 1.701484 -0.558805 1.557599 0
M  V30 42 H 6.157963 -3.222609 0.834624 0
M  V30 END ATOM
M  V30 BEGIN BOND
M  V30 1 1 1 2
M  V30 2 1 2 3
M  V30 3 1 2 4
M  V30 4 1 2 5
M  V30 5 2 5 6
M  V30 6 1 6 7
M  V30 7 2 7 8
M  V30 8 1 8 9
M  V30 9 1 9 10
M  V30 10 2 10 11
M  V30 11 1 11 12
M  V30 12 2 12 13
M  V30 13 1 13 14
M  V30 14 2 14 15
M  V30 15 1 15 16
M  V30 16 1 16 17
M  V30 17 2 17 18
M  V30 18 1 18 19
M  V30 19 2 19 20
M  V30 20 1 20 21
M  V30 21 2 21 22
M  V30 22 1 22 23
M  V30 23 1 23 24
M  V30 24 1 23 25
M  V30 25 1 23 26
M  V30 26 2 16 27
M  V30 27 1 27 28
M  V30 28 2 28 29
M  V30 29 1 8 30
M  V30 30 2 30 31
M  V30 31 1 31 5
M  V30 32 1 29 10
M  V30 33 1 29 14
M  V30 34 1 22 17
M  V30 35 1 6 32
M  V30 36 1 7 33
M  V30 37 1 9 34
M  V30 38 1 11 35
M  V30 39 1 12 36
M  V30 40 1 19 37
M  V30 41 1 20 38
M  V30 42 1 21 39
M  V30 43 1 27 40
M  V30 44 1 28 41
M  V30 45 1 31 42
M  V30 END BOND
M  V30 END CTAB
M  END
>  <Dataset>  (601) 
ChEMBL_Kinases

>  <Ligand_Instance>  (601) 
nan

>  <PDB_ID>  (601) 
nan

>  <Standardized_SMILES>  (601) 
FC(F)(F)c1ccc(Nc2ccnc3nc(-c4ncccc4C(F)(F)F)ccc23)nc1

>  <Name>  (601) 
nan

>  <Pocket>  (601) 
nan

>  <ATP_Site>  (601) 
nan

>  <Peripheral>  (601) 
nan

>  <Num_H_Atoms_ProtBoundConf>  (601) 
nan

>  <Num_Resolved_Atoms>  (601) 
nan

>  <Num_Not_Resolved_Atoms>  (601) 
nan

$$$$
CHEMBL1088441
     RDKit          3D

  0  0  0  0  0  0  0  0  0  0999 V3000
M  V30 BEGIN CTAB
M  V30 COUNTS 46 50 0 0 0
M  V30 BEGIN ATOM
M  V30 1 O 4.038596 -1.181504 4.060543 0
M  V30 2 C 3.812657 -0.604343 2.978524 0
M  V30 3 N 4.691048 -0.739168 1.862590 0
M  V30 4 C 5.882100 -1.589329 2.025072 0
M  V30 5 C 6.544769 -2.219818 0.885717 0
M  V30 6 C 7.192283 -1.062700 1.561520 0
M  V30 7 C 2.591790 0.231610 2.892375 0
M  V30 8 C 1.863743 0.379776 4.079084 0
M  V30 9 C 0.700707 1.155165 4.057246 0
M  V30 10 C 0.312338 1.745386 2.868220 0
M  V30 11 Cl -1.155861 2.686199 2.995935 0
M  V30 12 C 1.023070 1.601681 1.701221 0
M  V30 13 N 0.565743 2.221901 0.495566 0
M  V30 14 C -0.727798 1.782642 0.146610 0
M  V30 15 N -1.684296 2.735895 0.187470 0
M  V30 16 N -2.958088 2.493697 -0.094919 0
M  V30 17 C -3.359873 1.257990 -0.442360 0
M  V30 18 C -2.448788 0.212962 -0.511744 0
M  V30 19 C -1.154023 0.523376 -0.210639 0
M  V30 20 C -0.380557 -0.612040 -0.321469 0
M  V30 21 N -1.251000 -1.578466 -0.688952 0
M  V30 22 N -2.476559 -1.120866 -0.808348 0
M  V30 23 C -3.658749 -1.825301 -1.161760 0
M  V30 24 C -3.842496 -2.671218 -2.232977 0
M  V30 25 C -5.034806 -3.315935 -2.486795 0
M  V30 26 C -6.089091 -3.079367 -1.595476 0
M  V30 27 F -7.287541 -3.686604 -1.795304 0
M  V30 28 C -5.965382 -2.240051 -0.500808 0
M  V30 29 C -4.738551 -1.614759 -0.292507 0
M  V30 30 C 2.186823 0.826760 1.723334 0
M  V30 31 H 4.516542 -0.261633 0.953585 0
M  V30 32 H 5.900788 -2.110223 3.004678 0
M  V30 33 H 6.268774 -2.043243 -0.168088 0
M  V30 34 H 6.981091 -3.248124 1.009420 0
M  V30 35 H 7.196636 -0.065851 1.070230 0
M  V30 36 H 8.080910 -1.281646 2.182209 0
M  V30 37 H 2.161333 -0.082418 5.027857 0
M  V30 38 H 0.164961 1.244773 4.994288 0
M  V30 39 H 1.097930 2.918724 -0.082204 0
M  V30 40 H -4.407693 1.014478 -0.688561 0
M  V30 41 H 0.670398 -0.722440 -0.158628 0
M  V30 42 H -2.990300 -2.804832 -2.875462 0
M  V30 43 H -5.134072 -3.965581 -3.335903 0
M  V30 44 H -6.816602 -2.086804 0.167990 0
M  V30 45 H -4.747349 -0.972905 0.597269 0
M  V30 46 H 2.752740 0.707683 0.812249 0
M  V30 END ATOM
M  V30 BEGIN BOND
M  V30 1 2 1 2
M  V30 2 1 2 3
M  V30 3 1 3 4
M  V30 4 1 4 5
M  V30 5 1 5 6
M  V30 6 1 2 7
M  V30 7 2 7 8
M  V30 8 1 8 9
M  V30 9 2 9 10
M  V30 10 1 10 11
M  V30 11 1 10 12
M  V30 12 1 12 13
M  V30 13 1 13 14
M  V30 14 2 14 15
M  V30 15 1 15 16
M  V30 16 2 16 17
M  V30 17 1 17 18
M  V30 18 2 18 19
M  V30 19 1 19 20
M  V30 20 2 20 21
M  V30 21 1 21 22
M  V30 22 1 22 23
M  V30 23 2 23 24
M  V30 24 1 24 25
M  V30 25 2 25 26
M  V30 26 1 26 27
M  V30 27 1 26 28
M  V30 28 2 28 29
M  V30 29 2 12 30
M  V30 30 1 6 4
M  V30 31 1 30 7
M  V30 32 1 19 14
M  V30 33 1 29 23
M  V30 34 1 22 18
M  V30 35 1 3 31
M  V30 36 1 4 32
M  V30 37 1 5 33
M  V30 38 1 5 34
M  V30 39 1 6 35
M  V30 40 1 6 36
M  V30 41 1 8 37
M  V30 42 1 9 38
M  V30 43 1 13 39
M  V30 44 1 17 40
M  V30 45 1 20 41
M  V30 46 1 24 42
M  V30 47 1 25 43
M  V30 48 1 28 44
M  V30 49 1 29 45
M  V30 50 1 30 46
M  V30 END BOND
M  V30 END CTAB
M  END
>  <Dataset>  (602) 
ChEMBL_Kinases

>  <Ligand_Instance>  (602) 
nan

>  <PDB_ID>  (602) 
nan

>  <Standardized_SMILES>  (602) 
O=C(NC1CC1)c1ccc(Cl)c(Nc2nncc3c2cnn3-c2ccc(F)cc2)c1

>  <Name>  (602) 
nan

>  <Pocket>  (602) 
nan

>  <ATP_Site>  (602) 
nan

>  <Peripheral>  (602) 
nan

>  <Num_H_Atoms_ProtBoundConf>  (602) 
nan

>  <Num_Resolved_Atoms>  (602) 
nan

>  <Num_Not_Resolved_Atoms>  (602) 
nan

$$$$
CHEMBL1091929
     RDKit          3D

  0  0  0  0  0  0  0  0  0  0999 V3000
M  V30 BEGIN CTAB
M  V30 COUNTS 52 56 0 0 0
M  V30 BEGIN ATOM
M  V30 1 C -0.478054 0.399685 4.329621 0
M  V30 2 C 0.804544 -0.049963 3.749995 0
M  V30 3 C 1.888503 -0.305511 4.564361 0
M  V30 4 F 1.705930 -0.121361 5.904807 0
M  V30 5 C 3.127083 -0.733750 4.069345 0
M  V30 6 C 3.287712 -0.913462 2.705312 0
M  V30 7 C 4.600947 -1.360630 2.248756 0
M  V30 8 O 5.485285 -1.550912 3.106162 0
M  V30 9 N 4.914798 -1.586942 0.884067 0
M  V30 10 C 6.246216 -2.031330 0.514089 0
M  V30 11 C 6.757647 -1.741096 -0.844380 0
M  V30 12 C 6.259818 -3.123150 -0.557103 0
M  V30 13 C 2.226159 -0.667158 1.866511 0
M  V30 14 C 1.025582 -0.246802 2.401677 0
M  V30 15 C -0.078628 0.004699 1.480772 0
M  V30 16 C -0.280513 1.250651 0.915093 0
M  V30 17 C -1.343620 1.426817 0.049894 0
M  V30 18 C -1.848440 2.482670 -0.682906 0
M  V30 19 N -2.922743 1.991872 -1.335800 0
M  V30 20 N -3.110313 0.710826 -1.054004 0
M  V30 21 C -4.217951 0.079909 -1.685772 0
M  V30 22 C -5.373982 -0.003701 -0.912631 0
M  V30 23 F -5.403888 0.497895 0.367310 0
M  V30 24 C -6.562568 -0.577973 -1.339266 0
M  V30 25 C -6.536516 -1.082151 -2.622606 0
M  V30 26 C -5.425616 -1.030468 -3.437328 0
M  V30 27 C -4.260614 -0.445362 -2.963577 0
M  V30 28 F -3.129578 -0.345994 -3.675481 0
M  V30 29 C -2.145750 0.331710 -0.196334 0
M  V30 30 N -1.995134 -0.896047 0.324425 0
M  V30 31 C -2.885798 -1.998278 0.013860 0
M  V30 32 C -0.934779 -1.033246 1.174608 0
M  V30 33 O -0.743002 -2.158925 1.692838 0
M  V30 34 H -0.647754 -0.188950 5.265087 0
M  V30 35 H -0.489144 1.462140 4.611754 0
M  V30 36 H -1.346008 0.179421 3.667036 0
M  V30 37 H 3.893738 -0.898392 4.814338 0
M  V30 38 H 4.185380 -1.432453 0.152559 0
M  V30 39 H 6.946490 -2.168942 1.350450 0
M  V30 40 H 6.218018 -1.084189 -1.530464 0
M  V30 41 H 7.862281 -1.668993 -0.941500 0
M  V30 42 H 5.331199 -3.376897 -1.089294 0
M  V30 43 H 6.967656 -3.963188 -0.443699 0
M  V30 44 H 2.355217 -0.808609 0.802017 0
M  V30 45 H 0.375924 2.080637 1.138582 0
M  V30 46 H -1.417775 3.474670 -0.684508 0
M  V30 47 H -7.431088 -0.616650 -0.697628 0
M  V30 48 H -7.422720 -1.547465 -3.033930 0
M  V30 49 H -5.440177 -1.433121 -4.432148 0
M  V30 50 H -2.386342 -2.921236 0.436854 0
M  V30 51 H -3.842336 -1.946331 0.590931 0
M  V30 52 H -3.000957 -2.210518 -1.049061 0
M  V30 END ATOM
M  V30 BEGIN BOND
M  V30 1 1 1 2
M  V30 2 2 2 3
M  V30 3 1 3 4
M  V30 4 1 3 5
M  V30 5 2 5 6
M  V30 6 1 6 7
M  V30 7 2 7 8
M  V30 8 1 7 9
M  V30 9 1 9 10
M  V30 10 1 10 11
M  V30 11 1 11 12
M  V30 12 1 6 13
M  V30 13 2 13 14
M  V30 14 1 14 15
M  V30 15 2 15 16
M  V30 16 1 16 17
M  V30 17 1 17 18
M  V30 18 2 18 19
M  V30 19 1 19 20
M  V30 20 1 20 21
M  V30 21 2 21 22
M  V30 22 1 22 23
M  V30 23 1 22 24
M  V30 24 2 24 25
M  V30 25 1 25 26
M  V30 26 2 26 27
M  V30 27 1 27 28
M  V30 28 1 20 29
M  V30 29 1 29 30
M  V30 30 1 30 31
M  V30 31 1 30 32
M  V30 32 2 32 33
M  V30 33 1 14 2
M  V30 34 1 32 15
M  V30 35 1 12 10
M  V30 36 2 29 17
M  V30 37 1 27 21
M  V30 38 1 1 34
M  V30 39 1 1 35
M  V30 40 1 1 36
M  V30 41 1 5 37
M  V30 42 1 9 38
M  V30 43 1 10 39
M  V30 44 1 11 40
M  V30 45 1 11 41
M  V30 46 1 12 42
M  V30 47 1 12 43
M  V30 48 1 13 44
M  V30 49 1 16 45
M  V30 50 1 18 46
M  V30 51 1 24 47
M  V30 52 1 25 48
M  V30 53 1 26 49
M  V30 54 1 31 50
M  V30 55 1 31 51
M  V30 56 1 31 52
M  V30 END BOND
M  V30 END CTAB
M  END
>  <Dataset>  (603) 
ChEMBL_Kinases

>  <Ligand_Instance>  (603) 
nan

>  <PDB_ID>  (603) 
nan

>  <Standardized_SMILES>  (603) 
Cc1c(F)cc(C(=O)NC2CC2)cc1-c1cc2cnn(-c3c(F)cccc3F)c2n(C)c1=O

>  <Name>  (603) 
nan

>  <Pocket>  (603) 
nan

>  <ATP_Site>  (603) 
nan

>  <Peripheral>  (603) 
nan

>  <Num_H_Atoms_ProtBoundConf>  (603) 
nan

>  <Num_Resolved_Atoms>  (603) 
nan

>  <Num_Not_Resolved_Atoms>  (603) 
nan

$$$$
CHEMBL1091927
     RDKit          3D

  0  0  0  0  0  0  0  0  0  0999 V3000
M  V30 BEGIN CTAB
M  V30 COUNTS 55 59 0 0 0
M  V30 BEGIN ATOM
M  V30 1 C 0.368250 -2.878770 3.462653 0
M  V30 2 C 1.355588 -1.766739 3.232829 0
M  V30 3 C 2.454765 -1.736473 4.068815 0
M  V30 4 C 3.356853 -0.691823 3.832908 0
M  V30 5 C 3.124236 0.213011 2.832130 0
M  V30 6 C 4.118651 1.269617 2.658110 0
M  V30 7 O 5.114057 1.286035 3.425242 0
M  V30 8 N 4.075713 2.301308 1.691817 0
M  V30 9 C 5.079617 3.311251 1.567523 0
M  V30 10 C 4.786682 4.715005 1.211197 0
M  V30 11 C 5.536169 3.791753 0.227743 0
M  V30 12 C 2.008897 0.133576 2.027927 0
M  V30 13 C 1.078602 -0.877014 2.210891 0
M  V30 14 C -0.130063 -1.036334 1.405628 0
M  V30 15 C -1.340896 -0.467571 1.699078 0
M  V30 16 C -2.389210 -0.715375 0.834983 0
M  V30 17 C -3.710221 -0.316452 0.820320 0
M  V30 18 C -4.357850 0.549037 1.825204 0
M  V30 19 N -4.258869 -0.872650 -0.276275 0
M  V30 20 N -3.345194 -1.595136 -0.940794 0
M  V30 21 C -3.733764 -2.265020 -2.134485 0
M  V30 22 C -3.921850 -1.590397 -3.328084 0
M  V30 23 F -3.731696 -0.233023 -3.379060 0
M  V30 24 C -4.299529 -2.238319 -4.489287 0
M  V30 25 C -4.506550 -3.618188 -4.493813 0
M  V30 26 C -4.323586 -4.306000 -3.313375 0
M  V30 27 C -3.946537 -3.639381 -2.166139 0
M  V30 28 F -3.759846 -4.305530 -0.982683 0
M  V30 29 C -2.181332 -1.513217 -0.273128 0
M  V30 30 N -1.001186 -2.086507 -0.587769 0
M  V30 31 C -0.841272 -2.909427 -1.755592 0
M  V30 32 C 0.023848 -1.831172 0.276822 0
M  V30 33 O 1.121176 -2.379977 -0.039509 0
M  V30 34 H 0.156391 -3.353382 2.465468 0
M  V30 35 H 0.818732 -3.694615 4.072192 0
M  V30 36 H -0.528682 -2.552205 3.997853 0
M  V30 37 H 2.577491 -2.478122 4.835759 0
M  V30 38 H 4.214872 -0.672260 4.489192 0
M  V30 39 H 3.243625 2.301052 1.038454 0
M  V30 40 H 5.906445 3.189031 2.327059 0
M  V30 41 H 3.778935 4.991834 0.862046 0
M  V30 42 H 5.400953 5.529374 1.651390 0
M  V30 43 H 6.611451 4.011894 0.067065 0
M  V30 44 H 4.994841 3.461077 -0.674232 0
M  V30 45 H 1.826538 0.846606 1.239911 0
M  V30 46 H -1.432128 0.133839 2.564860 0
M  V30 47 H -3.873302 0.499649 2.810900 0
M  V30 48 H -5.424746 0.240960 1.855132 0
M  V30 49 H -4.324975 1.610442 1.503589 0
M  V30 50 H -4.451796 -1.713913 -5.442075 0
M  V30 51 H -4.802396 -4.171660 -5.375173 0
M  V30 52 H -4.459983 -5.393078 -3.206567 0
M  V30 53 H 0.272726 -2.976701 -1.926121 0
M  V30 54 H -1.246656 -2.500201 -2.682087 0
M  V30 55 H -1.136910 -3.950654 -1.519195 0
M  V30 END ATOM
M  V30 BEGIN BOND
M  V30 1 1 1 2
M  V30 2 2 2 3
M  V30 3 1 3 4
M  V30 4 2 4 5
M  V30 5 1 5 6
M  V30 6 2 6 7
M  V30 7 1 6 8
M  V30 8 1 8 9
M  V30 9 1 9 10
M  V30 10 1 10 11
M  V30 11 1 5 12
M  V30 12 2 12 13
M  V30 13 1 13 14
M  V30 14 2 14 15
M  V30 15 1 15 16
M  V30 16 1 16 17
M  V30 17 1 17 18
M  V30 18 2 17 19
M  V30 19 1 19 20
M  V30 20 1 20 21
M  V30 21 2 21 22
M  V30 22 1 22 23
M  V30 23 1 22 24
M  V30 24 2 24 25
M  V30 25 1 25 26
M  V30 26 2 26 27
M  V30 27 1 27 28
M  V30 28 1 20 29
M  V30 29 1 29 30
M  V30 30 1 30 31
M  V30 31 1 30 32
M  V30 32 2 32 33
M  V30 33 1 13 2
M  V30 34 1 32 14
M  V30 35 1 11 9
M  V30 36 2 29 16
M  V30 37 1 27 21
M  V30 38 1 1 34
M  V30 39 1 1 35
M  V30 40 1 1 36
M  V30 41 1 3 37
M  V30 42 1 4 38
M  V30 43 1 8 39
M  V30 44 1 9 40
M  V30 45 1 10 41
M  V30 46 1 10 42
M  V30 47 1 11 43
M  V30 48 1 11 44
M  V30 49 1 12 45
M  V30 50 1 15 46
M  V30 51 1 18 47
M  V30 52 1 18 48
M  V30 53 1 18 49
M  V30 54 1 24 50
M  V30 55 1 25 51
M  V30 56 1 26 52
M  V30 57 1 31 53
M  V30 58 1 31 54
M  V30 59 1 31 55
M  V30 END BOND
M  V30 END CTAB
M  END
>  <Dataset>  (604) 
ChEMBL_Kinases

>  <Ligand_Instance>  (604) 
nan

>  <PDB_ID>  (604) 
nan

>  <Standardized_SMILES>  (604) 
Cc1ccc(C(=O)NC2CC2)cc1-c1cc2c(C)nn(-c3c(F)cccc3F)c2n(C)c1=O

>  <Name>  (604) 
nan

>  <Pocket>  (604) 
nan

>  <ATP_Site>  (604) 
nan

>  <Peripheral>  (604) 
nan

>  <Num_H_Atoms_ProtBoundConf>  (604) 
nan

>  <Num_Resolved_Atoms>  (604) 
nan

>  <Num_Not_Resolved_Atoms>  (604) 
nan

$$$$
CHEMBL1091787
     RDKit          3D

  0  0  0  0  0  0  0  0  0  0999 V3000
M  V30 BEGIN CTAB
M  V30 COUNTS 29 31 0 0 0
M  V30 BEGIN ATOM
M  V30 1 O -1.637505 0.417209 4.508433 0
M  V30 2 C -0.871288 0.301439 3.513406 0
M  V30 3 O 0.326661 0.925273 3.157777 0
M  V30 4 C 0.736866 0.398725 1.933071 0
M  V30 5 C 1.970711 0.814385 1.227389 0
M  V30 6 C 2.803512 1.785572 1.783156 0
M  V30 7 C 3.965226 2.162822 1.100358 0
M  V30 8 C 4.168144 1.507926 -0.093986 0
M  V30 9 Cl 5.644650 1.999863 -0.937129 0
M  V30 10 C 3.398929 0.548733 -0.699752 0
M  V30 11 C 2.260690 0.203136 0.005268 0
M  V30 12 N -0.109946 -0.483495 1.526148 0
M  V30 13 C -1.183370 -0.641075 2.442951 0
M  V30 14 C -2.165639 -1.511201 2.216827 0
M  V30 15 C -2.190578 -2.344113 0.992488 0
M  V30 16 C -1.825975 -1.783823 -0.209887 0
M  V30 17 C -1.789475 -2.450267 -1.441403 0
M  V30 18 C -2.171589 -3.797128 -1.347112 0
M  V30 19 N -2.527776 -4.342859 -0.173583 0
M  V30 20 C -2.555356 -3.681847 0.997889 0
M  V30 21 H 2.537124 2.228068 2.726900 0
M  V30 22 H 4.632486 2.908114 1.497553 0
M  V30 23 H 3.675724 0.110754 -1.647301 0
M  V30 24 H 1.581961 -0.558231 -0.400273 0
M  V30 25 H -2.915774 -1.539024 3.002088 0
M  V30 26 H -1.527959 -0.736879 -0.326782 0
M  V30 27 H -1.497496 -1.979138 -2.368601 0
M  V30 28 H -2.166938 -4.387653 -2.276810 0
M  V30 29 H -2.843124 -4.127684 1.939612 0
M  V30 END ATOM
M  V30 BEGIN BOND
M  V30 1 2 1 2
M  V30 2 1 2 3
M  V30 3 1 3 4
M  V30 4 1 4 5
M  V30 5 2 5 6
M  V30 6 1 6 7
M  V30 7 2 7 8
M  V30 8 1 8 9
M  V30 9 1 8 10
M  V30 10 2 10 11
M  V30 11 2 4 12
M  V30 12 1 12 13
M  V30 13 2 13 14
M  V30 14 1 14 15
M  V30 15 2 15 16
M  V30 16 1 16 17
M  V30 17 2 17 18
M  V30 18 1 18 19
M  V30 19 2 19 20
M  V30 20 1 13 2
M  V30 21 1 20 15
M  V30 22 1 11 5
M  V30 23 1 6 21
M  V30 24 1 7 22
M  V30 25 1 10 23
M  V30 26 1 11 24
M  V30 27 1 14 25
M  V30 28 1 16 26
M  V30 29 1 17 27
M  V30 30 1 18 28
M  V30 31 1 20 29
M  V30 END BOND
M  V30 END CTAB
M  END
>  <Dataset>  (605) 
ChEMBL_Kinases

>  <Ligand_Instance>  (605) 
nan

>  <PDB_ID>  (605) 
nan

>  <Standardized_SMILES>  (605) 
O=C1OC(c2ccc(Cl)cc2)=N/C1=C\c1cccnc1

>  <Name>  (605) 
nan

>  <Pocket>  (605) 
nan

>  <ATP_Site>  (605) 
nan

>  <Peripheral>  (605) 
nan

>  <Num_H_Atoms_ProtBoundConf>  (605) 
nan

>  <Num_Resolved_Atoms>  (605) 
nan

>  <Num_Not_Resolved_Atoms>  (605) 
nan

$$$$
CHEMBL1091786
     RDKit          3D

  0  0  0  0  0  0  0  0  0  0999 V3000
M  V30 BEGIN CTAB
M  V30 COUNTS 32 34 0 0 0
M  V30 BEGIN ATOM
M  V30 1 C -1.726031 -1.410379 3.998905 0
M  V30 2 C -1.493803 -2.353667 2.873845 0
M  V30 3 C -1.870452 -3.675790 2.795823 0
M  V30 4 C -1.619229 -4.487761 1.712855 0
M  V30 5 C -0.939479 -3.941160 0.622301 0
M  V30 6 C -0.538520 -2.619613 0.648641 0
M  V30 7 C 0.160511 -2.019674 -0.479510 0
M  V30 8 N 0.564577 -0.796002 -0.521334 0
M  V30 9 C 1.214312 -0.492256 -1.749357 0
M  V30 10 C 1.701099 0.740789 -1.979137 0
M  V30 11 C 1.554486 1.766351 -0.945775 0
M  V30 12 C 1.747606 1.523545 0.398311 0
M  V30 13 C 1.601253 2.467665 1.396994 0
M  V30 14 C 1.231181 3.739137 0.960438 0
M  V30 15 N 1.030920 4.025170 -0.344755 0
M  V30 16 C 1.186729 3.069650 -1.278742 0
M  V30 17 C 1.167959 -1.733161 -2.511147 0
M  V30 18 O 1.679803 -1.747727 -3.656782 0
M  V30 19 O 0.501871 -2.649051 -1.674128 0
M  V30 20 C -0.824703 -1.849319 1.777947 0
M  V30 21 H -0.726186 -1.157270 4.447213 0
M  V30 22 H -2.394137 -1.785121 4.770515 0
M  V30 23 H -2.071129 -0.424530 3.569971 0
M  V30 24 H -2.402745 -4.051268 3.683751 0
M  V30 25 H -1.945091 -5.518299 1.720613 0
M  V30 26 H -0.718348 -4.543052 -0.256527 0
M  V30 27 H 2.168239 0.843035 -2.944169 0
M  V30 28 H 2.038806 0.539416 0.735771 0
M  V30 29 H 1.762263 2.239184 2.443757 0
M  V30 30 H 1.115163 4.484394 1.753547 0
M  V30 31 H 1.030068 3.272660 -2.329514 0
M  V30 32 H -0.489107 -0.800192 1.767050 0
M  V30 END ATOM
M  V30 BEGIN BOND
M  V30 1 1 1 2
M  V30 2 2 2 3
M  V30 3 1 3 4
M  V30 4 2 4 5
M  V30 5 1 5 6
M  V30 6 1 6 7
M  V30 7 2 7 8
M  V30 8 1 8 9
M  V30 9 2 9 10
M  V30 10 1 10 11
M  V30 11 2 11 12
M  V30 12 1 12 13
M  V30 13 2 13 14
M  V30 14 1 14 15
M  V30 15 2 15 16
M  V30 16 1 9 17
M  V30 17 2 17 18
M  V30 18 1 17 19
M  V30 19 2 6 20
M  V30 20 1 20 2
M  V30 21 1 19 7
M  V30 22 1 16 11
M  V30 23 1 1 21
M  V30 24 1 1 22
M  V30 25 1 1 23
M  V30 26 1 3 24
M  V30 27 1 4 25
M  V30 28 1 5 26
M  V30 29 1 10 27
M  V30 30 1 12 28
M  V30 31 1 13 29
M  V30 32 1 14 30
M  V30 33 1 16 31
M  V30 34 1 20 32
M  V30 END BOND
M  V30 END CTAB
M  END
>  <Dataset>  (606) 
ChEMBL_Kinases

>  <Ligand_Instance>  (606) 
nan

>  <PDB_ID>  (606) 
nan

>  <Standardized_SMILES>  (606) 
Cc1cccc(C2=N/C(=C\c3cccnc3)C(=O)O2)c1

>  <Name>  (606) 
nan

>  <Pocket>  (606) 
nan

>  <ATP_Site>  (606) 
nan

>  <Peripheral>  (606) 
nan

>  <Num_H_Atoms_ProtBoundConf>  (606) 
nan

>  <Num_Resolved_Atoms>  (606) 
nan

>  <Num_Not_Resolved_Atoms>  (606) 
nan

$$$$
CHEMBL1091785
     RDKit          3D

  0  0  0  0  0  0  0  0  0  0999 V3000
M  V30 BEGIN CTAB
M  V30 COUNTS 31 33 0 0 0
M  V30 BEGIN ATOM
M  V30 1 O 1.517902 -3.378134 3.996714 0
M  V30 2 C 1.502060 -2.607288 3.012423 0
M  V30 3 O 2.418078 -2.021764 2.119110 0
M  V30 4 C 1.711483 -1.223731 1.210198 0
M  V30 5 C 2.367063 -0.465680 0.137984 0
M  V30 6 C 3.732978 -0.487780 -0.050534 0
M  V30 7 C 4.350975 0.237812 -1.075496 0
M  V30 8 C 3.491390 0.967118 -1.870866 0
M  V30 9 Cl 4.260083 1.885306 -3.165691 0
M  V30 10 C 2.118980 1.044388 -1.751694 0
M  V30 11 N 1.294226 1.808467 -2.594992 0 CHG=1 VAL=4
M  V30 12 O 0.104512 1.413905 -2.742031 0
M  V30 13 O 1.661207 2.936884 -3.269027 0 CHG=-1 VAL=1
M  V30 14 C 1.576072 0.303191 -0.718643 0
M  V30 15 N 0.444133 -1.258095 1.453997 0
M  V30 16 C 0.183073 -2.107945 2.581511 0
M  V30 17 C -1.079566 -2.286925 3.002709 0
M  V30 18 C -2.244901 -1.670255 2.399167 0
M  V30 19 C -3.433424 -2.356035 2.271129 0
M  V30 20 C -4.535726 -1.749886 1.695124 0
M  V30 21 C -4.422484 -0.431472 1.246035 0
M  V30 22 N -3.255893 0.260054 1.364987 0
M  V30 23 C -2.194013 -0.368705 1.936465 0
M  V30 24 H 4.357811 -1.081272 0.608820 0
M  V30 25 H 5.410284 0.230617 -1.232835 0
M  V30 26 H 0.507626 0.310036 -0.559498 0
M  V30 27 H -1.123355 -2.964695 3.869845 0
M  V30 28 H -3.489131 -3.381888 2.630968 0
M  V30 29 H -5.449833 -2.307999 1.606601 0
M  V30 30 H -5.320526 -0.017173 0.805608 0
M  V30 31 H -1.306447 0.244633 1.997376 0
M  V30 END ATOM
M  V30 BEGIN BOND
M  V30 1 2 1 2
M  V30 2 1 2 3
M  V30 3 1 3 4
M  V30 4 1 4 5
M  V30 5 2 5 6
M  V30 6 1 6 7
M  V30 7 2 7 8
M  V30 8 1 8 9
M  V30 9 1 8 10
M  V30 10 1 10 11
M  V30 11 2 11 12
M  V30 12 1 11 13
M  V30 13 2 10 14
M  V30 14 2 4 15
M  V30 15 1 15 16
M  V30 16 2 16 17
M  V30 17 1 17 18
M  V30 18 2 18 19
M  V30 19 1 19 20
M  V30 20 2 20 21
M  V30 21 1 21 22
M  V30 22 2 22 23
M  V30 23 1 16 2
M  V30 24 1 23 18
M  V30 25 1 14 5
M  V30 26 1 6 24
M  V30 27 1 7 25
M  V30 28 1 14 26
M  V30 29 1 17 27
M  V30 30 1 19 28
M  V30 31 1 20 29
M  V30 32 1 21 30
M  V30 33 1 23 31
M  V30 END BOND
M  V30 END CTAB
M  END
>  <Dataset>  (607) 
ChEMBL_Kinases

>  <Ligand_Instance>  (607) 
nan

>  <PDB_ID>  (607) 
nan

>  <Standardized_SMILES>  (607) 
O=C1OC(c2ccc(Cl)c([N+](=O)[O-])c2)=N/C1=C\c1cccnc1

>  <Name>  (607) 
nan

>  <Pocket>  (607) 
nan

>  <ATP_Site>  (607) 
nan

>  <Peripheral>  (607) 
nan

>  <Num_H_Atoms_ProtBoundConf>  (607) 
nan

>  <Num_Resolved_Atoms>  (607) 
nan

>  <Num_Not_Resolved_Atoms>  (607) 
nan

$$$$
CHEMBL1091784
     RDKit          3D

  0  0  0  0  0  0  0  0  0  0999 V3000
M  V30 BEGIN CTAB
M  V30 COUNTS 29 31 0 0 0
M  V30 BEGIN ATOM
M  V30 1 O -0.269632 -2.020442 4.755374 0
M  V30 2 C 0.313714 -1.541983 3.773401 0
M  V30 3 O 1.572202 -1.075821 3.337168 0
M  V30 4 C 1.438103 -0.653494 1.992846 0
M  V30 5 C 2.469660 -0.103152 1.124491 0
M  V30 6 C 2.726382 1.272525 1.083074 0
M  V30 7 C 3.723657 1.680575 0.201983 0
M  V30 8 I 4.059310 3.771131 0.186958 0
M  V30 9 C 4.470274 0.856611 -0.623190 0
M  V30 10 C 4.183042 -0.505676 -0.550709 0
M  V30 11 C 3.200032 -0.948916 0.312355 0
M  V30 12 Cl 2.853779 -2.673468 0.378472 0
M  V30 13 N 0.242062 -0.810533 1.564648 0
M  V30 14 C -0.582407 -1.374085 2.607418 0
M  V30 15 C -1.870059 -1.652589 2.327922 0
M  V30 16 C -2.471752 -1.345091 1.017725 0
M  V30 17 C -2.388456 -0.173768 0.289002 0
M  V30 18 C -2.969309 -0.028212 -0.967019 0
M  V30 19 N -3.605562 -1.123485 -1.388729 0
M  V30 20 C -3.705975 -2.245384 -0.725195 0
M  V30 21 C -3.141905 -2.419711 0.521169 0
M  V30 22 H 2.138834 1.892920 1.729176 0
M  V30 23 H 5.222340 1.279023 -1.273559 0
M  V30 24 H 4.767020 -1.143291 -1.198494 0
M  V30 25 H -2.386548 -2.108781 3.162409 0
M  V30 26 H -1.837244 0.606395 0.791461 0
M  V30 27 H -2.865118 0.910565 -1.476437 0
M  V30 28 H -4.279883 -2.996264 -1.286821 0
M  V30 29 H -3.283663 -3.377996 0.981796 0
M  V30 END ATOM
M  V30 BEGIN BOND
M  V30 1 2 1 2
M  V30 2 1 2 3
M  V30 3 1 3 4
M  V30 4 1 4 5
M  V30 5 2 5 6
M  V30 6 1 6 7
M  V30 7 1 7 8
M  V30 8 2 7 9
M  V30 9 1 9 10
M  V30 10 2 10 11
M  V30 11 1 11 12
M  V30 12 2 4 13
M  V30 13 1 13 14
M  V30 14 2 14 15
M  V30 15 1 15 16
M  V30 16 2 16 17
M  V30 17 1 17 18
M  V30 18 2 18 19
M  V30 19 1 19 20
M  V30 20 2 20 21
M  V30 21 1 14 2
M  V30 22 1 21 16
M  V30 23 1 11 5
M  V30 24 1 6 22
M  V30 25 1 9 23
M  V30 26 1 10 24
M  V30 27 1 15 25
M  V30 28 1 17 26
M  V30 29 1 18 27
M  V30 30 1 20 28
M  V30 31 1 21 29
M  V30 END BOND
M  V30 END CTAB
M  END
>  <Dataset>  (608) 
ChEMBL_Kinases

>  <Ligand_Instance>  (608) 
nan

>  <PDB_ID>  (608) 
nan

>  <Standardized_SMILES>  (608) 
O=C1OC(c2cc(I)ccc2Cl)=N/C1=C\c1ccncc1

>  <Name>  (608) 
nan

>  <Pocket>  (608) 
nan

>  <ATP_Site>  (608) 
nan

>  <Peripheral>  (608) 
nan

>  <Num_H_Atoms_ProtBoundConf>  (608) 
nan

>  <Num_Resolved_Atoms>  (608) 
nan

>  <Num_Not_Resolved_Atoms>  (608) 
nan

$$$$
CHEMBL1091766
     RDKit          3D

  0  0  0  0  0  0  0  0  0  0999 V3000
M  V30 BEGIN CTAB
M  V30 COUNTS 32 34 0 0 0
M  V30 BEGIN ATOM
M  V30 1 C -2.859814 -1.880441 3.535437 0
M  V30 2 C -2.270122 -2.588573 2.362208 0
M  V30 3 C -1.334575 -1.990963 1.540051 0
M  V30 4 C -0.769313 -2.619237 0.450315 0
M  V30 5 C 0.217216 -1.959764 -0.394822 0
M  V30 6 N 0.664039 -0.761617 -0.232053 0
M  V30 7 C 1.614994 -0.448905 -1.242531 0
M  V30 8 C 2.233667 0.710310 -1.311739 0
M  V30 9 C 2.048610 1.824612 -0.390082 0
M  V30 10 C 3.204438 2.557310 -0.094282 0
M  V30 11 C 2.976151 3.609737 0.795277 0
M  V30 12 C 1.772461 3.974072 1.379805 0
M  V30 13 N 0.713254 3.215028 1.039253 0
M  V30 14 C 0.853206 2.168574 0.176050 0
M  V30 15 C 1.717231 -1.630084 -2.088206 0
M  V30 16 O 2.469446 -1.728842 -3.097380 0
M  V30 17 O 0.826442 -2.523546 -1.505671 0
M  V30 18 C -1.169126 -3.932444 0.167942 0
M  V30 19 C -2.102946 -4.478334 1.018446 0
M  V30 20 C -2.686320 -3.880097 2.113116 0
M  V30 21 Br -3.969509 -4.698922 3.239907 0
M  V30 22 H -3.211116 -2.640926 4.276983 0
M  V30 23 H -2.083117 -1.293135 4.086053 0
M  V30 24 H -3.686991 -1.203767 3.267297 0
M  V30 25 H -1.033483 -0.967044 1.772831 0
M  V30 26 H 2.932821 0.797147 -2.142574 0
M  V30 27 H 4.206229 2.394846 -0.469655 0
M  V30 28 H 3.860957 4.211836 1.054795 0
M  V30 29 H 1.768929 4.821734 2.052739 0
M  V30 30 H -0.034248 1.588415 -0.065771 0
M  V30 31 H -0.766458 -4.484672 -0.670246 0
M  V30 32 H -2.405068 -5.506607 0.783881 0
M  V30 END ATOM
M  V30 BEGIN BOND
M  V30 1 1 1 2
M  V30 2 2 2 3
M  V30 3 1 3 4
M  V30 4 1 4 5
M  V30 5 2 5 6
M  V30 6 1 6 7
M  V30 7 2 7 8
M  V30 8 1 8 9
M  V30 9 2 9 10
M  V30 10 1 10 11
M  V30 11 2 11 12
M  V30 12 1 12 13
M  V30 13 2 13 14
M  V30 14 1 7 15
M  V30 15 2 15 16
M  V30 16 1 15 17
M  V30 17 2 4 18
M  V30 18 1 18 19
M  V30 19 2 19 20
M  V30 20 1 20 21
M  V30 21 1 20 2
M  V30 22 1 17 5
M  V30 23 1 14 9
M  V30 24 1 1 22
M  V30 25 1 1 23
M  V30 26 1 1 24
M  V30 27 1 3 25
M  V30 28 1 8 26
M  V30 29 1 10 27
M  V30 30 1 11 28
M  V30 31 1 12 29
M  V30 32 1 14 30
M  V30 33 1 18 31
M  V30 34 1 19 32
M  V30 END BOND
M  V30 END CTAB
M  END
>  <Dataset>  (609) 
ChEMBL_Kinases

>  <Ligand_Instance>  (609) 
nan

>  <PDB_ID>  (609) 
nan

>  <Standardized_SMILES>  (609) 
Cc1cc(C2=N/C(=C\c3cccnc3)C(=O)O2)ccc1Br

>  <Name>  (609) 
nan

>  <Pocket>  (609) 
nan

>  <ATP_Site>  (609) 
nan

>  <Peripheral>  (609) 
nan

>  <Num_H_Atoms_ProtBoundConf>  (609) 
nan

>  <Num_Resolved_Atoms>  (609) 
nan

>  <Num_Not_Resolved_Atoms>  (609) 
nan

$$$$
CHEMBL1091765
     RDKit          3D

  0  0  0  0  0  0  0  0  0  0999 V3000
M  V30 BEGIN CTAB
M  V30 COUNTS 29 31 0 0 0
M  V30 BEGIN ATOM
M  V30 1 O -0.787998 0.250999 4.861914 0
M  V30 2 C -0.270261 0.159880 3.722335 0
M  V30 3 O 0.844574 0.767050 3.159426 0
M  V30 4 C 1.016950 0.341913 1.848910 0
M  V30 5 C 2.097034 0.771735 0.932024 0
M  V30 6 C 3.034576 1.676750 1.383868 0
M  V30 7 C 4.052257 2.083676 0.534617 0
M  V30 8 C 4.082357 1.559347 -0.739359 0
M  V30 9 C 3.135835 0.653684 -1.176939 0
M  V30 10 Cl 3.108385 -0.056775 -2.783571 0
M  V30 11 C 2.110539 0.228519 -0.356845 0
M  V30 12 N 0.074308 -0.491754 1.568728 0
M  V30 13 C -0.804335 -0.692310 2.667612 0
M  V30 14 C -1.862546 -1.522979 2.629833 0
M  V30 15 C -2.142429 -2.258912 1.381317 0
M  V30 16 C -2.007394 -1.662962 0.145046 0
M  V30 17 C -2.246275 -2.313446 -1.055774 0
M  V30 18 C -2.643449 -3.647777 -0.916351 0
M  V30 19 N -2.776519 -4.232527 0.295872 0
M  V30 20 C -2.540094 -3.584033 1.436505 0
M  V30 21 H 3.027268 2.097794 2.376715 0
M  V30 22 H 4.833497 2.786202 0.789669 0
M  V30 23 H 4.796890 1.770765 -1.510767 0
M  V30 24 H 1.342583 -0.476453 -0.643923 0
M  V30 25 H -2.430107 -1.575930 3.549629 0
M  V30 26 H -1.703147 -0.622304 0.039459 0
M  V30 27 H -2.128284 -1.809380 -2.003908 0
M  V30 28 H -2.830704 -4.156010 -1.875270 0
M  V30 29 H -2.660616 -4.097163 2.387924 0
M  V30 END ATOM
M  V30 BEGIN BOND
M  V30 1 2 1 2
M  V30 2 1 2 3
M  V30 3 1 3 4
M  V30 4 1 4 5
M  V30 5 2 5 6
M  V30 6 1 6 7
M  V30 7 2 7 8
M  V30 8 1 8 9
M  V30 9 1 9 10
M  V30 10 2 9 11
M  V30 11 2 4 12
M  V30 12 1 12 13
M  V30 13 2 13 14
M  V30 14 1 14 15
M  V30 15 2 15 16
M  V30 16 1 16 17
M  V30 17 2 17 18
M  V30 18 1 18 19
M  V30 19 2 19 20
M  V30 20 1 13 2
M  V30 21 1 20 15
M  V30 22 1 11 5
M  V30 23 1 6 21
M  V30 24 1 7 22
M  V30 25 1 8 23
M  V30 26 1 11 24
M  V30 27 1 14 25
M  V30 28 1 16 26
M  V30 29 1 17 27
M  V30 30 1 18 28
M  V30 31 1 20 29
M  V30 END BOND
M  V30 END CTAB
M  END
>  <Dataset>  (610) 
ChEMBL_Kinases

>  <Ligand_Instance>  (610) 
nan

>  <PDB_ID>  (610) 
nan

>  <Standardized_SMILES>  (610) 
O=C1OC(c2cccc(Cl)c2)=N/C1=C\c1cccnc1

>  <Name>  (610) 
nan

>  <Pocket>  (610) 
nan

>  <ATP_Site>  (610) 
nan

>  <Peripheral>  (610) 
nan

>  <Num_H_Atoms_ProtBoundConf>  (610) 
nan

>  <Num_Resolved_Atoms>  (610) 
nan

>  <Num_Not_Resolved_Atoms>  (610) 
nan

$$$$
CHEMBL1091764
     RDKit          3D

  0  0  0  0  0  0  0  0  0  0999 V3000
M  V30 BEGIN CTAB
M  V30 COUNTS 29 31 0 0 0
M  V30 BEGIN ATOM
M  V30 1 O -0.149292 1.781558 4.446415 0
M  V30 2 C 0.266538 1.190611 3.418135 0
M  V30 3 O 1.505153 1.161923 2.737739 0
M  V30 4 C 1.388149 0.321718 1.639828 0
M  V30 5 C 2.384013 -0.034991 0.635694 0
M  V30 6 C 2.049139 -0.904048 -0.378374 0
M  V30 7 C 2.950775 -1.293246 -1.375695 0
M  V30 8 C 4.219703 -0.760078 -1.303401 0
M  V30 9 F 5.110443 -1.118337 -2.254666 0
M  V30 10 C 4.574652 0.114626 -0.292154 0
M  V30 11 F 5.832870 0.648538 -0.214003 0
M  V30 12 C 3.661584 0.481223 0.680373 0
M  V30 13 N 0.197974 -0.164629 1.584100 0
M  V30 14 C -0.622087 0.302931 2.653518 0
M  V30 15 C -1.901233 -0.093536 2.800825 0
M  V30 16 C -2.475576 -1.022280 1.797998 0
M  V30 17 C -2.170336 -0.742354 0.482593 0
M  V30 18 C -2.646502 -1.555545 -0.549401 0
M  V30 19 C -3.438154 -2.655847 -0.207777 0
M  V30 20 N -3.698007 -2.871476 1.091742 0
M  V30 21 C -3.259397 -2.115481 2.102427 0
M  V30 22 H 1.068707 -1.349708 -0.476850 0
M  V30 23 H 2.653886 -1.984239 -2.164691 0
M  V30 24 H 3.881518 1.169236 1.504849 0
M  V30 25 H -2.352326 0.355364 3.689178 0
M  V30 26 H -1.581599 0.068179 0.075266 0
M  V30 27 H -2.444294 -1.392812 -1.617145 0
M  V30 28 H -3.812680 -3.295184 -1.003946 0
M  V30 29 H -3.470726 -2.294517 3.146116 0
M  V30 END ATOM
M  V30 BEGIN BOND
M  V30 1 2 1 2
M  V30 2 1 2 3
M  V30 3 1 3 4
M  V30 4 1 4 5
M  V30 5 2 5 6
M  V30 6 1 6 7
M  V30 7 2 7 8
M  V30 8 1 8 9
M  V30 9 1 8 10
M  V30 10 1 10 11
M  V30 11 2 10 12
M  V30 12 2 4 13
M  V30 13 1 13 14
M  V30 14 2 14 15
M  V30 15 1 15 16
M  V30 16 2 16 17
M  V30 17 1 17 18
M  V30 18 2 18 19
M  V30 19 1 19 20
M  V30 20 2 20 21
M  V30 21 1 14 2
M  V30 22 1 21 16
M  V30 23 1 12 5
M  V30 24 1 6 22
M  V30 25 1 7 23
M  V30 26 1 12 24
M  V30 27 1 15 25
M  V30 28 1 17 26
M  V30 29 1 18 27
M  V30 30 1 19 28
M  V30 31 1 21 29
M  V30 END BOND
M  V30 END CTAB
M  END
>  <Dataset>  (611) 
ChEMBL_Kinases

>  <Ligand_Instance>  (611) 
nan

>  <PDB_ID>  (611) 
nan

>  <Standardized_SMILES>  (611) 
O=C1OC(c2ccc(F)c(F)c2)=N/C1=C\c1cccnc1

>  <Name>  (611) 
nan

>  <Pocket>  (611) 
nan

>  <ATP_Site>  (611) 
nan

>  <Peripheral>  (611) 
nan

>  <Num_H_Atoms_ProtBoundConf>  (611) 
nan

>  <Num_Resolved_Atoms>  (611) 
nan

>  <Num_Not_Resolved_Atoms>  (611) 
nan

$$$$
CHEMBL1091737
     RDKit          3D

  0  0  0  0  0  0  0  0  0  0999 V3000
M  V30 BEGIN CTAB
M  V30 COUNTS 44 47 0 0 0
M  V30 BEGIN ATOM
M  V30 1 O 2.389663 -1.292329 2.216199 0
M  V30 2 C 1.336058 -1.336823 1.560745 0
M  V30 3 C 1.907988 -0.587688 0.462758 0
M  V30 4 C 2.029515 -1.440854 -0.648414 0
M  V30 5 C 2.554740 -1.011368 -1.864478 0
M  V30 6 C 2.960355 0.303224 -1.947052 0
M  V30 7 C 3.494073 0.835867 -3.093213 0
M  V30 8 C 3.934834 2.156235 -3.272266 0
M  V30 9 C 3.777742 2.938792 -2.116921 0
M  V30 10 C 3.255825 2.505692 -0.917898 0
M  V30 11 C 2.867828 1.185716 -0.896331 0
M  V30 12 C 2.338976 0.726610 0.304121 0
M  V30 13 N 0.011633 -1.862049 1.664340 0
M  V30 14 C -0.942608 -1.541337 0.625689 0
M  V30 15 C -1.768160 -0.355030 0.845141 0
M  V30 16 C -1.417740 0.905061 0.427757 0
M  V30 17 C -2.084188 2.139800 0.558141 0
M  V30 18 C -3.295951 1.941373 1.240927 0
M  V30 19 F -3.998672 3.115205 1.398913 0
M  V30 20 C -3.779970 0.752417 1.715926 0
M  V30 21 C -2.999619 -0.340166 1.498985 0
M  V30 22 C -0.308825 -2.653120 2.785101 0
M  V30 23 C 0.492952 -2.903883 3.882039 0
M  V30 24 C 0.194852 -3.694484 4.960335 0
M  V30 25 N -0.999201 -4.304491 4.981594 0
M  V30 26 C -1.885514 -4.139784 3.957372 0
M  V30 27 C -1.511610 -3.332889 2.914754 0
M  V30 28 H 1.751830 -2.487274 -0.714457 0
M  V30 29 H 2.671165 -1.615889 -2.742055 0
M  V30 30 H 3.611686 0.221862 -3.983195 0
M  V30 31 H 4.351512 2.537658 -4.189842 0
M  V30 32 H 4.089189 3.992750 -2.149866 0
M  V30 33 H 3.155476 3.146103 -0.055150 0
M  V30 34 H 2.188860 1.262280 1.226493 0
M  V30 35 H -0.393972 -1.305274 -0.342212 0
M  V30 36 H -1.586323 -2.426236 0.486528 0
M  V30 37 H -0.458344 0.984678 -0.107759 0
M  V30 38 H -1.672469 3.048541 0.171667 0
M  V30 39 H -4.730410 0.737724 2.226443 0
M  V30 40 H -3.411918 -1.260341 1.883915 0
M  V30 41 H 1.467832 -2.440502 3.921901 0
M  V30 42 H 0.893737 -3.833195 5.780771 0
M  V30 43 H -2.806896 -4.664084 4.060565 0
M  V30 44 H -2.278046 -3.279319 2.159579 0
M  V30 END ATOM
M  V30 BEGIN BOND
M  V30 1 2 1 2
M  V30 2 1 2 3
M  V30 3 2 3 4
M  V30 4 1 4 5
M  V30 5 2 5 6
M  V30 6 1 6 7
M  V30 7 2 7 8
M  V30 8 1 8 9
M  V30 9 2 9 10
M  V30 10 1 10 11
M  V30 11 2 11 12
M  V30 12 1 2 13
M  V30 13 1 13 14
M  V30 14 1 14 15
M  V30 15 2 15 16
M  V30 16 1 16 17
M  V30 17 2 17 18
M  V30 18 1 18 19
M  V30 19 1 18 20
M  V30 20 2 20 21
M  V30 21 1 13 22
M  V30 22 2 22 23
M  V30 23 1 23 24
M  V30 24 2 24 25
M  V30 25 1 25 26
M  V30 26 2 26 27
M  V30 27 1 12 3
M  V30 28 1 21 15
M  V30 29 1 27 22
M  V30 30 1 11 6
M  V30 31 1 4 28
M  V30 32 1 5 29
M  V30 33 1 7 30
M  V30 34 1 8 31
M  V30 35 1 9 32
M  V30 36 1 10 33
M  V30 37 1 12 34
M  V30 38 1 14 35
M  V30 39 1 14 36
M  V30 40 1 16 37
M  V30 41 1 17 38
M  V30 42 1 20 39
M  V30 43 1 21 40
M  V30 44 1 23 41
M  V30 45 1 24 42
M  V30 46 1 26 43
M  V30 47 1 27 44
M  V30 END BOND
M  V30 END CTAB
M  END
>  <Dataset>  (612) 
ChEMBL_Kinases

>  <Ligand_Instance>  (612) 
nan

>  <PDB_ID>  (612) 
nan

>  <Standardized_SMILES>  (612) 
O=C(c1ccc2ccccc2c1)N(Cc1ccc(F)cc1)c1ccncc1

>  <Name>  (612) 
nan

>  <Pocket>  (612) 
nan

>  <ATP_Site>  (612) 
nan

>  <Peripheral>  (612) 
nan

>  <Num_H_Atoms_ProtBoundConf>  (612) 
nan

>  <Num_Resolved_Atoms>  (612) 
nan

>  <Num_Not_Resolved_Atoms>  (612) 
nan

$$$$
CHEMBL1091636
     RDKit          3D

  0  0  0  0  0  0  0  0  0  0999 V3000
M  V30 BEGIN CTAB
M  V30 COUNTS 56 60 0 0 0
M  V30 BEGIN ATOM
M  V30 1 O 0.233913 -2.518114 0.347465 0
M  V30 2 C 0.524494 -1.316053 0.574679 0
M  V30 3 C 1.917003 -1.213298 0.956178 0
M  V30 4 C 2.547880 -1.055085 2.165950 0
M  V30 5 C 3.914316 -0.970533 2.282161 0
M  V30 6 C 4.676634 -1.051663 1.123642 0
M  V30 7 C 4.108935 -1.213913 -0.139607 0
M  V30 8 C 2.716893 -1.290975 -0.186585 0
M  V30 9 C 5.229307 -1.262556 -1.115520 0
M  V30 10 C 6.429029 -0.886227 -0.309455 0
M  V30 11 O 6.044181 -0.985719 1.047044 0
M  V30 12 N -0.552112 -0.355487 0.405671 0
M  V30 13 C -0.079957 0.940015 0.769356 0
M  V30 14 C -0.245550 1.339937 2.202855 0
M  V30 15 C 0.336571 2.683200 2.546489 0
M  V30 16 C -0.424806 3.864520 2.065808 0
M  V30 17 N -1.806136 3.833255 2.592879 0
M  V30 18 C -2.406155 2.607584 2.042305 0
M  V30 19 C -1.722114 1.419614 2.617528 0
M  V30 20 C -1.737113 -0.955146 -0.060927 0
M  V30 21 C -2.864881 -0.228015 -0.365316 0
M  V30 22 C -4.038170 -0.797344 -0.839255 0
M  V30 23 N -4.033995 -2.150298 -0.996916 0
M  V30 24 C -2.954735 -2.884264 -0.709573 0
M  V30 25 N -2.796616 -4.283999 -0.859841 0
M  V30 26 C -3.690156 -5.274029 -1.390730 0
M  V30 27 C -4.174157 -5.205470 -2.796794 0
M  V30 28 C -3.068968 -6.184935 -2.457315 0
M  V30 29 N -1.868407 -2.249599 -0.258509 0
M  V30 30 H 1.866205 -1.016270 2.983331 0
M  V30 31 H 4.266996 -0.846116 3.275853 0
M  V30 32 H 2.396090 -1.416341 -1.215948 0
M  V30 33 H 5.338063 -2.296941 -1.504526 0
M  V30 34 H 5.077436 -0.574723 -1.973070 0
M  V30 35 H 6.759697 0.135577 -0.534172 0
M  V30 36 H 7.271766 -1.593454 -0.459818 0
M  V30 37 H 0.988413 1.092300 0.512605 0
M  V30 38 H -0.699546 1.702058 0.189437 0
M  V30 39 H 0.222179 0.616707 2.922207 0
M  V30 40 H 0.332952 2.738376 3.671558 0
M  V30 41 H 1.400027 2.777642 2.254898 0
M  V30 42 H 0.054450 4.779622 2.497120 0
M  V30 43 H -0.493621 3.905700 0.966845 0
M  V30 44 H -2.293421 4.616852 2.098619 0
M  V30 45 H -2.303052 2.743851 0.942681 0
M  V30 46 H -3.473033 2.572673 2.278531 0
M  V30 47 H -2.243480 0.463295 2.441866 0
M  V30 48 H -1.660099 1.608587 3.732992 0
M  V30 49 H -2.818269 0.828712 -0.230080 0
M  V30 50 H -4.923693 -0.228158 -1.074741 0
M  V30 51 H -1.933233 -4.789155 -0.565642 0
M  V30 52 H -4.421656 -5.738994 -0.682644 0
M  V30 53 H -3.851833 -4.368403 -3.450158 0
M  V30 54 H -5.142878 -5.662735 -3.049075 0
M  V30 55 H -2.015939 -5.951972 -2.746395 0
M  V30 56 H -3.292145 -7.259958 -2.413095 0
M  V30 END ATOM
M  V30 BEGIN BOND
M  V30 1 2 1 2
M  V30 2 1 2 3
M  V30 3 2 3 4
M  V30 4 1 4 5
M  V30 5 2 5 6
M  V30 6 1 6 7
M  V30 7 2 7 8
M  V30 8 1 7 9
M  V30 9 1 9 10
M  V30 10 1 10 11
M  V30 11 1 2 12
M  V30 12 1 12 13
M  V30 13 1 13 14
M  V30 14 1 14 15
M  V30 15 1 15 16
M  V30 16 1 16 17
M  V30 17 1 17 18
M  V30 18 1 18 19
M  V30 19 1 12 20
M  V30 20 2 20 21
M  V30 21 1 21 22
M  V30 22 2 22 23
M  V30 23 1 23 24
M  V30 24 1 24 25
M  V30 25 1 25 26
M  V30 26 1 26 27
M  V30 27 1 27 28
M  V30 28 2 24 29
M  V30 29 1 8 3
M  V30 30 1 19 14
M  V30 31 1 29 20
M  V30 32 1 11 6
M  V30 33 1 28 26
M  V30 34 1 4 30
M  V30 35 1 5 31
M  V30 36 1 8 32
M  V30 37 1 9 33
M  V30 38 1 9 34
M  V30 39 1 10 35
M  V30 40 1 10 36
M  V30 41 1 13 37
M  V30 42 1 13 38
M  V30 43 1 14 39
M  V30 44 1 15 40
M  V30 45 1 15 41
M  V30 46 1 16 42
M  V30 47 1 16 43
M  V30 48 1 17 44
M  V30 49 1 18 45
M  V30 50 1 18 46
M  V30 51 1 19 47
M  V30 52 1 19 48
M  V30 53 1 21 49
M  V30 54 1 22 50
M  V30 55 1 25 51
M  V30 56 1 26 52
M  V30 57 1 27 53
M  V30 58 1 27 54
M  V30 59 1 28 55
M  V30 60 1 28 56
M  V30 END BOND
M  V30 END CTAB
M  END
>  <Dataset>  (613) 
ChEMBL_Kinases

>  <Ligand_Instance>  (613) 
nan

>  <PDB_ID>  (613) 
nan

>  <Standardized_SMILES>  (613) 
O=C(c1ccc2c(c1)CCO2)N(CC1CCNCC1)c1ccnc(NC2CC2)n1

>  <Name>  (613) 
nan

>  <Pocket>  (613) 
nan

>  <ATP_Site>  (613) 
nan

>  <Peripheral>  (613) 
nan

>  <Num_H_Atoms_ProtBoundConf>  (613) 
nan

>  <Num_Resolved_Atoms>  (613) 
nan

>  <Num_Not_Resolved_Atoms>  (613) 
nan

$$$$
CHEMBL1091635
     RDKit          3D

  0  0  0  0  0  0  0  0  0  0999 V3000
M  V30 BEGIN CTAB
M  V30 COUNTS 65 68 0 0 0
M  V30 BEGIN ATOM
M  V30 1 C 2.972721 -1.610800 2.937264 0
M  V30 2 C 3.580760 -1.031681 1.654925 0
M  V30 3 C 3.872326 0.385835 1.829497 0
M  V30 4 C 4.866805 0.792192 2.830964 0
M  V30 5 O 5.154992 0.078937 3.921433 0
M  V30 6 C 5.916502 -1.035411 3.878154 0
M  V30 7 N 3.843701 1.234177 0.643869 0
M  V30 8 C 2.724900 1.475967 -0.190678 0
M  V30 9 N 2.911342 2.278375 -1.279167 0
M  V30 10 C 1.874781 2.544436 -2.112621 0
M  V30 11 C 0.673960 1.958855 -1.776068 0
M  V30 12 C 0.436392 1.144038 -0.692101 0
M  V30 13 N -0.851056 0.591888 -0.476467 0
M  V30 14 C -1.951275 0.669551 -1.376971 0
M  V30 15 C -2.014622 -0.483971 -2.352062 0
M  V30 16 C -0.814293 -0.606757 -3.217979 0
M  V30 17 C -1.042698 -1.702604 -4.233731 0
M  V30 18 N -1.492704 -2.941400 -3.693159 0
M  V30 19 C -2.622844 -2.796097 -2.801176 0
M  V30 20 C -2.297560 -1.788112 -1.690329 0
M  V30 21 C -0.947502 -0.090458 0.784115 0
M  V30 22 O 0.131238 -0.075653 1.440699 0
M  V30 23 C -2.047702 -0.782011 1.424794 0
M  V30 24 C -2.043753 -2.145532 1.739495 0
M  V30 25 C -3.172669 -2.687479 2.354107 0
M  V30 26 C -4.272815 -1.890734 2.645161 0
M  V30 27 C -4.289557 -0.527642 2.336109 0
M  V30 28 C -3.158552 -0.005997 1.725600 0
M  V30 29 C -5.611362 -0.010672 2.788598 0
M  V30 30 C -6.458070 -1.270265 2.787514 0
M  V30 31 O -5.493114 -2.222491 3.249825 0
M  V30 32 N 1.521396 0.940725 0.071158 0
M  V30 33 H 3.384936 -2.574970 3.224287 0
M  V30 34 H 1.856660 -1.732159 2.778737 0
M  V30 35 H 3.052633 -0.894371 3.768413 0
M  V30 36 H 4.464672 -1.659450 1.393733 0
M  V30 37 H 2.859481 -1.251180 0.821235 0
M  V30 38 H 2.860435 0.835714 2.363798 0
M  V30 39 H 5.887803 0.958595 2.287312 0
M  V30 40 H 4.669449 1.889014 3.153887 0
M  V30 41 H 6.964264 -0.811014 3.492880 0
M  V30 42 H 6.118332 -1.323921 4.965724 0
M  V30 43 H 5.625541 -1.936361 3.390619 0
M  V30 44 H 4.763083 1.665073 0.459956 0
M  V30 45 H 2.003443 3.173669 -2.975436 0
M  V30 46 H -0.128582 2.201808 -2.457486 0
M  V30 47 H -1.997692 1.601018 -1.942152 0
M  V30 48 H -2.912601 0.611445 -0.793314 0
M  V30 49 H -2.897041 -0.276173 -3.026477 0
M  V30 50 H -0.600051 0.324196 -3.791112 0
M  V30 51 H 0.092515 -0.919126 -2.622912 0
M  V30 52 H -0.019598 -1.903298 -4.672009 0
M  V30 53 H -1.690544 -1.318934 -5.041510 0
M  V30 54 H -0.734843 -3.525277 -3.277521 0
M  V30 55 H -2.838930 -3.781093 -2.376194 0
M  V30 56 H -3.503395 -2.424281 -3.325040 0
M  V30 57 H -1.424738 -2.106297 -1.088576 0
M  V30 58 H -3.188767 -1.764129 -1.028162 0
M  V30 59 H -1.161606 -2.717124 1.490335 0
M  V30 60 H -3.143299 -3.742754 2.585543 0
M  V30 61 H -3.273653 1.055552 1.530728 0
M  V30 62 H -6.007142 0.751156 2.080798 0
M  V30 63 H -5.607255 0.350250 3.827017 0
M  V30 64 H -6.756257 -1.550253 1.758420 0
M  V30 65 H -7.297984 -1.202332 3.498501 0
M  V30 END ATOM
M  V30 BEGIN BOND
M  V30 1 1 1 2
M  V30 2 1 2 3
M  V30 3 1 3 4
M  V30 4 1 4 5
M  V30 5 1 5 6
M  V30 6 1 3 7
M  V30 7 1 7 8
M  V30 8 2 8 9
M  V30 9 1 9 10
M  V30 10 2 10 11
M  V30 11 1 11 12
M  V30 12 1 12 13
M  V30 13 1 13 14
M  V30 14 1 14 15
M  V30 15 1 15 16
M  V30 16 1 16 17
M  V30 17 1 17 18
M  V30 18 1 18 19
M  V30 19 1 19 20
M  V30 20 1 13 21
M  V30 21 2 21 22
M  V30 22 1 21 23
M  V30 23 2 23 24
M  V30 24 1 24 25
M  V30 25 2 25 26
M  V30 26 1 26 27
M  V30 27 2 27 28
M  V30 28 1 27 29
M  V30 29 1 29 30
M  V30 30 1 30 31
M  V30 31 2 12 32
M  V30 32 1 32 8
M  V30 33 1 20 15
M  V30 34 1 28 23
M  V30 35 1 31 26
M  V30 36 1 1 33
M  V30 37 1 1 34
M  V30 38 1 1 35
M  V30 39 1 2 36
M  V30 40 1 2 37
M  V30 41 1 3 38
M  V30 42 1 4 39
M  V30 43 1 4 40
M  V30 44 1 6 41
M  V30 45 1 6 42
M  V30 46 1 6 43
M  V30 47 1 7 44
M  V30 48 1 10 45
M  V30 49 1 11 46
M  V30 50 1 14 47
M  V30 51 1 14 48
M  V30 52 1 15 49
M  V30 53 1 16 50
M  V30 54 1 16 51
M  V30 55 1 17 52
M  V30 56 1 17 53
M  V30 57 1 18 54
M  V30 58 1 19 55
M  V30 59 1 19 56
M  V30 60 1 20 57
M  V30 61 1 20 58
M  V30 62 1 24 59
M  V30 63 1 25 60
M  V30 64 1 28 61
M  V30 65 1 29 62
M  V30 66 1 29 63
M  V30 67 1 30 64
M  V30 68 1 30 65
M  V30 END BOND
M  V30 END CTAB
M  END
>  <Dataset>  (614) 
ChEMBL_Kinases

>  <Ligand_Instance>  (614) 
nan

>  <PDB_ID>  (614) 
nan

>  <Standardized_SMILES>  (614) 
CCC(COC)Nc1nccc(N(CC2CCNCC2)C(=O)c2ccc3c(c2)CCO3)n1

>  <Name>  (614) 
nan

>  <Pocket>  (614) 
nan

>  <ATP_Site>  (614) 
nan

>  <Peripheral>  (614) 
nan

>  <Num_H_Atoms_ProtBoundConf>  (614) 
nan

>  <Num_Resolved_Atoms>  (614) 
nan

>  <Num_Not_Resolved_Atoms>  (614) 
nan

$$$$
CHEMBL1091634
     RDKit          3D

  0  0  0  0  0  0  0  0  0  0999 V3000
M  V30 BEGIN CTAB
M  V30 COUNTS 62 65 0 0 0
M  V30 BEGIN ATOM
M  V30 1 C 0.273595 1.974760 3.905423 0
M  V30 2 C 1.778002 1.790249 3.964474 0
M  V30 3 C 2.211236 1.295428 5.309153 0
M  V30 4 C 2.383397 3.156278 3.626181 0
M  V30 5 O 3.761795 3.132059 3.667353 0
M  V30 6 N 2.274715 0.861033 2.984284 0
M  V30 7 C 2.297935 0.747883 1.568200 0
M  V30 8 N 3.338777 1.273499 0.887809 0
M  V30 9 C 3.433158 1.213107 -0.447371 0
M  V30 10 C 2.358597 0.559732 -1.052360 0
M  V30 11 C 1.270978 0.006854 -0.387007 0
M  V30 12 N 0.239123 -0.624403 -1.181294 0
M  V30 13 C -0.762983 0.358806 -1.516638 0
M  V30 14 C -1.853683 0.448645 -0.490635 0
M  V30 15 C -2.900687 1.492875 -0.859353 0
M  V30 16 C -3.985118 1.508823 0.188178 0
M  V30 17 N -3.665608 0.653630 1.314011 0
M  V30 18 C -3.423468 -0.706842 0.935213 0
M  V30 19 C -2.625794 -0.852093 -0.346238 0
M  V30 20 C 0.833264 -1.881485 -1.165667 0
M  V30 21 O 1.900267 -1.784087 -0.500551 0
M  V30 22 C 0.378368 -3.113649 -1.770918 0
M  V30 23 C 0.376300 -3.417964 -3.125882 0
M  V30 24 C -0.087898 -4.637710 -3.578318 0
M  V30 25 C -0.564981 -5.592991 -2.693768 0
M  V30 26 C -0.568639 -5.303755 -1.345137 0
M  V30 27 C -0.104495 -4.081804 -0.881493 0
M  V30 28 C -1.125594 -6.482508 -0.609581 0
M  V30 29 C -1.933488 -7.138987 -1.725579 0
M  V30 30 O -1.084212 -6.879767 -2.847049 0
M  V30 31 N 1.274852 0.122487 0.954901 0
M  V30 32 H -0.271629 1.134596 4.381637 0
M  V30 33 H 0.035308 2.922699 4.421697 0
M  V30 34 H -0.037926 2.105528 2.839978 0
M  V30 35 H 1.339376 0.888519 5.857775 0
M  V30 36 H 2.634933 2.122126 5.927558 0
M  V30 37 H 2.955306 0.469261 5.243407 0
M  V30 38 H 2.036395 3.434140 2.618453 0
M  V30 39 H 1.960609 3.879585 4.352464 0
M  V30 40 H 4.084923 4.008506 3.977429 0
M  V30 41 H 2.781433 -0.026340 3.200727 0
M  V30 42 H 4.231577 1.609281 -1.053767 0
M  V30 43 H 2.379450 0.479007 -2.150190 0
M  V30 44 H -1.173901 0.059276 -2.526590 0
M  V30 45 H -0.357010 1.366908 -1.677147 0
M  V30 46 H -1.463803 0.761018 0.488654 0
M  V30 47 H -3.314529 1.265117 -1.844601 0
M  V30 48 H -2.380600 2.472594 -0.919569 0
M  V30 49 H -4.987841 1.230829 -0.205305 0
M  V30 50 H -4.071534 2.541411 0.582664 0
M  V30 51 H -2.906986 1.046408 1.907994 0
M  V30 52 H -4.374606 -1.276274 0.849024 0
M  V30 53 H -2.833028 -1.191564 1.738443 0
M  V30 54 H -1.883178 -1.668284 -0.263673 0
M  V30 55 H -3.325365 -1.036951 -1.162998 0
M  V30 56 H 0.751147 -2.659927 -3.785592 0
M  V30 57 H -0.074657 -4.841694 -4.639831 0
M  V30 58 H -0.127400 -3.907059 0.166409 0
M  V30 59 H -1.810860 -6.146601 0.196131 0
M  V30 60 H -0.340922 -7.172297 -0.246950 0
M  V30 61 H -2.073351 -8.221765 -1.570353 0
M  V30 62 H -2.880223 -6.568394 -1.800511 0
M  V30 END ATOM
M  V30 BEGIN BOND
M  V30 1 1 1 2
M  V30 2 1 2 3
M  V30 3 1 2 4
M  V30 4 1 4 5
M  V30 5 1 2 6
M  V30 6 1 6 7
M  V30 7 2 7 8
M  V30 8 1 8 9
M  V30 9 2 9 10
M  V30 10 1 10 11
M  V30 11 1 11 12
M  V30 12 1 12 13
M  V30 13 1 13 14
M  V30 14 1 14 15
M  V30 15 1 15 16
M  V30 16 1 16 17
M  V30 17 1 17 18
M  V30 18 1 18 19
M  V30 19 1 12 20
M  V30 20 2 20 21
M  V30 21 1 20 22
M  V30 22 2 22 23
M  V30 23 1 23 24
M  V30 24 2 24 25
M  V30 25 1 25 26
M  V30 26 2 26 27
M  V30 27 1 26 28
M  V30 28 1 28 29
M  V30 29 1 29 30
M  V30 30 2 11 31
M  V30 31 1 31 7
M  V30 32 1 19 14
M  V30 33 1 27 22
M  V30 34 1 30 25
M  V30 35 1 1 32
M  V30 36 1 1 33
M  V30 37 1 1 34
M  V30 38 1 3 35
M  V30 39 1 3 36
M  V30 40 1 3 37
M  V30 41 1 4 38
M  V30 42 1 4 39
M  V30 43 1 5 40
M  V30 44 1 6 41
M  V30 45 1 9 42
M  V30 46 1 10 43
M  V30 47 1 13 44
M  V30 48 1 13 45
M  V30 49 1 14 46
M  V30 50 1 15 47
M  V30 51 1 15 48
M  V30 52 1 16 49
M  V30 53 1 16 50
M  V30 54 1 17 51
M  V30 55 1 18 52
M  V30 56 1 18 53
M  V30 57 1 19 54
M  V30 58 1 19 55
M  V30 59 1 23 56
M  V30 60 1 24 57
M  V30 61 1 27 58
M  V30 62 1 28 59
M  V30 63 1 28 60
M  V30 64 1 29 61
M  V30 65 1 29 62
M  V30 END BOND
M  V30 END CTAB
M  END
>  <Dataset>  (615) 
ChEMBL_Kinases

>  <Ligand_Instance>  (615) 
nan

>  <PDB_ID>  (615) 
nan

>  <Standardized_SMILES>  (615) 
CC(C)(CO)Nc1nccc(N(CC2CCNCC2)C(=O)c2ccc3c(c2)CCO3)n1

>  <Name>  (615) 
nan

>  <Pocket>  (615) 
nan

>  <ATP_Site>  (615) 
nan

>  <Peripheral>  (615) 
nan

>  <Num_H_Atoms_ProtBoundConf>  (615) 
nan

>  <Num_Resolved_Atoms>  (615) 
nan

>  <Num_Not_Resolved_Atoms>  (615) 
nan

$$$$
CHEMBL1091615
     RDKit          3D

  0  0  0  0  0  0  0  0  0  0999 V3000
M  V30 BEGIN CTAB
M  V30 COUNTS 58 60 0 0 0
M  V30 BEGIN ATOM
M  V30 1 C -0.117031 -2.302494 3.809503 0
M  V30 2 O 1.140526 -1.711321 3.675211 0
M  V30 3 C 0.980977 -0.327108 3.455133 0
M  V30 4 C 2.354443 0.267370 3.309067 0 CFG=2
M  V30 5 C 2.355372 1.777259 3.194683 0
M  V30 6 N 3.033670 -0.362307 2.209714 0
M  V30 7 C 2.659894 -0.509441 0.847629 0
M  V30 8 N 3.464340 -1.082434 -0.069280 0
M  V30 9 C 3.054574 -1.198118 -1.335192 0
M  V30 10 C 1.812121 -0.733028 -1.703020 0
M  V30 11 C 0.984499 -0.146778 -0.770498 0
M  V30 12 N -0.323750 0.363249 -1.117635 0
M  V30 13 C -0.299167 1.779093 -1.415827 0
M  V30 14 C -0.496766 2.574209 -0.141298 0
M  V30 15 C -1.816804 2.316645 0.518968 0
M  V30 16 C -2.999712 2.718231 -0.320022 0
M  V30 17 N -2.995114 4.149391 -0.597435 0
M  V30 18 C -1.422599 -0.526753 -1.101757 0
M  V30 19 O -2.672507 -0.417455 -1.351464 0
M  V30 20 C -1.462403 -1.933612 -0.770282 0
M  V30 21 C -2.055584 -2.525611 0.320909 0
M  V30 22 C -2.052442 -3.892569 0.575613 0
M  V30 23 C -1.389669 -4.630776 -0.378327 0
M  V30 24 C -0.763962 -4.134266 -1.507346 0
M  V30 25 C -0.803633 -2.744460 -1.706348 0
M  V30 26 C -0.175152 -5.302987 -2.243671 0
M  V30 27 C -0.079044 -6.335037 -1.143121 0
M  V30 28 O -1.235869 -6.027647 -0.365080 0
M  V30 29 N 1.424113 -0.041076 0.508117 0
M  V30 30 H 0.025652 -3.383169 3.972897 0
M  V30 31 H -0.597967 -1.866864 4.697239 0
M  V30 32 H -0.767503 -2.132221 2.915342 0
M  V30 33 H 0.322797 -0.119413 2.597656 0
M  V30 34 H 0.507800 0.105792 4.373408 0
M  V30 35 H 2.900720 0.048801 4.262705 0
M  V30 36 H 3.363979 2.087585 2.844565 0
M  V30 37 H 2.216596 2.226625 4.204149 0
M  V30 38 H 1.576358 2.167555 2.519592 0
M  V30 39 H 3.978593 -0.794869 2.431684 0
M  V30 40 H 3.710299 -1.660960 -2.069953 0
M  V30 41 H 1.495593 -0.835963 -2.723078 0
M  V30 42 H 0.661993 2.094896 -1.857119 0
M  V30 43 H -1.065751 2.056642 -2.178399 0
M  V30 44 H 0.293936 2.237851 0.550307 0
M  V30 45 H -0.311415 3.645468 -0.363019 0
M  V30 46 H -1.885820 1.256146 0.780012 0
M  V30 47 H -1.827922 2.919625 1.453990 0
M  V30 48 H -2.944827 2.252959 -1.348815 0
M  V30 49 H -3.940470 2.387276 0.145609 0
M  V30 50 H -3.292730 4.695056 0.244687 0
M  V30 51 H -2.083340 4.404167 -0.994686 0
M  V30 52 H -2.536298 -1.836395 0.984977 0
M  V30 53 H -2.534734 -4.303659 1.444201 0
M  V30 54 H -0.296985 -2.477376 -2.608880 0
M  V30 55 H 0.835188 -5.059761 -2.665347 0
M  V30 56 H -0.855317 -5.675601 -3.049798 0
M  V30 57 H 0.820535 -6.170966 -0.516356 0
M  V30 58 H -0.127673 -7.367245 -1.547248 0
M  V30 END ATOM
M  V30 BEGIN BOND
M  V30 1 1 1 2
M  V30 2 1 2 3
M  V30 3 1 3 4
M  V30 4 1 4 5
M  V30 5 1 4 6
M  V30 6 1 6 7
M  V30 7 2 7 8
M  V30 8 1 8 9
M  V30 9 2 9 10
M  V30 10 1 10 11
M  V30 11 1 11 12
M  V30 12 1 12 13
M  V30 13 1 13 14
M  V30 14 1 14 15
M  V30 15 1 15 16
M  V30 16 1 16 17
M  V30 17 1 12 18
M  V30 18 2 18 19
M  V30 19 1 18 20
M  V30 20 2 20 21
M  V30 21 1 21 22
M  V30 22 2 22 23
M  V30 23 1 23 24
M  V30 24 2 24 25
M  V30 25 1 24 26
M  V30 26 1 26 27
M  V30 27 1 27 28
M  V30 28 2 11 29
M  V30 29 1 29 7
M  V30 30 1 25 20
M  V30 31 1 28 23
M  V30 32 1 1 30
M  V30 33 1 1 31
M  V30 34 1 1 32
M  V30 35 1 3 33
M  V30 36 1 3 34
M  V30 37 1 4 35 CFG=1
M  V30 38 1 5 36
M  V30 39 1 5 37
M  V30 40 1 5 38
M  V30 41 1 6 39
M  V30 42 1 9 40
M  V30 43 1 10 41
M  V30 44 1 13 42
M  V30 45 1 13 43
M  V30 46 1 14 44
M  V30 47 1 14 45
M  V30 48 1 15 46
M  V30 49 1 15 47
M  V30 50 1 16 48
M  V30 51 1 16 49
M  V30 52 1 17 50
M  V30 53 1 17 51
M  V30 54 1 21 52
M  V30 55 1 22 53
M  V30 56 1 25 54
M  V30 57 1 26 55
M  V30 58 1 26 56
M  V30 59 1 27 57
M  V30 60 1 27 58
M  V30 END BOND
M  V30 END CTAB
M  END
>  <Dataset>  (616) 
ChEMBL_Kinases

>  <Ligand_Instance>  (616) 
nan

>  <PDB_ID>  (616) 
nan

>  <Standardized_SMILES>  (616) 
COC[C@H](C)Nc1nccc(N(CCCCN)C(=O)c2ccc3c(c2)CCO3)n1

>  <Name>  (616) 
nan

>  <Pocket>  (616) 
nan

>  <ATP_Site>  (616) 
nan

>  <Peripheral>  (616) 
nan

>  <Num_H_Atoms_ProtBoundConf>  (616) 
nan

>  <Num_Resolved_Atoms>  (616) 
nan

>  <Num_Not_Resolved_Atoms>  (616) 
nan

$$$$
CHEMBL1091614
     RDKit          3D

  0  0  0  0  0  0  0  0  0  0999 V3000
M  V30 BEGIN CTAB
M  V30 COUNTS 62 65 0 0 0
M  V30 BEGIN ATOM
M  V30 1 N 1.586375 -1.292844 5.667079 0
M  V30 2 C 2.378313 -0.253852 5.077733 0
M  V30 3 C 2.372004 -0.282237 3.552901 0
M  V30 4 C 3.231074 0.840252 3.066654 0
M  V30 5 C 3.386690 0.939027 1.594852 0
M  V30 6 N 2.190487 1.138238 0.849809 0
M  V30 7 C 1.864665 2.552695 0.686051 0
M  V30 8 O 2.039317 3.776972 0.853826 0
M  V30 9 C 0.650665 2.702866 -0.133946 0
M  V30 10 C 0.497774 3.134397 -1.416782 0
M  V30 11 C -0.690605 3.198779 -2.102302 0
M  V30 12 C -1.792540 2.768359 -1.358181 0
M  V30 13 C -1.709223 2.322446 -0.062256 0
M  V30 14 C -0.472663 2.278614 0.590137 0
M  V30 15 C -3.069167 1.939786 0.390253 0
M  V30 16 C -3.946026 2.268449 -0.795148 0
M  V30 17 O -3.114546 2.731390 -1.821402 0
M  V30 18 C 1.422317 0.064773 0.271760 0
M  V30 19 C 2.022916 -0.357504 -0.920571 0
M  V30 20 C 1.365901 -1.385284 -1.603538 0
M  V30 21 N 0.223562 -1.938462 -1.146419 0
M  V30 22 C -0.297516 -1.496028 -0.013397 0
M  V30 23 N -1.515828 -2.029954 0.543924 0
M  V30 24 C -2.266388 -3.139085 -0.001884 0
M  V30 25 C -2.520968 -3.067945 -1.453484 0
M  V30 26 C -1.870095 -4.096265 -2.322690 0
M  V30 27 C -1.360179 -5.323137 -1.660054 0
M  V30 28 O 0.037016 -5.295193 -1.610723 0
M  V30 29 C -1.887414 -5.613948 -0.300078 0
M  V30 30 C -1.703856 -4.407334 0.550733 0
M  V30 31 N 0.295119 -0.525911 0.662304 0
M  V30 32 H 0.827159 -0.867898 6.241316 0
M  V30 33 H 1.082801 -1.812783 4.894583 0
M  V30 34 H 3.454083 -0.369217 5.373526 0
M  V30 35 H 2.009476 0.725483 5.397342 0
M  V30 36 H 1.353701 -0.124751 3.169652 0
M  V30 37 H 2.743211 -1.275940 3.241750 0
M  V30 38 H 2.799909 1.824460 3.414691 0
M  V30 39 H 4.223114 0.733344 3.559510 0
M  V30 40 H 4.120158 1.749664 1.363893 0
M  V30 41 H 3.877075 -0.026003 1.258340 0
M  V30 42 H 1.435948 3.432988 -1.858701 0
M  V30 43 H -0.674970 3.558593 -3.106943 0
M  V30 44 H -0.497134 1.931913 1.596393 0
M  V30 45 H -3.081276 0.829123 0.564545 0
M  V30 46 H -3.407810 2.488097 1.274882 0
M  V30 47 H -4.458110 1.334562 -1.157123 0
M  V30 48 H -4.723338 3.010208 -0.552335 0
M  V30 49 H 2.905605 -0.074915 -1.470356 0
M  V30 50 H 1.672090 -1.853956 -2.553699 0
M  V30 51 H -1.890212 -1.567419 1.432517 0
M  V30 52 H -3.293644 -3.052302 0.505612 0
M  V30 53 H -2.199745 -2.069150 -1.822143 0
M  V30 54 H -3.637346 -3.100626 -1.669945 0
M  V30 55 H -1.043494 -3.662226 -2.938601 0
M  V30 56 H -2.606754 -4.436044 -3.113723 0
M  V30 57 H -1.582329 -6.251352 -2.282018 0
M  V30 58 H 0.376107 -4.710231 -0.905385 0
M  V30 59 H -1.211501 -6.408904 0.138131 0
M  V30 60 H -2.932755 -5.995202 -0.289974 0
M  V30 61 H -2.164605 -4.645970 1.560028 0
M  V30 62 H -0.623774 -4.287844 0.782784 0
M  V30 END ATOM
M  V30 BEGIN BOND
M  V30 1 1 1 2
M  V30 2 1 2 3
M  V30 3 1 3 4
M  V30 4 1 4 5
M  V30 5 1 5 6
M  V30 6 1 6 7
M  V30 7 2 7 8
M  V30 8 1 7 9
M  V30 9 2 9 10
M  V30 10 1 10 11
M  V30 11 2 11 12
M  V30 12 1 12 13
M  V30 13 2 13 14
M  V30 14 1 13 15
M  V30 15 1 15 16
M  V30 16 1 16 17
M  V30 17 1 6 18
M  V30 18 2 18 19
M  V30 19 1 19 20
M  V30 20 2 20 21
M  V30 21 1 21 22
M  V30 22 1 22 23
M  V30 23 1 23 24
M  V30 24 1 24 25
M  V30 25 1 25 26
M  V30 26 1 26 27
M  V30 27 1 27 28
M  V30 28 1 27 29
M  V30 29 1 29 30
M  V30 30 2 22 31
M  V30 31 1 14 9
M  V30 32 1 31 18
M  V30 33 1 17 12
M  V30 34 1 30 24
M  V30 35 1 1 32
M  V30 36 1 1 33
M  V30 37 1 2 34
M  V30 38 1 2 35
M  V30 39 1 3 36
M  V30 40 1 3 37
M  V30 41 1 4 38
M  V30 42 1 4 39
M  V30 43 1 5 40
M  V30 44 1 5 41
M  V30 45 1 10 42
M  V30 46 1 11 43
M  V30 47 1 14 44
M  V30 48 1 15 45
M  V30 49 1 15 46
M  V30 50 1 16 47
M  V30 51 1 16 48
M  V30 52 1 19 49
M  V30 53 1 20 50
M  V30 54 1 23 51
M  V30 55 1 24 52
M  V30 56 1 25 53
M  V30 57 1 25 54
M  V30 58 1 26 55
M  V30 59 1 26 56
M  V30 60 1 27 57
M  V30 61 1 28 58
M  V30 62 1 29 59
M  V30 63 1 29 60
M  V30 64 1 30 61
M  V30 65 1 30 62
M  V30 END BOND
M  V30 END CTAB
M  END
>  <Dataset>  (617) 
ChEMBL_Kinases

>  <Ligand_Instance>  (617) 
nan

>  <PDB_ID>  (617) 
nan

>  <Standardized_SMILES>  (617) 
NCCCCN(C(=O)c1ccc2c(c1)CCO2)c1ccnc(NC2CCC(O)CC2)n1

>  <Name>  (617) 
nan

>  <Pocket>  (617) 
nan

>  <ATP_Site>  (617) 
nan

>  <Peripheral>  (617) 
nan

>  <Num_H_Atoms_ProtBoundConf>  (617) 
nan

>  <Num_Resolved_Atoms>  (617) 
nan

>  <Num_Not_Resolved_Atoms>  (617) 
nan

$$$$
CHEMBL1090587
     RDKit          3D

  0  0  0  0  0  0  0  0  0  0999 V3000
M  V30 BEGIN CTAB
M  V30 COUNTS 57 60 0 0 0
M  V30 BEGIN ATOM
M  V30 1 C -0.185001 -4.013483 4.954483 0
M  V30 2 O 0.954960 -3.988855 4.202034 0
M  V30 3 C 0.934084 -3.179251 3.075715 0
M  V30 4 C 0.677359 -1.743086 3.426808 0
M  V30 5 N 0.638259 -0.816174 2.344802 0
M  V30 6 C 1.862917 -0.159949 1.940471 0
M  V30 7 O 2.959157 -0.440389 2.462651 0
M  V30 8 C 1.837634 0.872187 0.884267 0
M  V30 9 C 2.152173 0.805865 -0.465639 0
M  V30 10 C 2.046390 1.957575 -1.213919 0
M  V30 11 C 1.642458 3.166993 -0.672971 0
M  V30 12 C 1.326066 3.246654 0.670247 0
M  V30 13 C 1.431658 2.078230 1.437415 0
M  V30 14 C 0.941424 4.654117 0.938171 0
M  V30 15 C 0.519432 5.119421 -0.441058 0
M  V30 16 O 1.473605 4.419427 -1.242989 0
M  V30 17 C -0.699726 -0.678820 1.880280 0
M  V30 18 C -1.669804 -0.237232 2.719128 0
M  V30 19 C -2.950199 -0.085330 2.245283 0
M  V30 20 N -3.169506 -0.384682 0.969692 0
M  V30 21 C -2.253481 -0.824079 0.090166 0
M  V30 22 N -2.608754 -1.091149 -1.272335 0
M  V30 23 C -1.700126 -1.419515 -2.343680 0 CFG=1
M  V30 24 C -0.556080 -0.477134 -2.505532 0
M  V30 25 C -1.260394 -2.809713 -2.432114 0
M  V30 26 C -0.932966 -3.278077 -3.721946 0
M  V30 27 C -0.514095 -4.582068 -3.975898 0
M  V30 28 C -0.413425 -5.457278 -2.924579 0
M  V30 29 C -0.717648 -5.068904 -1.639160 0
M  V30 30 C -1.124850 -3.769289 -1.455791 0
M  V30 31 N -1.036165 -0.948439 0.618741 0
M  V30 32 H -1.065213 -4.380703 4.349972 0
M  V30 33 H -0.047936 -4.827667 5.730152 0
M  V30 34 H -0.448289 -3.076295 5.476786 0
M  V30 35 H 1.900343 -3.322548 2.565463 0
M  V30 36 H 0.106928 -3.561191 2.407769 0
M  V30 37 H -0.192733 -1.626941 4.122127 0
M  V30 38 H 1.556548 -1.437369 4.077873 0
M  V30 39 H 2.447206 -0.179232 -0.752687 0
M  V30 40 H 2.298274 1.855259 -2.253983 0
M  V30 41 H 1.157380 2.277935 2.465669 0
M  V30 42 H 1.844153 5.262053 1.202101 0
M  V30 43 H 0.129979 4.753436 1.686976 0
M  V30 44 H -0.473357 4.696266 -0.661519 0
M  V30 45 H 0.591819 6.218962 -0.568933 0
M  V30 46 H -1.500439 0.006429 3.762022 0
M  V30 47 H -3.742009 0.264134 2.900151 0
M  V30 48 H -3.651297 -1.033485 -1.475757 0
M  V30 49 H -2.312691 -1.268470 -3.329429 0
M  V30 50 H -0.782907 0.524841 -2.069223 0
M  V30 51 H 0.350618 -0.940413 -2.089186 0
M  V30 52 H -0.330241 -0.342900 -3.598629 0
M  V30 53 H -1.000089 -2.606355 -4.570780 0
M  V30 54 H -0.259571 -4.958705 -4.955878 0
M  V30 55 H -0.091762 -6.503354 -3.039743 0
M  V30 56 H -0.658262 -5.720962 -0.777206 0
M  V30 57 H -1.369797 -3.454051 -0.465757 0
M  V30 END ATOM
M  V30 BEGIN BOND
M  V30 1 1 1 2
M  V30 2 1 2 3
M  V30 3 1 3 4
M  V30 4 1 4 5
M  V30 5 1 5 6
M  V30 6 2 6 7
M  V30 7 1 6 8
M  V30 8 2 8 9
M  V30 9 1 9 10
M  V30 10 2 10 11
M  V30 11 1 11 12
M  V30 12 2 12 13
M  V30 13 1 12 14
M  V30 14 1 14 15
M  V30 15 1 15 16
M  V30 16 1 5 17
M  V30 17 2 17 18
M  V30 18 1 18 19
M  V30 19 2 19 20
M  V30 20 1 20 21
M  V30 21 1 21 22
M  V30 22 1 22 23
M  V30 23 1 23 24
M  V30 24 1 23 25
M  V30 25 2 25 26
M  V30 26 1 26 27
M  V30 27 2 27 28
M  V30 28 1 28 29
M  V30 29 2 29 30
M  V30 30 2 21 31
M  V30 31 1 13 8
M  V30 32 1 31 17
M  V30 33 1 16 11
M  V30 34 1 30 25
M  V30 35 1 1 32
M  V30 36 1 1 33
M  V30 37 1 1 34
M  V30 38 1 3 35
M  V30 39 1 3 36
M  V30 40 1 4 37
M  V30 41 1 4 38
M  V30 42 1 9 39
M  V30 43 1 10 40
M  V30 44 1 13 41
M  V30 45 1 14 42
M  V30 46 1 14 43
M  V30 47 1 15 44
M  V30 48 1 15 45
M  V30 49 1 18 46
M  V30 50 1 19 47
M  V30 51 1 22 48
M  V30 52 1 23 49 CFG=3
M  V30 53 1 24 50
M  V30 54 1 24 51
M  V30 55 1 24 52
M  V30 56 1 26 53
M  V30 57 1 27 54
M  V30 58 1 28 55
M  V30 59 1 29 56
M  V30 60 1 30 57
M  V30 END BOND
M  V30 END CTAB
M  END
>  <Dataset>  (618) 
ChEMBL_Kinases

>  <Ligand_Instance>  (618) 
nan

>  <PDB_ID>  (618) 
nan

>  <Standardized_SMILES>  (618) 
COCCN(C(=O)c1ccc2c(c1)CCO2)c1ccnc(N[C@@H](C)c2ccccc2)n1

>  <Name>  (618) 
nan

>  <Pocket>  (618) 
nan

>  <ATP_Site>  (618) 
nan

>  <Peripheral>  (618) 
nan

>  <Num_H_Atoms_ProtBoundConf>  (618) 
nan

>  <Num_Resolved_Atoms>  (618) 
nan

>  <Num_Not_Resolved_Atoms>  (618) 
nan

$$$$
CHEMBL1090588
     RDKit          3D

  0  0  0  0  0  0  0  0  0  0999 V3000
M  V30 BEGIN CTAB
M  V30 COUNTS 64 68 0 0 0
M  V30 BEGIN ATOM
M  V30 1 C 0.177862 1.355493 5.491039 0
M  V30 2 C -0.417697 -0.001602 5.167549 0 CFG=2
M  V30 3 N 0.638561 -0.927821 4.764224 0
M  V30 4 C 1.292758 -0.442113 3.595089 0
M  V30 5 N 2.305560 0.419989 3.775533 0
M  V30 6 C 2.921897 0.869159 2.652242 0
M  V30 7 C 2.483922 0.426385 1.425104 0
M  V30 8 C 1.446262 -0.456583 1.239733 0
M  V30 9 N 1.095472 -0.819952 -0.084389 0
M  V30 10 C 1.656412 -0.247771 -1.285828 0
M  V30 11 C 0.876829 0.960675 -1.758811 0
M  V30 12 C 0.817106 2.087346 -0.785226 0
M  V30 13 C 0.013067 3.208561 -1.437850 0
M  V30 14 O 0.567372 3.598963 -2.638768 0
M  V30 15 C 1.717392 2.925725 -2.967264 0
M  V30 16 C 1.421938 1.448875 -3.077454 0
M  V30 17 C 0.097801 -1.828106 -0.124560 0
M  V30 18 O -0.283239 -2.112065 1.050876 0
M  V30 19 C -0.623857 -2.640825 -1.080741 0
M  V30 20 C -1.480328 -2.275649 -2.094650 0
M  V30 21 C -2.102024 -3.157858 -2.948530 0
M  V30 22 C -1.807540 -4.494381 -2.724453 0
M  V30 23 C -0.969184 -4.974338 -1.743612 0
M  V30 24 C -0.392050 -4.013504 -0.936766 0
M  V30 25 C -0.946044 -6.456011 -1.851474 0
M  V30 26 C -1.282182 -6.612000 -3.333621 0
M  V30 27 O -2.295385 -5.594288 -3.437462 0
M  V30 28 N 0.883688 -0.860054 2.385254 0
M  V30 29 C -1.480551 0.099919 4.155405 0
M  V30 30 C -1.996411 -1.040423 3.586109 0
M  V30 31 C -2.985912 -0.900586 2.639220 0
M  V30 32 C -3.509409 0.315207 2.209583 0
M  V30 33 C -2.965377 1.455430 2.806882 0
M  V30 34 C -1.975071 1.322299 3.754674 0
M  V30 35 H -0.551222 2.008043 6.002235 0
M  V30 36 H 0.550459 1.854129 4.549163 0
M  V30 37 H 1.050141 1.231771 6.160557 0
M  V30 38 H -0.856823 -0.385828 6.102012 0
M  V30 39 H 1.005519 -1.848316 5.142671 0
M  V30 40 H 3.737209 1.562554 2.767641 0
M  V30 41 H 3.022670 0.814245 0.587798 0
M  V30 42 H 2.713217 0.011991 -1.226920 0
M  V30 43 H 1.597037 -1.012978 -2.122939 0
M  V30 44 H -0.177691 0.583211 -1.877252 0
M  V30 45 H 0.270197 1.835073 0.142753 0
M  V30 46 H 1.787841 2.491302 -0.486505 0
M  V30 47 H -1.021321 2.795272 -1.544087 0
M  V30 48 H -0.021550 4.059010 -0.732964 0
M  V30 49 H 2.501753 3.170772 -2.226428 0
M  V30 50 H 2.022766 3.325236 -3.983596 0
M  V30 51 H 2.337678 0.886152 -3.384474 0
M  V30 52 H 0.608913 1.339199 -3.832810 0
M  V30 53 H -1.649237 -1.229470 -2.188232 0
M  V30 54 H -2.751762 -2.775385 -3.707990 0
M  V30 55 H 0.274009 -4.424130 -0.159913 0
M  V30 56 H 0.014384 -6.905871 -1.590644 0
M  V30 57 H -1.826999 -6.907857 -1.322518 0
M  V30 58 H -0.372441 -6.298609 -3.893311 0
M  V30 59 H -1.648580 -7.608136 -3.579681 0
M  V30 60 H -1.684854 -2.029322 3.825201 0
M  V30 61 H -3.435424 -1.773174 2.148861 0
M  V30 62 H -4.288392 0.363763 1.460118 0
M  V30 63 H -3.356793 2.426624 2.488868 0
M  V30 64 H -1.541872 2.217251 4.229040 0
M  V30 END ATOM
M  V30 BEGIN BOND
M  V30 1 1 1 2
M  V30 2 1 2 3
M  V30 3 1 3 4
M  V30 4 2 4 5
M  V30 5 1 5 6
M  V30 6 2 6 7
M  V30 7 1 7 8
M  V30 8 1 8 9
M  V30 9 1 9 10
M  V30 10 1 10 11
M  V30 11 1 11 12
M  V30 12 1 12 13
M  V30 13 1 13 14
M  V30 14 1 14 15
M  V30 15 1 15 16
M  V30 16 1 9 17
M  V30 17 2 17 18
M  V30 18 1 17 19
M  V30 19 2 19 20
M  V30 20 1 20 21
M  V30 21 2 21 22
M  V30 22 1 22 23
M  V30 23 2 23 24
M  V30 24 1 23 25
M  V30 25 1 25 26
M  V30 26 1 26 27
M  V30 27 2 8 28
M  V30 28 1 2 29
M  V30 29 2 29 30
M  V30 30 1 30 31
M  V30 31 2 31 32
M  V30 32 1 32 33
M  V30 33 2 33 34
M  V30 34 1 28 4
M  V30 35 1 34 29
M  V30 36 1 16 11
M  V30 37 1 24 19
M  V30 38 1 27 22
M  V30 39 1 1 35
M  V30 40 1 1 36
M  V30 41 1 1 37
M  V30 42 1 2 38 CFG=1
M  V30 43 1 3 39
M  V30 44 1 6 40
M  V30 45 1 7 41
M  V30 46 1 10 42
M  V30 47 1 10 43
M  V30 48 1 11 44
M  V30 49 1 12 45
M  V30 50 1 12 46
M  V30 51 1 13 47
M  V30 52 1 13 48
M  V30 53 1 15 49
M  V30 54 1 15 50
M  V30 55 1 16 51
M  V30 56 1 16 52
M  V30 57 1 20 53
M  V30 58 1 21 54
M  V30 59 1 24 55
M  V30 60 1 25 56
M  V30 61 1 25 57
M  V30 62 1 26 58
M  V30 63 1 26 59
M  V30 64 1 30 60
M  V30 65 1 31 61
M  V30 66 1 32 62
M  V30 67 1 33 63
M  V30 68 1 34 64
M  V30 END BOND
M  V30 END CTAB
M  END
>  <Dataset>  (619) 
ChEMBL_Kinases

>  <Ligand_Instance>  (619) 
nan

>  <PDB_ID>  (619) 
nan

>  <Standardized_SMILES>  (619) 
C[C@H](Nc1nccc(N(CC2CCOCC2)C(=O)c2ccc3c(c2)CCO3)n1)c1ccccc1

>  <Name>  (619) 
nan

>  <Pocket>  (619) 
nan

>  <ATP_Site>  (619) 
nan

>  <Peripheral>  (619) 
nan

>  <Num_H_Atoms_ProtBoundConf>  (619) 
nan

>  <Num_Resolved_Atoms>  (619) 
nan

>  <Num_Not_Resolved_Atoms>  (619) 
nan

$$$$
CHEMBL1090891
     RDKit          3D

  0  0  0  0  0  0  0  0  0  0999 V3000
M  V30 BEGIN CTAB
M  V30 COUNTS 51 53 0 0 0
M  V30 BEGIN ATOM
M  V30 1 C 0.744626 0.881467 -1.079863 0
M  V30 2 C 1.713953 0.093412 -0.265052 0
M  V30 3 N 1.706075 0.409506 1.150862 0
M  V30 4 C 2.607893 1.437385 1.529599 0
M  V30 5 O 2.912579 1.994726 2.617729 0
M  V30 6 C 3.484477 2.162269 0.622329 0
M  V30 7 C 4.853016 1.924400 0.477920 0
M  V30 8 C 5.582195 2.689020 -0.431614 0
M  V30 9 C 4.958545 3.671889 -1.181549 0
M  V30 10 F 5.664017 4.415558 -2.057390 0
M  V30 11 C 3.611667 3.910934 -1.044469 0
M  V30 12 C 2.858157 4.951982 -1.814236 0
M  V30 13 C 2.870269 3.148008 -0.132718 0
M  V30 14 C 0.853352 -0.284846 2.041961 0
M  V30 15 C 0.854963 -0.057956 3.397209 0
M  V30 16 C -0.046874 -0.803990 4.156340 0
M  V30 17 N -0.853017 -1.682936 3.552629 0
M  V30 18 C -0.870057 -1.918209 2.233393 0
M  V30 19 N -1.722538 -2.843363 1.570935 0
M  V30 20 C -2.712123 -3.670417 2.226697 0 CFG=1
M  V30 21 C -3.713415 -2.762639 2.906640 0
M  V30 22 C -3.433419 -4.429679 1.151938 0
M  V30 23 C -4.814735 -4.580010 1.130102 0
M  V30 24 C -5.494269 -5.267699 0.149037 0
M  V30 25 C -4.756017 -5.843899 -0.877536 0
M  V30 26 C -3.383739 -5.711966 -0.883642 0
M  V30 27 C -2.731550 -5.017404 0.112807 0
M  V30 28 N 0.009894 -1.182592 1.544667 0
M  V30 29 H 0.127490 1.582327 -0.481427 0
M  V30 30 H 0.077464 0.179733 -1.651823 0
M  V30 31 H 1.234756 1.506521 -1.872119 0
M  V30 32 H 1.480305 -1.006416 -0.340964 0
M  V30 33 H 2.725077 0.201828 -0.715490 0
M  V30 34 H 5.267840 1.149777 1.095344 0
M  V30 35 H 6.629336 2.477198 -0.512110 0
M  V30 36 H 3.573276 5.522858 -2.438405 0
M  V30 37 H 2.353560 5.672672 -1.144715 0
M  V30 38 H 2.146379 4.463662 -2.533105 0
M  V30 39 H 1.808051 3.356227 -0.037537 0
M  V30 40 H 1.502858 0.647809 3.860239 0
M  V30 41 H -0.077721 -0.659674 5.228768 0
M  V30 42 H -1.593493 -2.910066 0.516811 0
M  V30 43 H -2.224699 -4.355330 2.952716 0
M  V30 44 H -4.198604 -2.136266 2.147244 0
M  V30 45 H -4.445832 -3.362841 3.513646 0
M  V30 46 H -3.159261 -2.073592 3.569825 0
M  V30 47 H -5.412500 -4.144354 1.912113 0
M  V30 48 H -6.566840 -5.358090 0.168375 0
M  V30 49 H -5.260140 -6.384808 -1.657193 0
M  V30 50 H -2.821790 -6.178188 -1.712026 0
M  V30 51 H -1.671737 -4.950646 0.051765 0
M  V30 END ATOM
M  V30 BEGIN BOND
M  V30 1 1 1 2
M  V30 2 1 2 3
M  V30 3 1 3 4
M  V30 4 2 4 5
M  V30 5 1 4 6
M  V30 6 2 6 7
M  V30 7 1 7 8
M  V30 8 2 8 9
M  V30 9 1 9 10
M  V30 10 1 9 11
M  V30 11 1 11 12
M  V30 12 2 11 13
M  V30 13 1 3 14
M  V30 14 2 14 15
M  V30 15 1 15 16
M  V30 16 2 16 17
M  V30 17 1 17 18
M  V30 18 1 18 19
M  V30 19 1 19 20
M  V30 20 1 20 21
M  V30 21 1 20 22
M  V30 22 2 22 23
M  V30 23 1 23 24
M  V30 24 2 24 25
M  V30 25 1 25 26
M  V30 26 2 26 27
M  V30 27 2 18 28
M  V30 28 1 13 6
M  V30 29 1 28 14
M  V30 30 1 27 22
M  V30 31 1 1 29
M  V30 32 1 1 30
M  V30 33 1 1 31
M  V30 34 1 2 32
M  V30 35 1 2 33
M  V30 36 1 7 34
M  V30 37 1 8 35
M  V30 38 1 12 36
M  V30 39 1 12 37
M  V30 40 1 12 38
M  V30 41 1 13 39
M  V30 42 1 15 40
M  V30 43 1 16 41
M  V30 44 1 19 42
M  V30 45 1 20 43 CFG=1
M  V30 46 1 21 44
M  V30 47 1 21 45
M  V30 48 1 21 46
M  V30 49 1 23 47
M  V30 50 1 24 48
M  V30 51 1 25 49
M  V30 52 1 26 50
M  V30 53 1 27 51
M  V30 END BOND
M  V30 END CTAB
M  END
>  <Dataset>  (620) 
ChEMBL_Kinases

>  <Ligand_Instance>  (620) 
nan

>  <PDB_ID>  (620) 
nan

>  <Standardized_SMILES>  (620) 
CCN(C(=O)c1ccc(F)c(C)c1)c1ccnc(N[C@@H](C)c2ccccc2)n1

>  <Name>  (620) 
nan

>  <Pocket>  (620) 
nan

>  <ATP_Site>  (620) 
nan

>  <Peripheral>  (620) 
nan

>  <Num_H_Atoms_ProtBoundConf>  (620) 
nan

>  <Num_Resolved_Atoms>  (620) 
nan

>  <Num_Not_Resolved_Atoms>  (620) 
nan

$$$$
CHEMBL1090892
     RDKit          3D

  0  0  0  0  0  0  0  0  0  0999 V3000
M  V30 BEGIN CTAB
M  V30 COUNTS 51 53 0 0 0
M  V30 BEGIN ATOM
M  V30 1 C -0.546574 2.611225 4.575388 0
M  V30 2 C -1.144578 2.189688 3.255940 0
M  V30 3 N -0.165540 1.590446 2.370576 0
M  V30 4 C 0.484752 2.560837 1.523183 0
M  V30 5 O 0.474145 3.787653 1.301568 0
M  V30 6 C 1.511847 2.115318 0.559569 0
M  V30 7 C 2.823865 2.076556 0.970977 0
M  V30 8 C 3.850829 1.671014 0.131092 0
M  V30 9 C 5.285931 1.598102 0.486583 0
M  V30 10 C 3.519320 1.299398 -1.153996 0
M  V30 11 C 2.216795 1.325365 -1.601185 0
M  V30 12 C 1.210939 1.732889 -0.746612 0
M  V30 13 F -0.099662 1.803202 -1.059746 0
M  V30 14 C 0.051979 0.185459 2.414910 0
M  V30 15 C 1.028126 -0.226261 3.302516 0
M  V30 16 C 1.282381 -1.578628 3.388189 0
M  V30 17 N 0.585395 -2.435045 2.619975 0
M  V30 18 C -0.374216 -2.037939 1.746513 0
M  V30 19 N -1.087258 -2.979163 0.952989 0
M  V30 20 C -2.104301 -2.489842 0.035193 0 CFG=1
M  V30 21 C -1.442816 -1.537179 -0.968910 0
M  V30 22 C -2.604715 -3.624320 -0.802940 0
M  V30 23 C -3.908128 -3.944463 -1.123348 0
M  V30 24 C -4.142163 -5.047660 -1.920132 0
M  V30 25 C -3.109984 -5.829325 -2.398208 0
M  V30 26 C -1.788072 -5.505748 -2.074036 0
M  V30 27 C -1.555289 -4.403273 -1.277855 0
M  V30 28 N -0.611570 -0.719258 1.673105 0
M  V30 29 H 0.345078 3.204959 4.365741 0
M  V30 30 H -0.386452 1.792591 5.286508 0
M  V30 31 H -1.313828 3.297320 5.036790 0
M  V30 32 H -1.941638 1.426733 3.383705 0
M  V30 33 H -1.641901 3.070568 2.812373 0
M  V30 34 H 3.166259 2.353054 1.965932 0
M  V30 35 H 5.793534 2.529649 0.204977 0
M  V30 36 H 5.760146 0.740274 -0.042489 0
M  V30 37 H 5.379852 1.392559 1.586650 0
M  V30 38 H 4.222049 0.958389 -1.925363 0
M  V30 39 H 1.919367 1.041304 -2.601329 0
M  V30 40 H 1.598606 0.444099 3.927716 0
M  V30 41 H 2.029665 -1.966564 4.059193 0
M  V30 42 H -0.852177 -3.989009 1.060347 0
M  V30 43 H -2.896860 -1.942321 0.551237 0
M  V30 44 H -1.407772 -0.507435 -0.570068 0
M  V30 45 H -2.053707 -1.550746 -1.893090 0
M  V30 46 H -0.458823 -1.967239 -1.215183 0
M  V30 47 H -4.632806 -3.269724 -0.698666 0
M  V30 48 H -5.189045 -5.257892 -2.144322 0
M  V30 49 H -3.311454 -6.689288 -3.020690 0
M  V30 50 H -1.027817 -6.162598 -2.483507 0
M  V30 51 H -0.494010 -4.264440 -1.103099 0
M  V30 END ATOM
M  V30 BEGIN BOND
M  V30 1 1 1 2
M  V30 2 1 2 3
M  V30 3 1 3 4
M  V30 4 2 4 5
M  V30 5 1 4 6
M  V30 6 2 6 7
M  V30 7 1 7 8
M  V30 8 1 8 9
M  V30 9 2 8 10
M  V30 10 1 10 11
M  V30 11 2 11 12
M  V30 12 1 12 13
M  V30 13 1 3 14
M  V30 14 2 14 15
M  V30 15 1 15 16
M  V30 16 2 16 17
M  V30 17 1 17 18
M  V30 18 1 18 19
M  V30 19 1 19 20
M  V30 20 1 20 21
M  V30 21 1 20 22
M  V30 22 2 22 23
M  V30 23 1 23 24
M  V30 24 2 24 25
M  V30 25 1 25 26
M  V30 26 2 26 27
M  V30 27 2 18 28
M  V30 28 1 12 6
M  V30 29 1 28 14
M  V30 30 1 27 22
M  V30 31 1 1 29
M  V30 32 1 1 30
M  V30 33 1 1 31
M  V30 34 1 2 32
M  V30 35 1 2 33
M  V30 36 1 7 34
M  V30 37 1 9 35
M  V30 38 1 9 36
M  V30 39 1 9 37
M  V30 40 1 10 38
M  V30 41 1 11 39
M  V30 42 1 15 40
M  V30 43 1 16 41
M  V30 44 1 19 42
M  V30 45 1 20 43 CFG=1
M  V30 46 1 21 44
M  V30 47 1 21 45
M  V30 48 1 21 46
M  V30 49 1 23 47
M  V30 50 1 24 48
M  V30 51 1 25 49
M  V30 52 1 26 50
M  V30 53 1 27 51
M  V30 END BOND
M  V30 END CTAB
M  END
>  <Dataset>  (621) 
ChEMBL_Kinases

>  <Ligand_Instance>  (621) 
nan

>  <PDB_ID>  (621) 
nan

>  <Standardized_SMILES>  (621) 
CCN(C(=O)c1cc(C)ccc1F)c1ccnc(N[C@@H](C)c2ccccc2)n1

>  <Name>  (621) 
nan

>  <Pocket>  (621) 
nan

>  <ATP_Site>  (621) 
nan

>  <Peripheral>  (621) 
nan

>  <Num_H_Atoms_ProtBoundConf>  (621) 
nan

>  <Num_Resolved_Atoms>  (621) 
nan

>  <Num_Not_Resolved_Atoms>  (621) 
nan

$$$$
CHEMBL1091041
     RDKit          3D

  0  0  0  0  0  0  0  0  0  0999 V3000
M  V30 BEGIN CTAB
M  V30 COUNTS 29 31 0 0 0
M  V30 BEGIN ATOM
M  V30 1 O -1.327536 0.410963 4.757872 0
M  V30 2 C -0.576207 0.375124 3.751216 0
M  V30 3 O 0.618259 0.948011 3.265853 0
M  V30 4 C 0.883073 0.427999 2.013286 0
M  V30 5 C 1.989885 0.704482 1.107860 0
M  V30 6 C 2.983458 1.604613 1.483005 0
M  V30 7 C 4.045294 1.891954 0.642124 0
M  V30 8 C 4.100288 1.266318 -0.583346 0
M  V30 9 C 3.147058 0.371473 -1.005050 0
M  V30 10 Br 3.142696 -0.543225 -2.691148 0
M  V30 11 C 2.090122 0.094581 -0.147195 0
M  V30 12 N -0.035385 -0.413074 1.679832 0
M  V30 13 C -1.028585 -0.541819 2.698586 0
M  V30 14 C -2.059315 -1.395703 2.505617 0
M  V30 15 C -2.149842 -2.164925 1.244330 0
M  V30 16 C -1.880208 -1.499105 0.062340 0
M  V30 17 C -1.933030 -2.188724 -1.130310 0
M  V30 18 C -2.253396 -3.528470 -1.135577 0
M  V30 19 N -2.519596 -4.184046 0.028007 0
M  V30 20 C -2.472130 -3.518823 1.220713 0
M  V30 21 H 2.978376 2.130752 2.449667 0
M  V30 22 H 4.833483 2.581143 0.900649 0
M  V30 23 H 4.883041 1.407509 -1.326239 0
M  V30 24 H 1.322698 -0.598505 -0.435177 0
M  V30 25 H -2.724603 -1.385655 3.387069 0
M  V30 26 H -1.628076 -0.476145 -0.048549 0
M  V30 27 H -1.734836 -1.736306 -2.098592 0
M  V30 28 H -2.293141 -4.070630 -2.080730 0
M  V30 29 H -2.678948 -4.022165 2.132583 0
M  V30 END ATOM
M  V30 BEGIN BOND
M  V30 1 2 1 2
M  V30 2 1 2 3
M  V30 3 1 3 4
M  V30 4 1 4 5
M  V30 5 2 5 6
M  V30 6 1 6 7
M  V30 7 2 7 8
M  V30 8 1 8 9
M  V30 9 1 9 10
M  V30 10 2 9 11
M  V30 11 2 4 12
M  V30 12 1 12 13
M  V30 13 2 13 14
M  V30 14 1 14 15
M  V30 15 2 15 16
M  V30 16 1 16 17
M  V30 17 2 17 18
M  V30 18 1 18 19
M  V30 19 2 19 20
M  V30 20 1 13 2
M  V30 21 1 20 15
M  V30 22 1 11 5
M  V30 23 1 6 21
M  V30 24 1 7 22
M  V30 25 1 8 23
M  V30 26 1 11 24
M  V30 27 1 14 25
M  V30 28 1 16 26
M  V30 29 1 17 27
M  V30 30 1 18 28
M  V30 31 1 20 29
M  V30 END BOND
M  V30 END CTAB
M  END
>  <Dataset>  (622) 
ChEMBL_Kinases

>  <Ligand_Instance>  (622) 
nan

>  <PDB_ID>  (622) 
nan

>  <Standardized_SMILES>  (622) 
O=C1OC(c2cccc(Br)c2)=N/C1=C\c1cccnc1

>  <Name>  (622) 
nan

>  <Pocket>  (622) 
nan

>  <ATP_Site>  (622) 
nan

>  <Peripheral>  (622) 
nan

>  <Num_H_Atoms_ProtBoundConf>  (622) 
nan

>  <Num_Resolved_Atoms>  (622) 
nan

>  <Num_Not_Resolved_Atoms>  (622) 
nan

$$$$
CHEMBL1091042
     RDKit          3D

  0  0  0  0  0  0  0  0  0  0999 V3000
M  V30 BEGIN CTAB
M  V30 COUNTS 33 35 0 0 0
M  V30 BEGIN ATOM
M  V30 1 C -2.305764 -5.910684 2.845368 0
M  V30 2 O -2.532760 -4.518880 2.840311 0
M  V30 3 C -1.658369 -3.736894 2.079881 0
M  V30 4 C -0.638398 -4.334048 1.387041 0
M  V30 5 C 0.182698 -3.483463 0.657207 0
M  V30 6 C -0.049814 -2.099292 0.654077 0
M  V30 7 C 0.849864 -1.243374 -0.127398 0
M  V30 8 N 0.786419 0.027852 -0.139647 0
M  V30 9 C 1.786928 0.571363 -0.983831 0
M  V30 10 C 2.146035 1.798575 -1.324137 0
M  V30 11 C 1.380391 2.905656 -0.737477 0
M  V30 12 C 0.003544 2.835924 -0.801718 0
M  V30 13 C -0.793848 3.814136 -0.269650 0
M  V30 14 C -0.120896 4.858331 0.324985 0
M  V30 15 N 1.231952 4.953524 0.402751 0
M  V30 16 C 2.015424 3.971961 -0.130506 0
M  V30 17 C 2.503754 -0.584012 -1.513803 0
M  V30 18 O 3.469099 -0.750982 -2.295401 0
M  V30 19 O 1.893386 -1.699637 -0.959894 0
M  V30 20 C -1.088116 -1.582990 1.371592 0
M  V30 21 Br -1.359772 0.289979 1.347839 0
M  V30 22 C -1.945607 -2.392968 2.123051 0
M  V30 23 H -1.235710 -6.060927 3.158448 0
M  V30 24 H -2.997941 -6.456434 3.504494 0
M  V30 25 H -2.381483 -6.274450 1.806614 0
M  V30 26 H -0.480807 -5.410142 1.400806 0
M  V30 27 H 1.014242 -3.882417 0.082496 0
M  V30 28 H 2.957921 1.993724 -2.004999 0
M  V30 29 H -0.472450 1.992056 -1.283007 0
M  V30 30 H -1.859808 3.728950 -0.335046 0
M  V30 31 H -0.696343 5.657875 0.763134 0
M  V30 32 H 3.102702 4.013919 -0.092118 0
M  V30 33 H -2.765495 -1.974300 2.683644 0
M  V30 END ATOM
M  V30 BEGIN BOND
M  V30 1 1 1 2
M  V30 2 1 2 3
M  V30 3 2 3 4
M  V30 4 1 4 5
M  V30 5 2 5 6
M  V30 6 1 6 7
M  V30 7 2 7 8
M  V30 8 1 8 9
M  V30 9 2 9 10
M  V30 10 1 10 11
M  V30 11 2 11 12
M  V30 12 1 12 13
M  V30 13 2 13 14
M  V30 14 1 14 15
M  V30 15 2 15 16
M  V30 16 1 9 17
M  V30 17 2 17 18
M  V30 18 1 17 19
M  V30 19 1 6 20
M  V30 20 1 20 21
M  V30 21 2 20 22
M  V30 22 1 22 3
M  V30 23 1 19 7
M  V30 24 1 16 11
M  V30 25 1 1 23
M  V30 26 1 1 24
M  V30 27 1 1 25
M  V30 28 1 4 26
M  V30 29 1 5 27
M  V30 30 1 10 28
M  V30 31 1 12 29
M  V30 32 1 13 30
M  V30 33 1 14 31
M  V30 34 1 16 32
M  V30 35 1 22 33
M  V30 END BOND
M  V30 END CTAB
M  END
>  <Dataset>  (623) 
ChEMBL_Kinases

>  <Ligand_Instance>  (623) 
nan

>  <PDB_ID>  (623) 
nan

>  <Standardized_SMILES>  (623) 
COc1ccc(C2=N/C(=C\c3cccnc3)C(=O)O2)c(Br)c1

>  <Name>  (623) 
nan

>  <Pocket>  (623) 
nan

>  <ATP_Site>  (623) 
nan

>  <Peripheral>  (623) 
nan

>  <Num_H_Atoms_ProtBoundConf>  (623) 
nan

>  <Num_Resolved_Atoms>  (623) 
nan

>  <Num_Not_Resolved_Atoms>  (623) 
nan

$$$$
CHEMBL1091081
     RDKit          3D

  0  0  0  0  0  0  0  0  0  0999 V3000
M  V30 BEGIN CTAB
M  V30 COUNTS 40 42 0 0 0
M  V30 BEGIN ATOM
M  V30 1 C -1.568378 -6.279150 -0.687860 0
M  V30 2 C -1.906672 -4.824443 -0.960237 0
M  V30 3 C -0.619107 -4.109979 -1.174726 0
M  V30 4 C -0.749326 -2.671438 -1.455479 0
M  V30 5 O -1.741332 -1.894127 -1.555956 0
M  V30 6 N 0.508888 -2.024249 -1.654992 0
M  V30 7 C 0.605214 -0.632056 -1.939099 0
M  V30 8 N 0.591218 -0.158086 -3.204710 0
M  V30 9 N 0.694561 1.168322 -3.186547 0
M  V30 10 C 0.776326 1.559624 -1.900225 0
M  V30 11 C 0.896584 2.804591 -1.302014 0
M  V30 12 C 0.956713 2.868319 0.076955 0
M  V30 13 Cl 1.106677 4.441051 0.782927 0
M  V30 14 C 0.903347 1.757717 0.890239 0
M  V30 15 C 0.966580 1.821337 2.347072 0
M  V30 16 C 1.777968 0.942859 3.061400 0
M  V30 17 C 1.849374 0.989697 4.441299 0
M  V30 18 C 1.107465 1.922997 5.167762 0
M  V30 19 N 1.187323 1.963785 6.588333 0 CHG=1 VAL=4
M  V30 20 O 0.497347 2.823176 7.173503 0
M  V30 21 O 1.978256 1.111737 7.329931 0 CHG=-1 VAL=1
M  V30 22 C 0.308642 2.785810 4.442641 0
M  V30 23 C 0.232083 2.745049 3.063488 0
M  V30 24 C 0.781970 0.491906 0.304358 0
M  V30 25 C 0.722649 0.440418 -1.078151 0
M  V30 26 H -0.741249 -6.405404 0.010961 0
M  V30 27 H -1.344991 -6.708988 -1.708063 0
M  V30 28 H -2.467081 -6.799093 -0.298231 0
M  V30 29 H -2.537225 -4.769573 -1.873178 0
M  V30 30 H -2.490731 -4.452250 -0.097133 0
M  V30 31 H 0.041115 -4.239278 -0.305741 0
M  V30 32 H -0.135344 -4.603906 -2.067761 0
M  V30 33 H 1.450956 -2.475385 -1.617018 0
M  V30 34 H 0.714285 1.844447 -4.000473 0
M  V30 35 H 0.940746 3.692548 -1.914791 0
M  V30 36 H 2.362096 0.210884 2.519702 0
M  V30 37 H 2.488856 0.297190 5.002577 0
M  V30 38 H -0.259958 3.505540 5.046630 0
M  V30 39 H -0.414419 3.452595 2.574941 0
M  V30 40 H 0.732052 -0.442637 0.863494 0
M  V30 END ATOM
M  V30 BEGIN BOND
M  V30 1 1 1 2
M  V30 2 1 2 3
M  V30 3 1 3 4
M  V30 4 2 4 5
M  V30 5 1 4 6
M  V30 6 1 6 7
M  V30 7 2 7 8
M  V30 8 1 8 9
M  V30 9 1 9 10
M  V30 10 2 10 11
M  V30 11 1 11 12
M  V30 12 1 12 13
M  V30 13 2 12 14
M  V30 14 1 14 15
M  V30 15 2 15 16
M  V30 16 1 16 17
M  V30 17 2 17 18
M  V30 18 1 18 19
M  V30 19 2 19 20
M  V30 20 1 19 21
M  V30 21 1 18 22
M  V30 22 2 22 23
M  V30 23 1 14 24
M  V30 24 2 24 25
M  V30 25 1 25 7
M  V30 26 1 25 10
M  V30 27 1 23 15
M  V30 28 1 1 26
M  V30 29 1 1 27
M  V30 30 1 1 28
M  V30 31 1 2 29
M  V30 32 1 2 30
M  V30 33 1 3 31
M  V30 34 1 3 32
M  V30 35 1 6 33
M  V30 36 1 9 34
M  V30 37 1 11 35
M  V30 38 1 16 36
M  V30 39 1 17 37
M  V30 40 1 22 38
M  V30 41 1 23 39
M  V30 42 1 24 40
M  V30 END BOND
M  V30 END CTAB
M  END
>  <Dataset>  (624) 
ChEMBL_Kinases

>  <Ligand_Instance>  (624) 
nan

>  <PDB_ID>  (624) 
nan

>  <Standardized_SMILES>  (624) 
CCCC(=O)Nc1n[nH]c2cc(Cl)c(-c3ccc([N+](=O)[O-])cc3)cc12

>  <Name>  (624) 
nan

>  <Pocket>  (624) 
nan

>  <ATP_Site>  (624) 
nan

>  <Peripheral>  (624) 
nan

>  <Num_H_Atoms_ProtBoundConf>  (624) 
nan

>  <Num_Resolved_Atoms>  (624) 
nan

>  <Num_Not_Resolved_Atoms>  (624) 
nan

$$$$
CHEMBL1091082
     RDKit          3D

  0  0  0  0  0  0  0  0  0  0999 V3000
M  V30 BEGIN CTAB
M  V30 COUNTS 38 40 0 0 0
M  V30 BEGIN ATOM
M  V30 1 C 0.612535 -6.447547 -0.276073 0
M  V30 2 C 1.805523 -5.784373 0.380983 0
M  V30 3 C 1.473411 -4.394770 0.874701 0
M  V30 4 C 1.038189 -3.497699 -0.200911 0
M  V30 5 O 0.933605 -3.803468 -1.427735 0
M  V30 6 N 0.708548 -2.167084 0.193857 0
M  V30 7 C 0.278592 -1.240821 -0.794354 0
M  V30 8 N 0.135746 -1.464488 -2.108199 0
M  V30 9 N -0.289111 -0.337427 -2.692215 0
M  V30 10 C -0.433162 0.642098 -1.782462 0
M  V30 11 C -0.818581 1.965514 -1.754220 0
M  V30 12 C -0.855253 2.713921 -0.597237 0
M  V30 13 Cl -1.345073 4.387974 -0.576023 0
M  V30 14 C -0.497801 2.152286 0.611061 0
M  V30 15 C -0.490698 2.826142 1.905570 0
M  V30 16 C 0.643305 2.582073 2.657580 0
M  V30 17 C 0.834880 3.135907 3.921126 0
M  V30 18 C -0.171978 3.950193 4.394738 0
M  V30 19 F 0.008446 4.495428 5.629927 0
M  V30 20 C -1.316770 4.216846 3.674271 0
M  V30 21 C -1.494878 3.655270 2.410403 0
M  V30 22 C -0.109019 0.811618 0.571981 0
M  V30 23 C -0.077957 0.076872 -0.594958 0
M  V30 24 H 0.610097 -7.545900 -0.031160 0
M  V30 25 H -0.314249 -6.033567 0.150524 0
M  V30 26 H 0.697521 -6.294904 -1.370174 0
M  V30 27 H 2.665030 -5.759421 -0.311262 0
M  V30 28 H 2.074682 -6.409878 1.256487 0
M  V30 29 H 2.369171 -3.975167 1.340219 0
M  V30 30 H 0.704993 -4.508501 1.681542 0
M  V30 31 H 0.773871 -1.851540 1.191448 0
M  V30 32 H -0.487359 -0.213573 -3.710183 0
M  V30 33 H -1.103279 2.417443 -2.708049 0
M  V30 34 H 1.461425 1.946781 2.323070 0
M  V30 35 H 1.716989 2.955858 4.524848 0
M  V30 36 H -2.106533 4.854403 4.043619 0
M  V30 37 H -2.343408 3.796167 1.767986 0
M  V30 38 H 0.183268 0.326204 1.511454 0
M  V30 END ATOM
M  V30 BEGIN BOND
M  V30 1 1 1 2
M  V30 2 1 2 3
M  V30 3 1 3 4
M  V30 4 2 4 5
M  V30 5 1 4 6
M  V30 6 1 6 7
M  V30 7 2 7 8
M  V30 8 1 8 9
M  V30 9 1 9 10
M  V30 10 2 10 11
M  V30 11 1 11 12
M  V30 12 1 12 13
M  V30 13 2 12 14
M  V30 14 1 14 15
M  V30 15 2 15 16
M  V30 16 1 16 17
M  V30 17 2 17 18
M  V30 18 1 18 19
M  V30 19 1 18 20
M  V30 20 2 20 21
M  V30 21 1 14 22
M  V30 22 2 22 23
M  V30 23 1 23 7
M  V30 24 1 23 10
M  V30 25 1 21 15
M  V30 26 1 1 24
M  V30 27 1 1 25
M  V30 28 1 1 26
M  V30 29 1 2 27
M  V30 30 1 2 28
M  V30 31 1 3 29
M  V30 32 1 3 30
M  V30 33 1 6 31
M  V30 34 1 9 32
M  V30 35 1 11 33
M  V30 36 1 16 34
M  V30 37 1 17 35
M  V30 38 1 20 36
M  V30 39 1 21 37
M  V30 40 1 22 38
M  V30 END BOND
M  V30 END CTAB
M  END
>  <Dataset>  (625) 
ChEMBL_Kinases

>  <Ligand_Instance>  (625) 
nan

>  <PDB_ID>  (625) 
nan

>  <Standardized_SMILES>  (625) 
CCCC(=O)Nc1n[nH]c2cc(Cl)c(-c3ccc(F)cc3)cc12

>  <Name>  (625) 
nan

>  <Pocket>  (625) 
nan

>  <ATP_Site>  (625) 
nan

>  <Peripheral>  (625) 
nan

>  <Num_H_Atoms_ProtBoundConf>  (625) 
nan

>  <Num_Resolved_Atoms>  (625) 
nan

>  <Num_Not_Resolved_Atoms>  (625) 
nan

$$$$
CHEMBL1091288
     RDKit          3D

  0  0  0  0  0  0  0  0  0  0999 V3000
M  V30 BEGIN CTAB
M  V30 COUNTS 55 57 0 0 0
M  V30 BEGIN ATOM
M  V30 1 C -0.996042 -1.848225 4.102543 0
M  V30 2 C 0.102678 -2.900553 4.014008 0 CFG=1
M  V30 3 C -0.533706 -4.273271 3.990323 0
M  V30 4 O 0.447099 -5.273811 3.925537 0
M  V30 5 N 0.869565 -2.717097 2.809631 0
M  V30 6 C 1.712337 -1.819758 2.116833 0
M  V30 7 N 3.071125 -1.914604 2.033382 0
M  V30 8 C 3.734722 -0.953742 1.320280 0
M  V30 9 C 2.901887 0.045813 0.743147 0
M  V30 10 C 1.470786 0.120260 0.850434 0
M  V30 11 N 1.344685 1.333667 0.056997 0
M  V30 12 C 1.447614 2.509343 0.822294 0
M  V30 13 C 0.345353 3.116531 1.556255 0
M  V30 14 C -0.904493 3.622106 1.018291 0
M  V30 15 C -1.908711 2.779232 0.353451 0
M  V30 16 N -1.570304 2.077420 -0.819814 0
M  V30 17 C 1.127872 0.671749 -1.156548 0
M  V30 18 O 1.912132 1.458917 -1.736963 0
M  V30 19 C 0.422350 -0.378297 -1.803664 0
M  V30 20 C 0.913030 -0.654753 -3.053007 0
M  V30 21 C 0.245831 -1.675502 -3.746901 0
M  V30 22 C -0.824711 -2.334531 -3.185049 0
M  V30 23 C -1.313275 -2.050462 -1.925557 0
M  V30 24 C -0.646999 -1.047649 -1.260163 0
M  V30 25 C -2.448498 -2.942159 -1.629163 0
M  V30 26 C -2.776931 -3.504781 -3.000498 0
M  V30 27 O -1.588136 -3.366319 -3.750717 0
M  V30 28 N 0.953251 -0.876299 1.570045 0
M  V30 29 H -0.571869 -0.877036 4.372168 0
M  V30 30 H -1.757178 -2.219944 4.814013 0
M  V30 31 H -1.493948 -1.847998 3.098133 0
M  V30 32 H 0.798928 -2.797212 4.897740 0
M  V30 33 H -1.195828 -4.386795 3.113093 0
M  V30 34 H -1.080587 -4.419362 4.934064 0
M  V30 35 H 0.798523 -5.341618 3.000957 0
M  V30 36 H 0.890283 -3.476222 2.070563 0
M  V30 37 H 4.779893 -1.176332 1.356260 0
M  V30 38 H 3.714222 0.633988 0.257310 0
M  V30 39 H 2.246077 2.262504 1.625497 0
M  V30 40 H 2.040845 3.298785 0.225627 0
M  V30 41 H 0.105972 2.450193 2.460352 0
M  V30 42 H 0.819096 4.023952 2.120499 0
M  V30 43 H -1.455763 4.103701 1.918125 0
M  V30 44 H -0.757589 4.563546 0.377759 0
M  V30 45 H -2.765467 3.486109 0.061083 0
M  V30 46 H -2.390963 2.144849 1.139041 0
M  V30 47 H -2.380773 1.601497 -1.260950 0
M  V30 48 H -1.093531 2.634609 -1.550236 0
M  V30 49 H 1.736921 -0.166571 -3.520159 0
M  V30 50 H 0.578165 -1.954518 -4.749980 0
M  V30 51 H -1.035242 -0.825874 -0.298358 0
M  V30 52 H -2.167847 -3.831189 -0.998706 0
M  V30 53 H -3.310106 -2.455023 -1.154173 0
M  V30 54 H -2.981829 -4.607851 -2.972952 0
M  V30 55 H -3.635832 -2.964347 -3.444927 0
M  V30 END ATOM
M  V30 BEGIN BOND
M  V30 1 1 1 2
M  V30 2 1 2 3
M  V30 3 1 3 4
M  V30 4 1 2 5
M  V30 5 1 5 6
M  V30 6 2 6 7
M  V30 7 1 7 8
M  V30 8 2 8 9
M  V30 9 1 9 10
M  V30 10 1 10 11
M  V30 11 1 11 12
M  V30 12 1 12 13
M  V30 13 1 13 14
M  V30 14 1 14 15
M  V30 15 1 15 16
M  V30 16 1 11 17
M  V30 17 2 17 18
M  V30 18 1 17 19
M  V30 19 2 19 20
M  V30 20 1 20 21
M  V30 21 2 21 22
M  V30 22 1 22 23
M  V30 23 2 23 24
M  V30 24 1 23 25
M  V30 25 1 25 26
M  V30 26 1 26 27
M  V30 27 2 10 28
M  V30 28 1 28 6
M  V30 29 1 24 19
M  V30 30 1 27 22
M  V30 31 1 1 29
M  V30 32 1 1 30
M  V30 33 1 1 31
M  V30 34 1 2 32 CFG=1
M  V30 35 1 3 33
M  V30 36 1 3 34
M  V30 37 1 4 35
M  V30 38 1 5 36
M  V30 39 1 8 37
M  V30 40 1 9 38
M  V30 41 1 12 39
M  V30 42 1 12 40
M  V30 43 1 13 41
M  V30 44 1 13 42
M  V30 45 1 14 43
M  V30 46 1 14 44
M  V30 47 1 15 45
M  V30 48 1 15 46
M  V30 49 1 16 47
M  V30 50 1 16 48
M  V30 51 1 20 49
M  V30 52 1 21 50
M  V30 53 1 24 51
M  V30 54 1 25 52
M  V30 55 1 25 53
M  V30 56 1 26 54
M  V30 57 1 26 55
M  V30 END BOND
M  V30 END CTAB
M  END
>  <Dataset>  (626) 
ChEMBL_Kinases

>  <Ligand_Instance>  (626) 
nan

>  <PDB_ID>  (626) 
nan

>  <Standardized_SMILES>  (626) 
C[C@@H](CO)Nc1nccc(N(CCCCN)C(=O)c2ccc3c(c2)CCO3)n1

>  <Name>  (626) 
nan

>  <Pocket>  (626) 
nan

>  <ATP_Site>  (626) 
nan

>  <Peripheral>  (626) 
nan

>  <Num_H_Atoms_ProtBoundConf>  (626) 
nan

>  <Num_Resolved_Atoms>  (626) 
nan

>  <Num_Not_Resolved_Atoms>  (626) 
nan

$$$$
CHEMBL1091228
     RDKit          3D

  0  0  0  0  0  0  0  0  0  0999 V3000
M  V30 BEGIN CTAB
M  V30 COUNTS 66 70 0 0 0
M  V30 BEGIN ATOM
M  V30 1 O 0.056119 3.004878 2.551359 0
M  V30 2 C 0.126095 2.159049 1.593360 0
M  V30 3 C 1.519540 1.780957 1.434470 0
M  V30 4 C 2.373510 2.838518 1.101094 0
M  V30 5 C 3.753152 2.730201 0.890726 0
M  V30 6 C 4.280751 1.464341 1.031937 0
M  V30 7 C 3.471208 0.392769 1.360815 0
M  V30 8 C 2.115850 0.545076 1.558923 0
M  V30 9 C 4.338989 -0.810797 1.432167 0
M  V30 10 C 5.468761 -0.386329 0.482218 0
M  V30 11 O 5.598278 0.980974 0.900414 0
M  V30 12 N -1.033510 1.737493 0.877761 0
M  V30 13 C -2.281552 2.329239 1.236827 0
M  V30 14 C -3.061587 1.643959 2.302941 0
M  V30 15 C -4.339024 2.440719 2.519010 0
M  V30 16 C -5.475634 1.952821 1.652072 0
M  V30 17 N -5.062177 1.285244 0.454583 0
M  V30 18 C -4.250893 0.126286 0.707991 0
M  V30 19 C -3.471510 0.238377 1.997246 0
M  V30 20 C -0.746935 0.769777 -0.124733 0
M  V30 21 C -0.428352 1.270540 -1.380125 0
M  V30 22 C -0.159070 0.316578 -2.335370 0
M  V30 23 N -0.184302 -1.012606 -2.136197 0
M  V30 24 C -0.499526 -1.468171 -0.897970 0
M  V30 25 N -0.561111 -2.867834 -0.585583 0
M  V30 26 C -0.295967 -3.905768 -1.528928 0
M  V30 27 C -0.506074 -5.252384 -0.924104 0
M  V30 28 C 0.364094 -5.364147 0.275572 0
M  V30 29 C 1.722759 -4.800385 0.141607 0
M  V30 30 O 1.857523 -3.728025 1.023978 0
M  V30 31 C 2.149862 -4.415931 -1.231161 0
M  V30 32 C 1.087536 -3.871940 -2.119471 0
M  V30 33 N -0.766054 -0.557118 0.048955 0
M  V30 34 H 2.002381 3.859675 0.977710 0
M  V30 35 H 4.358217 3.570470 0.638653 0
M  V30 36 H 1.426267 -0.245639 1.817322 0
M  V30 37 H 3.844037 -1.732295 1.108164 0
M  V30 38 H 4.836564 -0.887791 2.425497 0
M  V30 39 H 6.381573 -0.967348 0.621322 0
M  V30 40 H 5.073899 -0.335951 -0.539286 0
M  V30 41 H -2.955252 2.484153 0.351724 0
M  V30 42 H -2.088760 3.380597 1.592649 0
M  V30 43 H -2.506371 1.665036 3.250409 0
M  V30 44 H -4.111278 3.493952 2.282561 0
M  V30 45 H -4.596203 2.424093 3.606944 0
M  V30 46 H -6.096861 1.288018 2.266923 0
M  V30 47 H -6.118992 2.819664 1.333170 0
M  V30 48 H -5.902578 0.998031 -0.066194 0
M  V30 49 H -4.912195 -0.761272 0.696100 0
M  V30 50 H -3.559580 0.024507 -0.154427 0
M  V30 51 H -2.687430 -0.518362 2.054528 0
M  V30 52 H -4.209255 -0.046620 2.805286 0
M  V30 53 H -0.387643 2.318042 -1.614729 0
M  V30 54 H 0.106706 0.570082 -3.366405 0
M  V30 55 H -0.815298 -3.123848 0.383603 0
M  V30 56 H -1.035761 -3.809194 -2.370873 0
M  V30 57 H -1.567199 -5.420415 -0.632942 0
M  V30 58 H -0.187150 -6.008782 -1.699645 0
M  V30 59 H 0.387187 -6.456050 0.577176 0
M  V30 60 H -0.175634 -4.877998 1.140323 0
M  V30 61 H 2.443941 -5.565625 0.551661 0
M  V30 62 H 1.570703 -4.067829 1.917712 0
M  V30 63 H 2.957771 -3.657427 -1.136280 0
M  V30 64 H 2.621447 -5.288443 -1.731387 0
M  V30 65 H 1.009239 -4.442912 -3.072703 0
M  V30 66 H 1.289541 -2.823187 -2.409709 0
M  V30 END ATOM
M  V30 BEGIN BOND
M  V30 1 2 1 2
M  V30 2 1 2 3
M  V30 3 2 3 4
M  V30 4 1 4 5
M  V30 5 2 5 6
M  V30 6 1 6 7
M  V30 7 2 7 8
M  V30 8 1 7 9
M  V30 9 1 9 10
M  V30 10 1 10 11
M  V30 11 1 2 12
M  V30 12 1 12 13
M  V30 13 1 13 14
M  V30 14 1 14 15
M  V30 15 1 15 16
M  V30 16 1 16 17
M  V30 17 1 17 18
M  V30 18 1 18 19
M  V30 19 1 12 20
M  V30 20 2 20 21
M  V30 21 1 21 22
M  V30 22 2 22 23
M  V30 23 1 23 24
M  V30 24 1 24 25
M  V30 25 1 25 26
M  V30 26 1 26 27
M  V30 27 1 27 28
M  V30 28 1 28 29
M  V30 29 1 29 30
M  V30 30 1 29 31
M  V30 31 1 31 32
M  V30 32 2 24 33
M  V30 33 1 8 3
M  V30 34 1 19 14
M  V30 35 1 33 20
M  V30 36 1 11 6
M  V30 37 1 32 26
M  V30 38 1 4 34
M  V30 39 1 5 35
M  V30 40 1 8 36
M  V30 41 1 9 37
M  V30 42 1 9 38
M  V30 43 1 10 39
M  V30 44 1 10 40
M  V30 45 1 13 41
M  V30 46 1 13 42
M  V30 47 1 14 43
M  V30 48 1 15 44
M  V30 49 1 15 45
M  V30 50 1 16 46
M  V30 51 1 16 47
M  V30 52 1 17 48
M  V30 53 1 18 49
M  V30 54 1 18 50
M  V30 55 1 19 51
M  V30 56 1 19 52
M  V30 57 1 21 53
M  V30 58 1 22 54
M  V30 59 1 25 55
M  V30 60 1 26 56
M  V30 61 1 27 57
M  V30 62 1 27 58
M  V30 63 1 28 59
M  V30 64 1 28 60
M  V30 65 1 29 61
M  V30 66 1 30 62
M  V30 67 1 31 63
M  V30 68 1 31 64
M  V30 69 1 32 65
M  V30 70 1 32 66
M  V30 END BOND
M  V30 END CTAB
M  END
>  <Dataset>  (627) 
ChEMBL_Kinases

>  <Ligand_Instance>  (627) 
nan

>  <PDB_ID>  (627) 
nan

>  <Standardized_SMILES>  (627) 
O=C(c1ccc2c(c1)CCO2)N(CC1CCNCC1)c1ccnc(NC2CCC(O)CC2)n1

>  <Name>  (627) 
nan

>  <Pocket>  (627) 
nan

>  <ATP_Site>  (627) 
nan

>  <Peripheral>  (627) 
nan

>  <Num_H_Atoms_ProtBoundConf>  (627) 
nan

>  <Num_Resolved_Atoms>  (627) 
nan

>  <Num_Not_Resolved_Atoms>  (627) 
nan

$$$$
CHEMBL1091229
     RDKit          3D

  0  0  0  0  0  0  0  0  0  0999 V3000
M  V30 BEGIN CTAB
M  V30 COUNTS 67 71 0 0 0
M  V30 BEGIN ATOM
M  V30 1 N 5.161217 -0.242858 4.720838 0
M  V30 2 C 4.741130 -0.421201 3.320715 0
M  V30 3 C 5.672192 0.327494 2.419832 0
M  V30 4 C 5.058196 0.755259 1.108395 0
M  V30 5 C 3.796424 1.581624 1.300367 0
M  V30 6 N 2.685330 0.859160 0.716162 0
M  V30 7 C 1.345136 1.378459 0.758844 0
M  V30 8 N 1.069236 2.571049 1.351812 0
M  V30 9 C -0.176341 3.057426 1.402092 0
M  V30 10 C -1.232467 2.367823 0.853880 0
M  V30 11 C -0.969244 1.152773 0.246361 0
M  V30 12 N -1.826175 0.204918 -0.391185 0
M  V30 13 C -2.267222 0.157734 -1.753674 0
M  V30 14 C -1.423568 -0.585168 -2.718673 0
M  V30 15 C -1.195020 -2.031170 -2.439269 0
M  V30 16 C -0.013215 -2.461084 -3.306425 0
M  V30 17 N -0.125157 -1.857585 -4.616539 0
M  V30 18 C 0.194310 -0.449711 -4.509467 0
M  V30 19 C -0.130441 0.073157 -3.103557 0
M  V30 20 C -2.155346 -0.708971 0.646562 0
M  V30 21 O -1.456137 -0.086676 1.506397 0
M  V30 22 C -2.846359 -1.877501 1.080392 0
M  V30 23 C -2.116564 -2.971415 1.460219 0
M  V30 24 C -2.814079 -4.097368 1.878135 0
M  V30 25 C -4.190349 -4.059517 1.890060 0
M  V30 26 C -4.955700 -2.951799 1.505711 0
M  V30 27 C -4.239174 -1.836758 1.091592 0
M  V30 28 C -6.404939 -3.290343 1.652931 0
M  V30 29 C -6.296437 -4.416981 2.687704 0
M  V30 30 O -5.099683 -5.044499 2.261551 0
M  V30 31 N 0.317274 0.701496 0.221638 0
M  V30 32 C 3.553848 1.639993 2.799253 0
M  V30 33 C 3.355967 0.175715 3.214673 0
M  V30 34 H 4.495154 -0.690509 5.373010 0
M  V30 35 H 5.139639 0.789054 4.924264 0
M  V30 36 H 4.714640 -1.512293 3.098447 0
M  V30 37 H 6.486077 -0.398568 2.139186 0
M  V30 38 H 6.216923 1.158156 2.918433 0
M  V30 39 H 4.878481 -0.135814 0.471861 0
M  V30 40 H 5.801151 1.389480 0.585550 0
M  V30 41 H 3.909277 2.615859 0.911527 0
M  V30 42 H 2.820442 -0.057772 0.249127 0
M  V30 43 H -0.463962 3.992811 1.854124 0
M  V30 44 H -2.286875 2.598053 0.799604 0
M  V30 45 H -2.389499 1.190848 -2.194541 0
M  V30 46 H -3.315376 -0.257384 -1.828171 0
M  V30 47 H -2.035689 -0.573268 -3.680791 0
M  V30 48 H -2.041522 -2.668552 -2.769341 0
M  V30 49 H -1.038929 -2.268358 -1.383634 0
M  V30 50 H 0.933295 -2.098511 -2.817615 0
M  V30 51 H 0.084595 -3.565373 -3.366223 0
M  V30 52 H 0.440722 -2.363947 -5.309551 0
M  V30 53 H -0.529609 0.093573 -5.181626 0
M  V30 54 H 1.220127 -0.281318 -4.817624 0
M  V30 55 H -0.295999 1.165307 -3.211144 0
M  V30 56 H 0.711608 -0.114677 -2.413708 0
M  V30 57 H -1.049387 -2.982881 1.444093 0
M  V30 58 H -2.272470 -4.978504 2.184585 0
M  V30 59 H -4.781013 -0.951790 0.783785 0
M  V30 60 H -7.006732 -2.447123 2.019240 0
M  V30 61 H -6.794154 -3.764599 0.727264 0
M  V30 62 H -7.162056 -5.089942 2.662319 0
M  V30 63 H -6.150719 -3.937079 3.696269 0
M  V30 64 H 2.690947 2.265117 3.065008 0
M  V30 65 H 4.433130 2.027153 3.341098 0
M  V30 66 H 2.771137 -0.328658 2.390327 0
M  V30 67 H 2.860766 0.067816 4.182301 0
M  V30 END ATOM
M  V30 BEGIN BOND
M  V30 1 1 1 2
M  V30 2 1 2 3
M  V30 3 1 3 4
M  V30 4 1 4 5
M  V30 5 1 5 6
M  V30 6 1 6 7
M  V30 7 2 7 8
M  V30 8 1 8 9
M  V30 9 2 9 10
M  V30 10 1 10 11
M  V30 11 1 11 12
M  V30 12 1 12 13
M  V30 13 1 13 14
M  V30 14 1 14 15
M  V30 15 1 15 16
M  V30 16 1 16 17
M  V30 17 1 17 18
M  V30 18 1 18 19
M  V30 19 1 12 20
M  V30 20 2 20 21
M  V30 21 1 20 22
M  V30 22 2 22 23
M  V30 23 1 23 24
M  V30 24 2 24 25
M  V30 25 1 25 26
M  V30 26 2 26 27
M  V30 27 1 26 28
M  V30 28 1 28 29
M  V30 29 1 29 30
M  V30 30 2 11 31
M  V30 31 1 5 32
M  V30 32 1 32 33
M  V30 33 1 33 2
M  V30 34 1 31 7
M  V30 35 1 19 14
M  V30 36 1 27 22
M  V30 37 1 30 25
M  V30 38 1 1 34
M  V30 39 1 1 35
M  V30 40 1 2 36
M  V30 41 1 3 37
M  V30 42 1 3 38
M  V30 43 1 4 39
M  V30 44 1 4 40
M  V30 45 1 5 41
M  V30 46 1 6 42
M  V30 47 1 9 43
M  V30 48 1 10 44
M  V30 49 1 13 45
M  V30 50 1 13 46
M  V30 51 1 14 47
M  V30 52 1 15 48
M  V30 53 1 15 49
M  V30 54 1 16 50
M  V30 55 1 16 51
M  V30 56 1 17 52
M  V30 57 1 18 53
M  V30 58 1 18 54
M  V30 59 1 19 55
M  V30 60 1 19 56
M  V30 61 1 23 57
M  V30 62 1 24 58
M  V30 63 1 27 59
M  V30 64 1 28 60
M  V30 65 1 28 61
M  V30 66 1 29 62
M  V30 67 1 29 63
M  V30 68 1 32 64
M  V30 69 1 32 65
M  V30 70 1 33 66
M  V30 71 1 33 67
M  V30 END BOND
M  V30 END CTAB
M  END
>  <Dataset>  (628) 
ChEMBL_Kinases

>  <Ligand_Instance>  (628) 
nan

>  <PDB_ID>  (628) 
nan

>  <Standardized_SMILES>  (628) 
NC1CCC(Nc2nccc(N(CC3CCNCC3)C(=O)c3ccc4c(c3)CCO4)n2)CC1

>  <Name>  (628) 
nan

>  <Pocket>  (628) 
nan

>  <ATP_Site>  (628) 
nan

>  <Peripheral>  (628) 
nan

>  <Num_H_Atoms_ProtBoundConf>  (628) 
nan

>  <Num_Resolved_Atoms>  (628) 
nan

>  <Num_Not_Resolved_Atoms>  (628) 
nan

$$$$
CHEMBL1091248
     RDKit          3D

  0  0  0  0  0  0  0  0  0  0999 V3000
M  V30 BEGIN CTAB
M  V30 COUNTS 55 58 0 0 0
M  V30 BEGIN ATOM
M  V30 1 C -0.582745 3.169726 0.786298 0
M  V30 2 C -0.728775 1.754168 1.253186 0
M  V30 3 N -0.450649 0.804332 0.166627 0
M  V30 4 C 0.896553 0.345675 -0.010845 0
M  V30 5 O 0.909521 -0.459982 -0.989196 0
M  V30 6 C 1.964559 0.814979 0.864311 0
M  V30 7 C 2.350332 0.227907 2.053244 0
M  V30 8 N 3.373145 0.914259 2.623110 0
M  V30 9 C 4.085514 0.661421 3.860986 0
M  V30 10 C 3.668864 1.952720 1.820697 0
M  V30 11 C 4.602871 2.976656 1.882127 0
M  V30 12 C 4.691622 3.938871 0.890345 0
M  V30 13 C 3.824597 3.870815 -0.184378 0
M  V30 14 C 2.900417 2.857781 -0.245313 0
M  V30 15 C 2.807027 1.900538 0.734648 0
M  V30 16 C -1.446764 0.314296 -0.719019 0
M  V30 17 C -1.803929 0.902775 -1.886685 0
M  V30 18 C -2.784343 0.332751 -2.666326 0
M  V30 19 N -3.395861 -0.798904 -2.291130 0
M  V30 20 C -3.052361 -1.403496 -1.125154 0
M  V30 21 N -3.701696 -2.606621 -0.663144 0
M  V30 22 C -3.496739 -3.510656 0.422858 0 CFG=1
M  V30 23 C -4.720931 -4.395438 0.654074 0
M  V30 24 C -2.334125 -4.446267 0.209237 0
M  V30 25 C -2.478668 -5.787909 0.596577 0
M  V30 26 C -1.539695 -6.783017 0.477240 0
M  V30 27 C -0.336735 -6.450315 -0.072275 0
M  V30 28 C -0.116909 -5.155418 -0.477257 0
M  V30 29 C -1.096313 -4.205138 -0.331188 0
M  V30 30 N -2.101917 -0.813369 -0.411177 0
M  V30 31 H -0.313062 3.136730 -0.308201 0
M  V30 32 H 0.246448 3.641612 1.367636 0
M  V30 33 H -1.517887 3.748400 0.938470 0
M  V30 34 H -0.094521 1.548831 2.118224 0
M  V30 35 H -1.806481 1.599463 1.548277 0
M  V30 36 H 1.966566 -0.645737 2.549655 0
M  V30 37 H 3.645254 -0.173756 4.438318 0
M  V30 38 H 4.034758 1.545832 4.542426 0
M  V30 39 H 5.185503 0.518388 3.664208 0
M  V30 40 H 5.298212 3.055986 2.714831 0
M  V30 41 H 5.433218 4.719694 0.977092 0
M  V30 42 H 3.882788 4.622351 -0.974491 0
M  V30 43 H 2.230793 2.820328 -1.092505 0
M  V30 44 H -1.324548 1.807460 -2.200551 0
M  V30 45 H -3.126530 0.736450 -3.606811 0
M  V30 46 H -4.524378 -2.875336 -1.285436 0
M  V30 47 H -3.317488 -2.962806 1.359752 0
M  V30 48 H -5.625202 -3.732062 0.526218 0
M  V30 49 H -4.766945 -5.158004 -0.118083 0
M  V30 50 H -4.743403 -4.731285 1.688645 0
M  V30 51 H -3.416006 -6.129334 1.046245 0
M  V30 52 H -1.713001 -7.788415 0.792673 0
M  V30 53 H 0.487697 -7.122657 -0.226757 0
M  V30 54 H 0.821437 -4.838513 -0.919722 0
M  V30 55 H -0.904005 -3.207694 -0.655342 0
M  V30 END ATOM
M  V30 BEGIN BOND
M  V30 1 1 1 2
M  V30 2 1 2 3
M  V30 3 1 3 4
M  V30 4 2 4 5
M  V30 5 1 4 6
M  V30 6 2 6 7
M  V30 7 1 7 8
M  V30 8 1 8 9
M  V30 9 1 8 10
M  V30 10 2 10 11
M  V30 11 1 11 12
M  V30 12 2 12 13
M  V30 13 1 13 14
M  V30 14 2 14 15
M  V30 15 1 3 16
M  V30 16 2 16 17
M  V30 17 1 17 18
M  V30 18 2 18 19
M  V30 19 1 19 20
M  V30 20 1 20 21
M  V30 21 1 21 22
M  V30 22 1 22 23
M  V30 23 1 22 24
M  V30 24 2 24 25
M  V30 25 1 25 26
M  V30 26 2 26 27
M  V30 27 1 27 28
M  V30 28 2 28 29
M  V30 29 2 20 30
M  V30 30 1 15 6
M  V30 31 1 30 16
M  V30 32 1 15 10
M  V30 33 1 29 24
M  V30 34 1 1 31
M  V30 35 1 1 32
M  V30 36 1 1 33
M  V30 37 1 2 34
M  V30 38 1 2 35
M  V30 39 1 7 36
M  V30 40 1 9 37
M  V30 41 1 9 38
M  V30 42 1 9 39
M  V30 43 1 11 40
M  V30 44 1 12 41
M  V30 45 1 13 42
M  V30 46 1 14 43
M  V30 47 1 17 44
M  V30 48 1 18 45
M  V30 49 1 21 46
M  V30 50 1 22 47 CFG=1
M  V30 51 1 23 48
M  V30 52 1 23 49
M  V30 53 1 23 50
M  V30 54 1 25 51
M  V30 55 1 26 52
M  V30 56 1 27 53
M  V30 57 1 28 54
M  V30 58 1 29 55
M  V30 END BOND
M  V30 END CTAB
M  END
>  <Dataset>  (629) 
ChEMBL_Kinases

>  <Ligand_Instance>  (629) 
nan

>  <PDB_ID>  (629) 
nan

>  <Standardized_SMILES>  (629) 
CCN(C(=O)c1cn(C)c2ccccc12)c1ccnc(N[C@@H](C)c2ccccc2)n1

>  <Name>  (629) 
nan

>  <Pocket>  (629) 
nan

>  <ATP_Site>  (629) 
nan

>  <Peripheral>  (629) 
nan

>  <Num_H_Atoms_ProtBoundConf>  (629) 
nan

>  <Num_Resolved_Atoms>  (629) 
nan

>  <Num_Not_Resolved_Atoms>  (629) 
nan

$$$$
CHEMBL1091249
     RDKit          3D

  0  0  0  0  0  0  0  0  0  0999 V3000
M  V30 BEGIN CTAB
M  V30 COUNTS 51 54 0 0 0
M  V30 BEGIN ATOM
M  V30 1 C 1.116059 -0.349756 5.464805 0
M  V30 2 C 0.030700 0.253409 4.558707 0
M  V30 3 N 0.616644 0.577981 3.257634 0
M  V30 4 C 1.160731 1.889598 3.136066 0
M  V30 5 O 1.213292 2.847993 3.945241 0
M  V30 6 C 1.807174 2.316863 1.875425 0
M  V30 7 C 3.077372 1.971431 1.462871 0
M  V30 8 C 3.206586 2.618214 0.229279 0
M  V30 9 C 4.299762 2.617519 -0.640927 0
M  V30 10 C 4.156501 3.352199 -1.807970 0
M  V30 11 C 3.014922 4.057366 -2.127581 0
M  V30 12 C 1.983710 4.006492 -1.215842 0
M  V30 13 C 2.032447 3.304624 -0.030196 0
M  V30 14 O 1.204971 3.097945 0.993011 0
M  V30 15 C 0.616370 -0.402193 2.226441 0
M  V30 16 C 1.694648 -1.253703 2.125230 0
M  V30 17 C 1.734635 -2.212834 1.144235 0
M  V30 18 N 0.723955 -2.327221 0.279312 0
M  V30 19 C -0.338257 -1.516310 0.351450 0
M  V30 20 N -1.527342 -1.413764 -0.420614 0
M  V30 21 C -2.869945 -1.975941 -0.488233 0 CFG=1
M  V30 22 C -3.676033 -1.332026 -1.595660 0
M  V30 23 C -2.868266 -3.450513 -0.636740 0
M  V30 24 C -3.694096 -4.019923 -1.597119 0
M  V30 25 C -3.784777 -5.361117 -1.833795 0
M  V30 26 C -3.008449 -6.231578 -1.074960 0
M  V30 27 C -2.170683 -5.712007 -0.106038 0
M  V30 28 C -2.124663 -4.353373 0.083486 0
M  V30 29 N -0.382836 -0.557228 1.327262 0
M  V30 30 H 1.502454 -1.256691 4.954041 0
M  V30 31 H 1.938948 0.412228 5.511408 0
M  V30 32 H 0.684337 -0.589365 6.437467 0
M  V30 33 H -0.743582 -0.543236 4.473199 0
M  V30 34 H -0.373437 1.156975 5.017660 0
M  V30 35 H 3.787140 1.354780 1.973621 0
M  V30 36 H 5.221920 2.085612 -0.446337 0
M  V30 37 H 4.988567 3.369001 -2.499749 0
M  V30 38 H 2.922868 4.626267 -3.048252 0
M  V30 39 H 1.069890 4.553832 -1.443296 0
M  V30 40 H 2.549410 -1.214274 2.793081 0
M  V30 41 H 2.559318 -2.914392 1.011629 0
M  V30 42 H -1.277450 -0.686228 -1.148102 0
M  V30 43 H -3.372668 -1.734247 0.467404 0
M  V30 44 H -3.509980 -0.223338 -1.490721 0
M  V30 45 H -3.379788 -1.615866 -2.606348 0
M  V30 46 H -4.739799 -1.553478 -1.434079 0
M  V30 47 H -4.325128 -3.389063 -2.219701 0
M  V30 48 H -4.442135 -5.770228 -2.592956 0
M  V30 49 H -3.020780 -7.306912 -1.199561 0
M  V30 50 H -1.566886 -6.387859 0.483919 0
M  V30 51 H -1.470644 -3.942371 0.845555 0
M  V30 END ATOM
M  V30 BEGIN BOND
M  V30 1 1 1 2
M  V30 2 1 2 3
M  V30 3 1 3 4
M  V30 4 2 4 5
M  V30 5 1 4 6
M  V30 6 2 6 7
M  V30 7 1 7 8
M  V30 8 2 8 9
M  V30 9 1 9 10
M  V30 10 2 10 11
M  V30 11 1 11 12
M  V30 12 2 12 13
M  V30 13 1 13 14
M  V30 14 1 3 15
M  V30 15 2 15 16
M  V30 16 1 16 17
M  V30 17 2 17 18
M  V30 18 1 18 19
M  V30 19 1 19 20
M  V30 20 1 20 21
M  V30 21 1 21 22
M  V30 22 1 21 23
M  V30 23 2 23 24
M  V30 24 1 24 25
M  V30 25 2 25 26
M  V30 26 1 26 27
M  V30 27 2 27 28
M  V30 28 2 19 29
M  V30 29 1 14 6
M  V30 30 1 29 15
M  V30 31 1 13 8
M  V30 32 1 28 23
M  V30 33 1 1 30
M  V30 34 1 1 31
M  V30 35 1 1 32
M  V30 36 1 2 33
M  V30 37 1 2 34
M  V30 38 1 7 35
M  V30 39 1 9 36
M  V30 40 1 10 37
M  V30 41 1 11 38
M  V30 42 1 12 39
M  V30 43 1 16 40
M  V30 44 1 17 41
M  V30 45 1 20 42
M  V30 46 1 21 43 CFG=1
M  V30 47 1 22 44
M  V30 48 1 22 45
M  V30 49 1 22 46
M  V30 50 1 24 47
M  V30 51 1 25 48
M  V30 52 1 26 49
M  V30 53 1 27 50
M  V30 54 1 28 51
M  V30 END BOND
M  V30 END CTAB
M  END
>  <Dataset>  (630) 
ChEMBL_Kinases

>  <Ligand_Instance>  (630) 
nan

>  <PDB_ID>  (630) 
nan

>  <Standardized_SMILES>  (630) 
CCN(C(=O)c1cc2ccccc2o1)c1ccnc(N[C@@H](C)c2ccccc2)n1

>  <Name>  (630) 
nan

>  <Pocket>  (630) 
nan

>  <ATP_Site>  (630) 
nan

>  <Peripheral>  (630) 
nan

>  <Num_H_Atoms_ProtBoundConf>  (630) 
nan

>  <Num_Resolved_Atoms>  (630) 
nan

>  <Num_Not_Resolved_Atoms>  (630) 
nan

$$$$
CHEMBL1091253
     RDKit          3D

  0  0  0  0  0  0  0  0  0  0999 V3000
M  V30 BEGIN CTAB
M  V30 COUNTS 55 58 0 0 0
M  V30 BEGIN ATOM
M  V30 1 C -0.195763 1.976262 4.562490 0
M  V30 2 C -0.213557 0.530618 4.083772 0
M  V30 3 N 0.047117 0.428790 2.662638 0
M  V30 4 C 1.411982 0.291084 2.291546 0
M  V30 5 O 2.370262 0.248809 3.100223 0
M  V30 6 C 1.973287 0.174186 0.950143 0
M  V30 7 C 2.039483 -0.911746 0.100009 0
M  V30 8 C 2.628765 -0.771435 -1.138812 0
M  V30 9 C 3.161346 0.428230 -1.568225 0
M  V30 10 C 3.741601 0.510645 -2.827927 0
M  V30 11 C 4.274949 1.708584 -3.259302 0
M  V30 12 C 4.224220 2.817932 -2.427001 0
M  V30 13 C 3.643125 2.719021 -1.176601 0
M  V30 14 C 3.094992 1.516059 -0.715490 0
M  V30 15 C 2.506006 1.399805 0.538955 0
M  V30 16 C -1.120288 0.482412 1.868518 0
M  V30 17 C -1.576403 1.692620 1.387870 0
M  V30 18 C -2.718874 1.717852 0.620548 0
M  V30 19 N -3.403641 0.601331 0.324890 0
M  V30 20 C -3.000996 -0.605350 0.769318 0
M  V30 21 N -3.720233 -1.793946 0.467764 0
M  V30 22 C -3.441454 -3.144531 0.838778 0 CFG=1
M  V30 23 C -4.497447 -4.138048 0.343899 0
M  V30 24 C -2.109975 -3.517880 0.238730 0
M  V30 25 C -1.886612 -3.127513 -1.058776 0
M  V30 26 C -0.704479 -3.410306 -1.735530 0
M  V30 27 C 0.273759 -4.107495 -1.076123 0
M  V30 28 C 0.047893 -4.498652 0.226427 0
M  V30 29 C -1.123853 -4.225599 0.917821 0
M  V30 30 C -1.856636 -0.635790 1.538623 0
M  V30 31 H 0.686915 2.489204 4.164402 0
M  V30 32 H -0.115674 1.991068 5.665154 0
M  V30 33 H -1.134228 2.471009 4.245271 0
M  V30 34 H -1.160241 0.039920 4.364492 0
M  V30 35 H 0.578572 0.005716 4.669614 0
M  V30 36 H 1.594505 -1.793271 0.537016 0
M  V30 37 H 2.644665 -1.670351 -1.752380 0
M  V30 38 H 3.776109 -0.362286 -3.465765 0
M  V30 39 H 4.739304 1.817506 -4.242411 0
M  V30 40 H 4.637981 3.782847 -2.742108 0
M  V30 41 H 3.608044 3.594715 -0.523669 0
M  V30 42 H 2.523348 2.326160 1.094181 0
M  V30 43 H -1.078533 2.624940 1.583407 0
M  V30 44 H -3.156206 2.621664 0.195458 0
M  V30 45 H -4.599942 -1.674532 -0.120749 0
M  V30 46 H -3.413337 -3.273813 1.952430 0
M  V30 47 H -5.461221 -3.760654 0.727705 0
M  V30 48 H -4.483737 -4.213066 -0.746293 0
M  V30 49 H -4.240741 -5.104047 0.846971 0
M  V30 50 H -2.628423 -2.579844 -1.613799 0
M  V30 51 H -0.464485 -3.139180 -2.742882 0
M  V30 52 H 1.229753 -4.372842 -1.527549 0
M  V30 53 H 0.772222 -5.053000 0.812463 0
M  V30 54 H -1.329135 -4.516566 1.930595 0
M  V30 55 H -1.449008 -1.548181 1.946521 0
M  V30 END ATOM
M  V30 BEGIN BOND
M  V30 1 1 1 2
M  V30 2 1 2 3
M  V30 3 1 3 4
M  V30 4 2 4 5
M  V30 5 1 4 6
M  V30 6 2 6 7
M  V30 7 1 7 8
M  V30 8 2 8 9
M  V30 9 1 9 10
M  V30 10 2 10 11
M  V30 11 1 11 12
M  V30 12 2 12 13
M  V30 13 1 13 14
M  V30 14 2 14 15
M  V30 15 1 3 16
M  V30 16 2 16 17
M  V30 17 1 17 18
M  V30 18 2 18 19
M  V30 19 1 19 20
M  V30 20 1 20 21
M  V30 21 1 21 22
M  V30 22 1 22 23
M  V30 23 1 22 24
M  V30 24 2 24 25
M  V30 25 1 25 26
M  V30 26 2 26 27
M  V30 27 1 27 28
M  V30 28 2 28 29
M  V30 29 2 20 30
M  V30 30 1 15 6
M  V30 31 1 30 16
M  V30 32 1 14 9
M  V30 33 1 29 24
M  V30 34 1 1 31
M  V30 35 1 1 32
M  V30 36 1 1 33
M  V30 37 1 2 34
M  V30 38 1 2 35
M  V30 39 1 7 36
M  V30 40 1 8 37
M  V30 41 1 10 38
M  V30 42 1 11 39
M  V30 43 1 12 40
M  V30 44 1 13 41
M  V30 45 1 15 42
M  V30 46 1 17 43
M  V30 47 1 18 44
M  V30 48 1 21 45
M  V30 49 1 22 46 CFG=1
M  V30 50 1 23 47
M  V30 51 1 23 48
M  V30 52 1 23 49
M  V30 53 1 25 50
M  V30 54 1 26 51
M  V30 55 1 27 52
M  V30 56 1 28 53
M  V30 57 1 29 54
M  V30 58 1 30 55
M  V30 END BOND
M  V30 END CTAB
M  END
>  <Dataset>  (631) 
ChEMBL_Kinases

>  <Ligand_Instance>  (631) 
nan

>  <PDB_ID>  (631) 
nan

>  <Standardized_SMILES>  (631) 
CCN(C(=O)c1ccc2ccccc2c1)c1ccnc(N[C@@H](C)c2ccccc2)c1

>  <Name>  (631) 
nan

>  <Pocket>  (631) 
nan

>  <ATP_Site>  (631) 
nan

>  <Peripheral>  (631) 
nan

>  <Num_H_Atoms_ProtBoundConf>  (631) 
nan

>  <Num_Resolved_Atoms>  (631) 
nan

>  <Num_Not_Resolved_Atoms>  (631) 
nan

$$$$
CHEMBL1091259
     RDKit          3D

  0  0  0  0  0  0  0  0  0  0999 V3000
M  V30 BEGIN CTAB
M  V30 COUNTS 53 56 0 0 0
M  V30 BEGIN ATOM
M  V30 1 C -0.013257 -1.510482 4.480929 0
M  V30 2 C 0.261178 -0.051495 4.304439 0
M  V30 3 N 0.875391 0.278018 3.025149 0
M  V30 4 C 2.311190 0.280680 2.928419 0
M  V30 5 O 3.317604 0.065733 3.677950 0
M  V30 6 C 2.801497 0.621970 1.612216 0
M  V30 7 C 2.975519 -0.467096 0.767675 0
M  V30 8 C 3.442868 -0.240453 -0.517687 0
M  V30 9 C 3.746899 1.012941 -1.009007 0
M  V30 10 C 3.563768 2.079341 -0.145108 0
M  V30 11 C 3.100018 1.881044 1.138658 0
M  V30 12 O 3.000139 3.093709 1.806606 0
M  V30 13 C 2.897030 4.107667 0.799184 0
M  V30 14 C 3.770359 3.544657 -0.287597 0
M  V30 15 C -0.040488 0.577536 1.951342 0
M  V30 16 C -0.561048 1.806605 1.600673 0
M  V30 17 C -1.424698 1.856416 0.531060 0
M  V30 18 N -1.745164 0.742973 -0.143407 0
M  V30 19 C -1.240742 -0.480080 0.188522 0
M  V30 20 N -1.592683 -1.651850 -0.539672 0
M  V30 21 C -2.762612 -2.424371 -0.102921 0 CFG=1
M  V30 22 C -4.029362 -1.629216 -0.131145 0
M  V30 23 C -2.839535 -3.686924 -0.881509 0
M  V30 24 C -2.643679 -3.635366 -2.263905 0
M  V30 25 C -2.687330 -4.732520 -3.110699 0
M  V30 26 C -2.943297 -5.965419 -2.543870 0
M  V30 27 C -3.141246 -6.055770 -1.187383 0
M  V30 28 C -3.089807 -4.953075 -0.391851 0
M  V30 29 N -0.394497 -0.520402 1.238661 0
M  V30 30 H -0.076980 -2.085332 3.557624 0
M  V30 31 H -0.974234 -1.680300 5.043201 0
M  V30 32 H 0.782807 -1.954647 5.140295 0
M  V30 33 H -0.700167 0.515883 4.420521 0
M  V30 34 H 0.939503 0.304515 5.105882 0
M  V30 35 H 2.772976 -1.503374 1.032221 0
M  V30 36 H 3.583879 -1.084882 -1.190159 0
M  V30 37 H 4.105990 1.138477 -2.011786 0
M  V30 38 H 3.286926 5.036851 1.258689 0
M  V30 39 H 1.829582 4.159224 0.512814 0
M  V30 40 H 3.458117 3.907975 -1.285530 0
M  V30 41 H 4.822812 3.774160 -0.039334 0
M  V30 42 H -0.215133 2.620321 2.233520 0
M  V30 43 H -1.804907 2.836647 0.295177 0
M  V30 44 H -0.822199 -1.614363 -1.258543 0
M  V30 45 H -2.562368 -2.711243 0.959066 0
M  V30 46 H -4.680689 -1.909977 0.745050 0
M  V30 47 H -3.902072 -0.538455 -0.107775 0
M  V30 48 H -4.630089 -1.988317 -1.014731 0
M  V30 49 H -2.438815 -2.685063 -2.756349 0
M  V30 50 H -2.528616 -4.627788 -4.163953 0
M  V30 51 H -2.989057 -6.860508 -3.160239 0
M  V30 52 H -3.340381 -7.000558 -0.731133 0
M  V30 53 H -3.244837 -5.008000 0.687355 0
M  V30 END ATOM
M  V30 BEGIN BOND
M  V30 1 1 1 2
M  V30 2 1 2 3
M  V30 3 1 3 4
M  V30 4 2 4 5
M  V30 5 1 4 6
M  V30 6 2 6 7
M  V30 7 1 7 8
M  V30 8 2 8 9
M  V30 9 1 9 10
M  V30 10 2 10 11
M  V30 11 1 11 12
M  V30 12 1 12 13
M  V30 13 1 13 14
M  V30 14 1 3 15
M  V30 15 2 15 16
M  V30 16 1 16 17
M  V30 17 2 17 18
M  V30 18 1 18 19
M  V30 19 1 19 20
M  V30 20 1 20 21
M  V30 21 1 21 22
M  V30 22 1 21 23
M  V30 23 2 23 24
M  V30 24 1 24 25
M  V30 25 2 25 26
M  V30 26 1 26 27
M  V30 27 2 27 28
M  V30 28 2 19 29
M  V30 29 1 11 6
M  V30 30 1 29 15
M  V30 31 1 14 10
M  V30 32 1 28 23
M  V30 33 1 1 30
M  V30 34 1 1 31
M  V30 35 1 1 32
M  V30 36 1 2 33
M  V30 37 1 2 34
M  V30 38 1 7 35
M  V30 39 1 8 36
M  V30 40 1 9 37
M  V30 41 1 13 38
M  V30 42 1 13 39
M  V30 43 1 14 40
M  V30 44 1 14 41
M  V30 45 1 16 42
M  V30 46 1 17 43
M  V30 47 1 20 44
M  V30 48 1 21 45 CFG=1
M  V30 49 1 22 46
M  V30 50 1 22 47
M  V30 51 1 22 48
M  V30 52 1 24 49
M  V30 53 1 25 50
M  V30 54 1 26 51
M  V30 55 1 27 52
M  V30 56 1 28 53
M  V30 END BOND
M  V30 END CTAB
M  END
>  <Dataset>  (632) 
ChEMBL_Kinases

>  <Ligand_Instance>  (632) 
nan

>  <PDB_ID>  (632) 
nan

>  <Standardized_SMILES>  (632) 
CCN(C(=O)c1cccc2c1OCC2)c1ccnc(N[C@@H](C)c2ccccc2)n1

>  <Name>  (632) 
nan

>  <Pocket>  (632) 
nan

>  <ATP_Site>  (632) 
nan

>  <Peripheral>  (632) 
nan

>  <Num_H_Atoms_ProtBoundConf>  (632) 
nan

>  <Num_Resolved_Atoms>  (632) 
nan

>  <Num_Not_Resolved_Atoms>  (632) 
nan

$$$$
CHEMBL1091260
     RDKit          3D

  0  0  0  0  0  0  0  0  0  0999 V3000
M  V30 BEGIN CTAB
M  V30 COUNTS 55 58 0 0 0
M  V30 BEGIN ATOM
M  V30 1 C -1.332111 -0.532167 5.564052 0
M  V30 2 C -1.051233 -1.457465 4.410413 0
M  V30 3 N -0.581861 -0.730415 3.258649 0
M  V30 4 C 0.823880 -0.543967 3.147688 0
M  V30 5 O 1.682935 -0.955567 3.969349 0
M  V30 6 C 1.598799 0.132193 2.116158 0
M  V30 7 C 2.054897 -0.415908 0.921544 0
M  V30 8 C 2.784179 0.356868 0.036019 0
M  V30 9 C 3.084463 1.678254 0.294738 0
M  V30 10 C 2.619202 2.216630 1.500642 0
M  V30 11 C 1.881940 1.454793 2.408029 0
M  V30 12 C 3.056343 3.658066 1.577530 0
M  V30 13 C 3.091481 3.989721 0.097665 0
M  V30 14 C 3.820941 2.760899 -0.410686 0
M  V30 15 C -1.251294 -0.131892 2.155298 0
M  V30 16 C -1.749670 1.150339 2.009901 0
M  V30 17 C -2.363924 1.498192 0.829339 0
M  V30 18 N -2.483108 0.597269 -0.186773 0
M  V30 19 C -1.990320 -0.664915 -0.038549 0
M  V30 20 N -2.114758 -1.600954 -1.109589 0
M  V30 21 C -1.586990 -2.961167 -0.915030 0 CFG=1
M  V30 22 C -2.271214 -3.659510 0.208286 0
M  V30 23 C -1.590978 -3.669492 -2.202949 0
M  V30 24 C -1.962095 -4.948245 -2.550632 0
M  V30 25 C -1.878531 -5.388111 -3.851347 0
M  V30 26 C -1.423814 -4.585769 -4.873482 0
M  V30 27 C -1.050106 -3.311337 -4.547688 0
M  V30 28 C -1.128128 -2.850883 -3.240476 0
M  V30 29 N -1.388216 -1.000383 1.123245 0
M  V30 30 H -1.778856 -1.119846 6.393754 0
M  V30 31 H -2.015807 0.277558 5.246672 0
M  V30 32 H -0.368330 -0.060057 5.867213 0
M  V30 33 H -1.950898 -2.062547 4.148109 0
M  V30 34 H -0.283482 -2.192021 4.711833 0
M  V30 35 H 1.795014 -1.452759 0.763726 0
M  V30 36 H 3.126754 -0.097039 -0.885627 0
M  V30 37 H 1.557212 1.958405 3.327346 0
M  V30 38 H 2.300743 4.287661 2.080998 0
M  V30 39 H 4.045961 3.767684 2.046340 0
M  V30 40 H 3.640275 4.924542 -0.121328 0
M  V30 41 H 2.031929 4.024586 -0.265108 0
M  V30 42 H 3.799282 2.681874 -1.508191 0
M  V30 43 H 4.870326 2.875302 -0.023729 0
M  V30 44 H -1.587206 1.755671 2.887646 0
M  V30 45 H -2.733299 2.512293 0.775361 0
M  V30 46 H -2.558629 -1.332828 -1.989130 0
M  V30 47 H -0.501077 -2.875053 -0.619634 0
M  V30 48 H -1.561900 -4.105531 0.960125 0
M  V30 49 H -2.969423 -4.435310 -0.155340 0
M  V30 50 H -2.812322 -2.874360 0.801929 0
M  V30 51 H -2.305358 -5.523373 -1.715505 0
M  V30 52 H -2.204176 -6.412607 -3.964658 0
M  V30 53 H -1.401262 -5.033567 -5.848350 0
M  V30 54 H -0.694684 -2.699703 -5.368303 0
M  V30 55 H -0.796410 -1.814990 -3.140245 0
M  V30 END ATOM
M  V30 BEGIN BOND
M  V30 1 1 1 2
M  V30 2 1 2 3
M  V30 3 1 3 4
M  V30 4 2 4 5
M  V30 5 1 4 6
M  V30 6 2 6 7
M  V30 7 1 7 8
M  V30 8 2 8 9
M  V30 9 1 9 10
M  V30 10 2 10 11
M  V30 11 1 10 12
M  V30 12 1 12 13
M  V30 13 1 13 14
M  V30 14 1 3 15
M  V30 15 2 15 16
M  V30 16 1 16 17
M  V30 17 2 17 18
M  V30 18 1 18 19
M  V30 19 1 19 20
M  V30 20 1 20 21
M  V30 21 1 21 22
M  V30 22 1 21 23
M  V30 23 2 23 24
M  V30 24 1 24 25
M  V30 25 2 25 26
M  V30 26 1 26 27
M  V30 27 2 27 28
M  V30 28 2 19 29
M  V30 29 1 11 6
M  V30 30 1 29 15
M  V30 31 1 14 9
M  V30 32 1 28 23
M  V30 33 1 1 30
M  V30 34 1 1 31
M  V30 35 1 1 32
M  V30 36 1 2 33
M  V30 37 1 2 34
M  V30 38 1 7 35
M  V30 39 1 8 36
M  V30 40 1 11 37
M  V30 41 1 12 38
M  V30 42 1 12 39
M  V30 43 1 13 40
M  V30 44 1 13 41
M  V30 45 1 14 42
M  V30 46 1 14 43
M  V30 47 1 16 44
M  V30 48 1 17 45
M  V30 49 1 20 46
M  V30 50 1 21 47 CFG=1
M  V30 51 1 22 48
M  V30 52 1 22 49
M  V30 53 1 22 50
M  V30 54 1 24 51
M  V30 55 1 25 52
M  V30 56 1 26 53
M  V30 57 1 27 54
M  V30 58 1 28 55
M  V30 END BOND
M  V30 END CTAB
M  END
>  <Dataset>  (633) 
ChEMBL_Kinases

>  <Ligand_Instance>  (633) 
nan

>  <PDB_ID>  (633) 
nan

>  <Standardized_SMILES>  (633) 
CCN(C(=O)c1ccc2c(c1)CCC2)c1ccnc(N[C@@H](C)c2ccccc2)n1

>  <Name>  (633) 
nan

>  <Pocket>  (633) 
nan

>  <ATP_Site>  (633) 
nan

>  <Peripheral>  (633) 
nan

>  <Num_H_Atoms_ProtBoundConf>  (633) 
nan

>  <Num_Resolved_Atoms>  (633) 
nan

>  <Num_Not_Resolved_Atoms>  (633) 
nan

$$$$
CHEMBL1091287
     RDKit          3D

  0  0  0  0  0  0  0  0  0  0999 V3000
M  V30 BEGIN CTAB
M  V30 COUNTS 62 65 0 0 0
M  V30 BEGIN ATOM
M  V30 1 C 0.934596 -0.386724 4.874328 0
M  V30 2 O 2.176398 0.154160 4.543166 0
M  V30 3 C 2.482468 -0.020214 3.204889 0
M  V30 4 C 3.856811 0.605840 2.965398 0 CFG=2
M  V30 5 C 3.771622 2.025823 3.418918 0
M  V30 6 N 4.248940 0.459276 1.574883 0
M  V30 7 C 3.468851 1.014265 0.494388 0
M  V30 8 N 3.609378 2.208637 -0.127012 0
M  V30 9 C 2.710162 2.459793 -1.121815 0
M  V30 10 C 1.732044 1.549270 -1.457987 0
M  V30 11 C 1.610527 0.343876 -0.811418 0
M  V30 12 N 0.588860 -0.566600 -1.183217 0
M  V30 13 C -0.414055 -0.396682 -2.195768 0
M  V30 14 C -1.682173 0.197401 -1.671827 0
M  V30 15 C -1.564845 1.544785 -1.043871 0
M  V30 16 C -2.913036 1.838200 -0.366617 0
M  V30 17 N -4.017355 1.786373 -1.277456 0
M  V30 18 C -4.052623 0.560155 -2.048469 0
M  V30 19 C -2.736026 0.335404 -2.757585 0
M  V30 20 C 0.604698 -1.778613 -0.460121 0
M  V30 21 O 1.542975 -1.817347 0.379044 0
M  V30 22 C -0.181179 -2.998494 -0.429595 0
M  V30 23 C -0.372176 -3.940026 -1.415617 0
M  V30 24 C -1.168223 -5.048187 -1.186528 0
M  V30 25 C -1.782384 -5.214653 0.050858 0
M  V30 26 C -1.616653 -4.295362 1.064465 0
M  V30 27 C -0.816461 -3.202116 0.801962 0
M  V30 28 C -2.394959 -4.762822 2.241476 0
M  V30 29 C -3.373794 -5.725999 1.620327 0
M  V30 30 O -2.626060 -6.231512 0.536243 0
M  V30 31 N 2.504707 0.142909 0.146576 0
M  V30 32 H 0.917758 -1.459934 4.670608 0
M  V30 33 H 0.846226 -0.267478 5.977014 0
M  V30 34 H 0.085007 0.148807 4.422988 0
M  V30 35 H 1.717913 0.539306 2.628349 0
M  V30 36 H 2.438570 -1.078726 2.912639 0
M  V30 37 H 4.558412 0.017464 3.571075 0
M  V30 38 H 2.930934 2.560992 2.970422 0
M  V30 39 H 3.535231 1.977432 4.522023 0
M  V30 40 H 4.743840 2.566740 3.355496 0
M  V30 41 H 5.096802 -0.038136 1.229884 0
M  V30 42 H 2.816692 3.412062 -1.622979 0
M  V30 43 H 1.044668 1.792962 -2.252314 0
M  V30 44 H -0.039106 0.262463 -3.011037 0
M  V30 45 H -0.660507 -1.385919 -2.686015 0
M  V30 46 H -2.124966 -0.489432 -0.917624 0
M  V30 47 H -1.328600 2.309673 -1.811982 0
M  V30 48 H -0.834993 1.578654 -0.205153 0
M  V30 49 H -2.915177 2.841389 0.107512 0
M  V30 50 H -3.023060 1.073816 0.430162 0
M  V30 51 H -4.882770 1.769134 -0.668577 0
M  V30 52 H -4.892301 0.659124 -2.771308 0
M  V30 53 H -4.286423 -0.342429 -1.428895 0
M  V30 54 H -2.521779 1.274426 -3.311512 0
M  V30 55 H -2.813439 -0.540452 -3.417737 0
M  V30 56 H 0.145657 -3.715409 -2.329428 0
M  V30 57 H -1.286118 -5.763853 -2.001395 0
M  V30 58 H -0.731908 -2.515480 1.653578 0
M  V30 59 H -2.905354 -3.892129 2.714026 0
M  V30 60 H -1.676132 -5.260779 2.920120 0
M  V30 61 H -4.275503 -5.172903 1.310013 0
M  V30 62 H -3.611790 -6.524435 2.361740 0
M  V30 END ATOM
M  V30 BEGIN BOND
M  V30 1 1 1 2
M  V30 2 1 2 3
M  V30 3 1 3 4
M  V30 4 1 4 5
M  V30 5 1 4 6
M  V30 6 1 6 7
M  V30 7 2 7 8
M  V30 8 1 8 9
M  V30 9 2 9 10
M  V30 10 1 10 11
M  V30 11 1 11 12
M  V30 12 1 12 13
M  V30 13 1 13 14
M  V30 14 1 14 15
M  V30 15 1 15 16
M  V30 16 1 16 17
M  V30 17 1 17 18
M  V30 18 1 18 19
M  V30 19 1 12 20
M  V30 20 2 20 21
M  V30 21 1 20 22
M  V30 22 2 22 23
M  V30 23 1 23 24
M  V30 24 2 24 25
M  V30 25 1 25 26
M  V30 26 2 26 27
M  V30 27 1 26 28
M  V30 28 1 28 29
M  V30 29 1 29 30
M  V30 30 2 11 31
M  V30 31 1 31 7
M  V30 32 1 19 14
M  V30 33 1 27 22
M  V30 34 1 30 25
M  V30 35 1 1 32
M  V30 36 1 1 33
M  V30 37 1 1 34
M  V30 38 1 3 35
M  V30 39 1 3 36
M  V30 40 1 4 37 CFG=1
M  V30 41 1 5 38
M  V30 42 1 5 39
M  V30 43 1 5 40
M  V30 44 1 6 41
M  V30 45 1 9 42
M  V30 46 1 10 43
M  V30 47 1 13 44
M  V30 48 1 13 45
M  V30 49 1 14 46
M  V30 50 1 15 47
M  V30 51 1 15 48
M  V30 52 1 16 49
M  V30 53 1 16 50
M  V30 54 1 17 51
M  V30 55 1 18 52
M  V30 56 1 18 53
M  V30 57 1 19 54
M  V30 58 1 19 55
M  V30 59 1 23 56
M  V30 60 1 24 57
M  V30 61 1 27 58
M  V30 62 1 28 59
M  V30 63 1 28 60
M  V30 64 1 29 61
M  V30 65 1 29 62
M  V30 END BOND
M  V30 END CTAB
M  END
>  <Dataset>  (634) 
ChEMBL_Kinases

>  <Ligand_Instance>  (634) 
nan

>  <PDB_ID>  (634) 
nan

>  <Standardized_SMILES>  (634) 
COC[C@H](C)Nc1nccc(N(CC2CCNCC2)C(=O)c2ccc3c(c2)CCO3)n1

>  <Name>  (634) 
nan

>  <Pocket>  (634) 
nan

>  <ATP_Site>  (634) 
nan

>  <Peripheral>  (634) 
nan

>  <Num_H_Atoms_ProtBoundConf>  (634) 
nan

>  <Num_Resolved_Atoms>  (634) 
nan

>  <Num_Not_Resolved_Atoms>  (634) 
nan

$$$$
CHEMBL1091083
     RDKit          3D

  0  0  0  0  0  0  0  0  0  0999 V3000
M  V30 BEGIN CTAB
M  V30 COUNTS 52 55 0 0 0
M  V30 BEGIN ATOM
M  V30 1 C -0.785709 1.109441 4.996815 0
M  V30 2 C 0.442994 0.884731 5.827762 0
M  V30 3 C 1.599562 0.388711 4.989389 0
M  V30 4 C 1.972245 1.338743 3.927433 0
M  V30 5 O 1.542008 2.455431 3.574210 0
M  V30 6 N 3.045410 0.877004 3.150651 0
M  V30 7 C 3.630102 1.572661 2.051673 0
M  V30 8 N 4.649466 2.455990 2.020848 0
M  V30 9 N 4.868107 2.862077 0.776786 0
M  V30 10 C 4.005243 2.265682 -0.061401 0
M  V30 11 C 3.768061 2.298922 -1.417725 0
M  V30 12 C 2.768732 1.538687 -1.991172 0
M  V30 13 Cl 2.443912 1.561183 -3.714026 0
M  V30 14 C 1.962201 0.711614 -1.234999 0
M  V30 15 C 0.884322 -0.134589 -1.706296 0
M  V30 16 C 0.949789 -0.951915 -2.815661 0
M  V30 17 C -0.154969 -1.723648 -3.174393 0
M  V30 18 C -1.343497 -1.683840 -2.420531 0
M  V30 19 O -2.209377 -2.538553 -3.029720 0
M  V30 20 C -3.518212 -2.890213 -2.708745 0
M  V30 21 C -3.728134 -3.525146 -1.406589 0
M  V30 22 C -4.083189 -3.065425 -0.160648 0
M  V30 23 C -4.195115 -3.910806 0.921034 0
M  V30 24 C -3.956868 -5.265115 0.810748 0
M  V30 25 C -3.600438 -5.762361 -0.417315 0
M  V30 26 C -3.488825 -4.899872 -1.508657 0
M  V30 27 C -1.345011 -0.849257 -1.326591 0
M  V30 28 C -0.269438 -0.077814 -0.950855 0
M  V30 29 C 2.233592 0.704634 0.139970 0
M  V30 30 C 3.240710 1.468282 0.732250 0
M  V30 31 H -1.252163 0.136215 4.708806 0
M  V30 32 H -0.643200 1.795689 4.149107 0
M  V30 33 H -1.542585 1.564554 5.700150 0
M  V30 34 H 0.192498 0.019750 6.506882 0
M  V30 35 H 0.695047 1.716978 6.486564 0
M  V30 36 H 1.235523 -0.542118 4.470641 0
M  V30 37 H 2.443708 0.054584 5.613851 0
M  V30 38 H 3.590800 -0.022823 3.230480 0
M  V30 39 H 5.607866 3.554502 0.461194 0
M  V30 40 H 4.381406 2.936755 -2.043712 0
M  V30 41 H 1.906127 -0.896147 -3.306743 0
M  V30 42 H 0.105766 -2.284365 -4.062896 0
M  V30 43 H -4.012617 -3.455477 -3.531647 0
M  V30 44 H -4.095485 -1.910421 -2.697860 0
M  V30 45 H -4.256875 -2.009651 -0.168543 0
M  V30 46 H -4.484834 -3.351629 1.811290 0
M  V30 47 H -4.080436 -5.813679 1.737677 0
M  V30 48 H -3.428355 -6.819502 -0.443394 0
M  V30 49 H -3.196637 -5.468991 -2.403920 0
M  V30 50 H -2.300729 -0.902500 -0.839834 0
M  V30 51 H -0.454773 0.518560 -0.060188 0
M  V30 52 H 1.626615 0.067936 0.791541 0
M  V30 END ATOM
M  V30 BEGIN BOND
M  V30 1 1 1 2
M  V30 2 1 2 3
M  V30 3 1 3 4
M  V30 4 2 4 5
M  V30 5 1 4 6
M  V30 6 1 6 7
M  V30 7 2 7 8
M  V30 8 1 8 9
M  V30 9 1 9 10
M  V30 10 2 10 11
M  V30 11 1 11 12
M  V30 12 1 12 13
M  V30 13 2 12 14
M  V30 14 1 14 15
M  V30 15 2 15 16
M  V30 16 1 16 17
M  V30 17 2 17 18
M  V30 18 1 18 19
M  V30 19 1 19 20
M  V30 20 1 20 21
M  V30 21 2 21 22
M  V30 22 1 22 23
M  V30 23 2 23 24
M  V30 24 1 24 25
M  V30 25 2 25 26
M  V30 26 1 18 27
M  V30 27 2 27 28
M  V30 28 1 14 29
M  V30 29 2 29 30
M  V30 30 1 30 7
M  V30 31 1 30 10
M  V30 32 1 28 15
M  V30 33 1 26 21
M  V30 34 1 1 31
M  V30 35 1 1 32
M  V30 36 1 1 33
M  V30 37 1 2 34
M  V30 38 1 2 35
M  V30 39 1 3 36
M  V30 40 1 3 37
M  V30 41 1 6 38
M  V30 42 1 9 39
M  V30 43 1 11 40
M  V30 44 1 16 41
M  V30 45 1 17 42
M  V30 46 1 20 43
M  V30 47 1 20 44
M  V30 48 1 22 45
M  V30 49 1 23 46
M  V30 50 1 24 47
M  V30 51 1 25 48
M  V30 52 1 26 49
M  V30 53 1 27 50
M  V30 54 1 28 51
M  V30 55 1 29 52
M  V30 END BOND
M  V30 END CTAB
M  END
>  <Dataset>  (635) 
ChEMBL_Kinases

>  <Ligand_Instance>  (635) 
nan

>  <PDB_ID>  (635) 
nan

>  <Standardized_SMILES>  (635) 
CCCC(=O)Nc1n[nH]c2cc(Cl)c(-c3ccc(OCc4ccccc4)cc3)cc12

>  <Name>  (635) 
nan

>  <Pocket>  (635) 
nan

>  <ATP_Site>  (635) 
nan

>  <Peripheral>  (635) 
nan

>  <Num_H_Atoms_ProtBoundConf>  (635) 
nan

>  <Num_Resolved_Atoms>  (635) 
nan

>  <Num_Not_Resolved_Atoms>  (635) 
nan

$$$$
CHEMBL1085920
     RDKit          3D

  0  0  0  0  0  0  0  0  0  0999 V3000
M  V30 BEGIN CTAB
M  V30 COUNTS 38 40 0 0 0
M  V30 BEGIN ATOM
M  V30 1 C -0.904639 -6.897178 0.730727 0
M  V30 2 C 0.205452 -6.701920 1.741323 0
M  V30 3 C 0.129892 -5.276185 2.237146 0
M  V30 4 C 0.305496 -4.362317 1.084183 0
M  V30 5 O 0.491329 -4.569027 -0.130493 0
M  V30 6 N 0.254321 -2.980199 1.413861 0
M  V30 7 C 0.411434 -2.010443 0.383528 0
M  V30 8 N 0.613904 -2.182169 -0.933887 0
M  V30 9 N 0.711583 -1.034711 -1.574463 0
M  V30 10 C 0.578241 -0.004545 -0.710477 0
M  V30 11 C 0.587551 1.376906 -0.776458 0
M  V30 12 C 0.408988 2.114516 0.383142 0
M  V30 13 C 0.431577 3.567559 0.232892 0
M  V30 14 C -0.367778 4.254044 1.135802 0
M  V30 15 C -0.431009 5.633743 1.094958 0
M  V30 16 C 0.334910 6.263064 0.120826 0
M  V30 17 O 0.247336 7.646212 0.108964 0
M  V30 18 N 1.111985 5.601834 -0.757357 0
M  V30 19 C 1.174686 4.244169 -0.717773 0
M  V30 20 C 0.220208 1.520738 1.614481 0
M  V30 21 C 0.214610 0.136826 1.656046 0
M  V30 22 C 0.392155 -0.636427 0.503291 0
M  V30 23 H -0.482878 -6.687976 -0.268626 0
M  V30 24 H -1.713223 -6.168720 0.950016 0
M  V30 25 H -1.274713 -7.939691 0.826085 0
M  V30 26 H 0.059699 -7.425443 2.571698 0
M  V30 27 H 1.189611 -6.838373 1.236380 0
M  V30 28 H 0.893468 -5.084006 3.029043 0
M  V30 29 H -0.855940 -5.154017 2.746694 0
M  V30 30 H 0.105636 -2.629649 2.385411 0
M  V30 31 H 0.869628 -0.904716 -2.603800 0
M  V30 32 H 0.736900 1.806186 -1.751205 0
M  V30 33 H -0.963567 3.752950 1.894472 0
M  V30 34 H -1.048990 6.194134 1.790617 0
M  V30 35 H 0.916584 8.157058 0.673163 0
M  V30 36 H 1.773592 3.628911 -1.385460 0
M  V30 37 H 0.081411 2.116340 2.518174 0
M  V30 38 H 0.065272 -0.348615 2.629256 0
M  V30 END ATOM
M  V30 BEGIN BOND
M  V30 1 1 1 2
M  V30 2 1 2 3
M  V30 3 1 3 4
M  V30 4 2 4 5
M  V30 5 1 4 6
M  V30 6 1 6 7
M  V30 7 2 7 8
M  V30 8 1 8 9
M  V30 9 1 9 10
M  V30 10 2 10 11
M  V30 11 1 11 12
M  V30 12 1 12 13
M  V30 13 2 13 14
M  V30 14 1 14 15
M  V30 15 2 15 16
M  V30 16 1 16 17
M  V30 17 1 16 18
M  V30 18 2 18 19
M  V30 19 2 12 20
M  V30 20 1 20 21
M  V30 21 2 21 22
M  V30 22 1 22 7
M  V30 23 1 22 10
M  V30 24 1 19 13
M  V30 25 1 1 23
M  V30 26 1 1 24
M  V30 27 1 1 25
M  V30 28 1 2 26
M  V30 29 1 2 27
M  V30 30 1 3 28
M  V30 31 1 3 29
M  V30 32 1 6 30
M  V30 33 1 9 31
M  V30 34 1 11 32
M  V30 35 1 14 33
M  V30 36 1 15 34
M  V30 37 1 17 35
M  V30 38 1 19 36
M  V30 39 1 20 37
M  V30 40 1 21 38
M  V30 END BOND
M  V30 END CTAB
M  END
>  <Dataset>  (636) 
ChEMBL_Kinases

>  <Ligand_Instance>  (636) 
nan

>  <PDB_ID>  (636) 
nan

>  <Standardized_SMILES>  (636) 
CCCC(=O)Nc1n[nH]c2cc(-c3ccc(O)nc3)ccc12

>  <Name>  (636) 
nan

>  <Pocket>  (636) 
nan

>  <ATP_Site>  (636) 
nan

>  <Peripheral>  (636) 
nan

>  <Num_H_Atoms_ProtBoundConf>  (636) 
nan

>  <Num_Resolved_Atoms>  (636) 
nan

>  <Num_Not_Resolved_Atoms>  (636) 
nan

$$$$
CHEMBL1085918
     RDKit          3D

  0  0  0  0  0  0  0  0  0  0999 V3000
M  V30 BEGIN CTAB
M  V30 COUNTS 37 39 0 0 0
M  V30 BEGIN ATOM
M  V30 1 C 1.859582 -4.548168 4.351119 0
M  V30 2 C 1.062409 -5.192351 3.240145 0
M  V30 3 C 1.633794 -4.878001 1.881393 0
M  V30 4 C 1.646715 -3.418002 1.616671 0
M  V30 5 O 1.240012 -2.508842 2.394975 0
M  V30 6 N 2.149562 -2.902045 0.390212 0
M  V30 7 C 2.047404 -1.460015 0.391371 0
M  V30 8 N 3.053291 -0.667710 0.861000 0
M  V30 9 N 2.700444 0.604924 0.746506 0
M  V30 10 C 1.469606 0.688049 0.205911 0
M  V30 11 C 0.617029 1.723874 -0.136928 0
M  V30 12 C -0.630330 1.452773 -0.696386 0
M  V30 13 C -1.512059 2.579228 -1.049520 0
M  V30 14 C -2.412772 2.553350 -2.097724 0
M  V30 15 C -3.189349 3.696192 -2.320648 0
M  V30 16 C -3.028463 4.782239 -1.501364 0
M  V30 17 N -2.159099 4.809872 -0.487975 0
M  V30 18 C -1.394992 3.718825 -0.249139 0
M  V30 19 C -1.010227 0.137527 -0.906659 0
M  V30 20 C -0.185031 -0.932971 -0.577035 0
M  V30 21 C 1.037582 -0.605402 -0.026637 0
M  V30 22 H 2.892563 -4.305226 4.043205 0
M  V30 23 H 1.381781 -3.587763 4.674077 0
M  V30 24 H 1.930135 -5.195754 5.249222 0
M  V30 25 H 1.131356 -6.293305 3.387803 0
M  V30 26 H -0.015139 -4.928474 3.328652 0
M  V30 27 H 0.968673 -5.344495 1.130306 0
M  V30 28 H 2.661957 -5.249718 1.847634 0
M  V30 29 H 2.517442 -3.549662 -0.342345 0
M  V30 30 H 3.301967 1.416348 1.038664 0
M  V30 31 H 0.974450 2.720727 0.053087 0
M  V30 32 H -2.475677 1.658343 -2.692230 0
M  V30 33 H -3.896823 3.673422 -3.145946 0
M  V30 34 H -3.626145 5.678311 -1.663902 0
M  V30 35 H -0.695658 3.769040 0.583266 0
M  V30 36 H -1.987311 -0.087017 -1.345393 0
M  V30 37 H -0.461029 -1.964543 -0.732416 0
M  V30 END ATOM
M  V30 BEGIN BOND
M  V30 1 1 1 2
M  V30 2 1 2 3
M  V30 3 1 3 4
M  V30 4 2 4 5
M  V30 5 1 4 6
M  V30 6 1 6 7
M  V30 7 2 7 8
M  V30 8 1 8 9
M  V30 9 1 9 10
M  V30 10 2 10 11
M  V30 11 1 11 12
M  V30 12 1 12 13
M  V30 13 2 13 14
M  V30 14 1 14 15
M  V30 15 2 15 16
M  V30 16 1 16 17
M  V30 17 2 17 18
M  V30 18 2 12 19
M  V30 19 1 19 20
M  V30 20 2 20 21
M  V30 21 1 21 7
M  V30 22 1 21 10
M  V30 23 1 18 13
M  V30 24 1 1 22
M  V30 25 1 1 23
M  V30 26 1 1 24
M  V30 27 1 2 25
M  V30 28 1 2 26
M  V30 29 1 3 27
M  V30 30 1 3 28
M  V30 31 1 6 29
M  V30 32 1 9 30
M  V30 33 1 11 31
M  V30 34 1 14 32
M  V30 35 1 15 33
M  V30 36 1 16 34
M  V30 37 1 18 35
M  V30 38 1 19 36
M  V30 39 1 20 37
M  V30 END BOND
M  V30 END CTAB
M  END
>  <Dataset>  (637) 
ChEMBL_Kinases

>  <Ligand_Instance>  (637) 
nan

>  <PDB_ID>  (637) 
nan

>  <Standardized_SMILES>  (637) 
CCCC(=O)Nc1n[nH]c2cc(-c3cccnc3)ccc12

>  <Name>  (637) 
nan

>  <Pocket>  (637) 
nan

>  <ATP_Site>  (637) 
nan

>  <Peripheral>  (637) 
nan

>  <Num_H_Atoms_ProtBoundConf>  (637) 
nan

>  <Num_Resolved_Atoms>  (637) 
nan

>  <Num_Not_Resolved_Atoms>  (637) 
nan

$$$$
CHEMBL1085848
     RDKit          3D

  0  0  0  0  0  0  0  0  0  0999 V3000
M  V30 BEGIN CTAB
M  V30 COUNTS 67 72 0 0 0
M  V30 BEGIN ATOM
M  V30 1 O 5.826131 -0.179657 3.180045 0
M  V30 2 C 4.785168 0.560650 3.271320 0
M  V30 3 C 4.852324 1.536464 2.165759 0
M  V30 4 N 3.741807 2.434893 2.102535 0
M  V30 5 C 4.002568 3.402219 1.052337 0
M  V30 6 C 2.760742 4.153527 0.624625 0
M  V30 7 N 1.737275 3.235088 0.191410 0
M  V30 8 C 0.468491 3.623291 -0.292988 0
M  V30 9 C 0.061735 4.929140 -0.403166 0
M  V30 10 Cl 1.078118 6.271008 0.059421 0
M  V30 11 C -1.165625 5.335140 -0.876854 0
M  V30 12 N -2.065447 4.401411 -1.273248 0
M  V30 13 C -1.724675 3.099344 -1.189146 0
M  V30 14 N -2.466419 2.030777 -1.527800 0
M  V30 15 C -1.717443 0.948910 -1.271633 0
M  V30 16 C -2.083993 -0.451707 -1.474885 0
M  V30 17 C -3.336514 -0.706612 -1.995428 0
M  V30 18 C -3.757668 -2.014951 -2.214853 0
M  V30 19 C -2.888167 -3.038127 -1.897028 0
M  V30 20 C -3.117526 -4.491314 -2.037880 0
M  V30 21 N -3.655822 -5.156369 -0.921817 0
M  V30 22 C -4.926383 -4.771902 -0.433371 0
M  V30 23 C -5.919742 -5.768323 -1.050520 0
M  V30 24 O -5.549574 -7.046364 -0.648075 0
M  V30 25 C -4.327752 -7.399928 -1.179886 0
M  V30 26 C -3.220408 -6.475250 -0.650243 0
M  V30 27 C -1.625803 -2.747558 -1.371287 0
M  V30 28 C -1.193173 -1.454086 -1.147766 0
M  V30 29 N -0.547591 1.389595 -0.787160 0
M  V30 30 C -0.488566 2.725974 -0.710746 0
M  V30 31 C 2.227298 1.898558 0.336518 0
M  V30 32 C 2.522723 1.683799 1.818330 0
M  V30 33 N 3.887015 0.281980 4.337337 0
M  V30 34 C 4.306208 -0.810913 5.149455 0
M  V30 35 N 4.965385 -0.957868 6.117313 0
M  V30 36 C 5.216004 -2.119249 6.702324 0
M  V30 37 C 4.655046 -3.310031 6.136746 0
M  V30 38 S 3.728530 -2.546617 4.666996 0
M  V30 39 H 5.808528 2.111539 2.201340 0
M  V30 40 H 4.882457 0.981040 1.199933 0
M  V30 41 H 4.639944 3.054898 0.241649 0
M  V30 42 H 4.633936 4.194925 1.573568 0
M  V30 43 H 3.085507 4.836306 -0.196348 0
M  V30 44 H 2.405226 4.730949 1.505415 0
M  V30 45 H -1.500969 6.350518 -0.970442 0
M  V30 46 H -3.433952 2.031080 -1.914094 0
M  V30 47 H -4.065872 0.049799 -2.265690 0
M  V30 48 H -4.712639 -2.314539 -2.619002 0
M  V30 49 H -2.187711 -5.036446 -2.332766 0
M  V30 50 H -3.816546 -4.709555 -2.901872 0
M  V30 51 H -5.206348 -3.788062 -0.817652 0
M  V30 52 H -5.038563 -4.801178 0.682313 0
M  V30 53 H -6.944148 -5.527630 -0.730448 0
M  V30 54 H -5.810931 -5.622423 -2.161686 0
M  V30 55 H -4.097555 -8.448280 -0.934809 0
M  V30 56 H -4.368353 -7.214370 -2.276502 0
M  V30 57 H -2.988649 -6.664720 0.408546 0
M  V30 58 H -2.296085 -6.668040 -1.232549 0
M  V30 59 H -0.877642 -3.502995 -1.093608 0
M  V30 60 H -0.220872 -1.214882 -0.741933 0
M  V30 61 H 3.225567 1.727592 -0.172313 0
M  V30 62 H 1.599893 1.099313 -0.071246 0
M  V30 63 H 1.738954 2.099760 2.478849 0
M  V30 64 H 2.625619 0.603054 2.043889 0
M  V30 65 H 3.091645 0.944238 4.318760 0
M  V30 66 H 5.855385 -2.033521 7.595923 0
M  V30 67 H 4.940660 -4.263526 6.730855 0
M  V30 END ATOM
M  V30 BEGIN BOND
M  V30 1 2 1 2
M  V30 2 1 2 3
M  V30 3 1 3 4
M  V30 4 1 4 5
M  V30 5 1 5 6
M  V30 6 1 6 7
M  V30 7 1 7 8
M  V30 8 2 8 9
M  V30 9 1 9 10
M  V30 10 1 9 11
M  V30 11 2 11 12
M  V30 12 1 12 13
M  V30 13 1 13 14
M  V30 14 1 14 15
M  V30 15 1 15 16
M  V30 16 2 16 17
M  V30 17 1 17 18
M  V30 18 2 18 19
M  V30 19 1 19 20
M  V30 20 1 20 21
M  V30 21 1 21 22
M  V30 22 1 22 23
M  V30 23 1 23 24
M  V30 24 1 24 25
M  V30 25 1 25 26
M  V30 26 1 19 27
M  V30 27 2 27 28
M  V30 28 2 15 29
M  V30 29 1 29 30
M  V30 30 1 7 31
M  V30 31 1 31 32
M  V30 32 1 2 33
M  V30 33 1 33 34
M  V30 34 2 34 35
M  V30 35 1 35 36
M  V30 36 2 36 37
M  V30 37 1 37 38
M  V30 38 1 32 4
M  V30 39 1 38 34
M  V30 40 1 30 8
M  V30 41 2 30 13
M  V30 42 1 28 16
M  V30 43 1 26 21
M  V30 44 1 3 39
M  V30 45 1 3 40
M  V30 46 1 5 41
M  V30 47 1 5 42
M  V30 48 1 6 43
M  V30 49 1 6 44
M  V30 50 1 11 45
M  V30 51 1 14 46
M  V30 52 1 17 47
M  V30 53 1 18 48
M  V30 54 1 20 49
M  V30 55 1 20 50
M  V30 56 1 22 51
M  V30 57 1 22 52
M  V30 58 1 23 53
M  V30 59 1 23 54
M  V30 60 1 25 55
M  V30 61 1 25 56
M  V30 62 1 26 57
M  V30 63 1 26 58
M  V30 64 1 27 59
M  V30 65 1 28 60
M  V30 66 1 31 61
M  V30 67 1 31 62
M  V30 68 1 32 63
M  V30 69 1 32 64
M  V30 70 1 33 65
M  V30 71 1 36 66
M  V30 72 1 37 67
M  V30 END BOND
M  V30 END CTAB
M  END
>  <Dataset>  (638) 
ChEMBL_Kinases

>  <Ligand_Instance>  (638) 
nan

>  <PDB_ID>  (638) 
nan

>  <Standardized_SMILES>  (638) 
O=C(CN1CCN(c2c(Cl)cnc3[nH]c(-c4ccc(CN5CCOCC5)cc4)nc23)CC1)Nc1nccs1

>  <Name>  (638) 
nan

>  <Pocket>  (638) 
nan

>  <ATP_Site>  (638) 
nan

>  <Peripheral>  (638) 
nan

>  <Num_H_Atoms_ProtBoundConf>  (638) 
nan

>  <Num_Resolved_Atoms>  (638) 
nan

>  <Num_Not_Resolved_Atoms>  (638) 
nan

$$$$
CHEMBL1085833
     RDKit          3D

  0  0  0  0  0  0  0  0  0  0999 V3000
M  V30 BEGIN CTAB
M  V30 COUNTS 61 65 0 0 0
M  V30 BEGIN ATOM
M  V30 1 C 5.502488 -3.375336 1.158135 0
M  V30 2 C 4.423234 -2.939662 2.091050 0
M  V30 3 C 4.493131 -1.987080 3.083600 0
M  V30 4 C 3.267171 -1.895365 3.710477 0
M  V30 5 C 2.777327 -1.055646 4.823103 0
M  V30 6 N 2.218352 0.185093 4.422139 0
M  V30 7 C 3.128361 1.022520 3.719629 0
M  V30 8 C 2.413950 2.176160 3.005795 0
M  V30 9 N 1.360850 1.709002 2.133370 0
M  V30 10 C 0.545218 2.523447 1.319608 0
M  V30 11 C 0.660490 3.879012 1.252403 0
M  V30 12 Br 1.929799 4.857983 2.233806 0
M  V30 13 C -0.133988 4.683296 0.462850 0
M  V30 14 N -1.099719 4.123551 -0.307081 0
M  V30 15 C -1.243118 2.790119 -0.266985 0
M  V30 16 N -2.126430 2.047854 -0.941387 0
M  V30 17 C -1.925737 0.761770 -0.607224 0
M  V30 18 C -2.656568 -0.404137 -1.096583 0
M  V30 19 C -3.669598 -0.172341 -2.004885 0
M  V30 20 C -4.381357 -1.278218 -2.485141 0
M  V30 21 C -4.049586 -2.542110 -2.039799 0
M  V30 22 C -4.696096 -3.814224 -2.442746 0
M  V30 23 N -4.089473 -4.424562 -3.581304 0
M  V30 24 C -2.708511 -4.757553 -3.403133 0
M  V30 25 C -4.305959 -3.767029 -4.832231 0
M  V30 26 C -3.027307 -2.720559 -1.130109 0
M  V30 27 C -2.303261 -1.655945 -0.634052 0
M  V30 28 N -0.927835 0.785461 0.255985 0
M  V30 29 C -0.445408 1.990877 0.524750 0
M  V30 30 C 1.289377 0.272178 2.238186 0
M  V30 31 C 0.959194 -0.004389 3.693025 0
M  V30 32 N 2.494596 -2.808225 3.063442 0
M  V30 33 O 3.198187 -3.386797 2.139034 0
M  V30 34 H 6.248762 -2.570743 0.984489 0
M  V30 35 H 6.026486 -4.286259 1.557046 0
M  V30 36 H 5.063075 -3.592347 0.146501 0
M  V30 37 H 5.335636 -1.392490 3.358805 0
M  V30 38 H 2.013821 -1.636595 5.388092 0
M  V30 39 H 3.611878 -0.861913 5.519332 0
M  V30 40 H 3.870262 0.537411 3.086116 0
M  V30 41 H 3.747455 1.562864 4.506367 0
M  V30 42 H 3.252426 2.679427 2.466143 0
M  V30 43 H 1.977557 2.823036 3.793567 0
M  V30 44 H -0.074558 5.761104 0.381408 0
M  V30 45 H -2.862316 2.380419 -1.621510 0
M  V30 46 H -3.945617 0.805474 -2.366219 0
M  V30 47 H -5.191918 -1.220706 -3.195970 0
M  V30 48 H -5.751419 -3.571232 -2.712552 0
M  V30 49 H -4.748188 -4.537229 -1.622046 0
M  V30 50 H -2.111603 -3.813936 -3.300722 0
M  V30 51 H -2.532969 -5.358854 -2.496197 0
M  V30 52 H -2.364604 -5.273685 -4.326648 0
M  V30 53 H -5.384802 -3.697794 -5.071409 0
M  V30 54 H -3.856781 -4.407528 -5.618602 0
M  V30 55 H -3.765199 -2.800134 -4.873941 0
M  V30 56 H -2.707311 -3.694532 -0.731076 0
M  V30 57 H -1.496464 -1.738059 0.076577 0
M  V30 58 H 0.640503 -0.237868 1.543087 0
M  V30 59 H 2.321236 -0.138851 2.012507 0
M  V30 60 H 0.283509 0.775441 4.116080 0
M  V30 61 H 0.501551 -0.974180 3.878476 0
M  V30 END ATOM
M  V30 BEGIN BOND
M  V30 1 1 1 2
M  V30 2 2 2 3
M  V30 3 1 3 4
M  V30 4 1 4 5
M  V30 5 1 5 6
M  V30 6 1 6 7
M  V30 7 1 7 8
M  V30 8 1 8 9
M  V30 9 1 9 10
M  V30 10 2 10 11
M  V30 11 1 11 12
M  V30 12 1 11 13
M  V30 13 2 13 14
M  V30 14 1 14 15
M  V30 15 1 15 16
M  V30 16 1 16 17
M  V30 17 1 17 18
M  V30 18 2 18 19
M  V30 19 1 19 20
M  V30 20 2 20 21
M  V30 21 1 21 22
M  V30 22 1 22 23
M  V30 23 1 23 24
M  V30 24 1 23 25
M  V30 25 1 21 26
M  V30 26 2 26 27
M  V30 27 2 17 28
M  V30 28 1 28 29
M  V30 29 1 9 30
M  V30 30 1 30 31
M  V30 31 2 4 32
M  V30 32 1 32 33
M  V30 33 1 33 2
M  V30 34 1 31 6
M  V30 35 1 29 10
M  V30 36 2 29 15
M  V30 37 1 27 18
M  V30 38 1 1 34
M  V30 39 1 1 35
M  V30 40 1 1 36
M  V30 41 1 3 37
M  V30 42 1 5 38
M  V30 43 1 5 39
M  V30 44 1 7 40
M  V30 45 1 7 41
M  V30 46 1 8 42
M  V30 47 1 8 43
M  V30 48 1 13 44
M  V30 49 1 16 45
M  V30 50 1 19 46
M  V30 51 1 20 47
M  V30 52 1 22 48
M  V30 53 1 22 49
M  V30 54 1 24 50
M  V30 55 1 24 51
M  V30 56 1 24 52
M  V30 57 1 25 53
M  V30 58 1 25 54
M  V30 59 1 25 55
M  V30 60 1 26 56
M  V30 61 1 27 57
M  V30 62 1 30 58
M  V30 63 1 30 59
M  V30 64 1 31 60
M  V30 65 1 31 61
M  V30 END BOND
M  V30 END CTAB
M  END
>  <Dataset>  (639) 
ChEMBL_Kinases

>  <Ligand_Instance>  (639) 
nan

>  <PDB_ID>  (639) 
nan

>  <Standardized_SMILES>  (639) 
Cc1cc(CN2CCN(c3c(Br)cnc4[nH]c(-c5ccc(CN(C)C)cc5)nc34)CC2)no1

>  <Name>  (639) 
nan

>  <Pocket>  (639) 
nan

>  <ATP_Site>  (639) 
nan

>  <Peripheral>  (639) 
nan

>  <Num_H_Atoms_ProtBoundConf>  (639) 
nan

>  <Num_Resolved_Atoms>  (639) 
nan

>  <Num_Not_Resolved_Atoms>  (639) 
nan

$$$$
CHEMBL1085765
     RDKit          3D

  0  0  0  0  0  0  0  0  0  0999 V3000
M  V30 BEGIN CTAB
M  V30 COUNTS 55 58 0 0 0
M  V30 BEGIN ATOM
M  V30 1 C 1.261953 -2.205550 5.161602 0
M  V30 2 C 2.061000 -1.461360 4.133593 0
M  V30 3 C 2.678747 -0.271203 4.472033 0
M  V30 4 C 3.416515 0.422338 3.534884 0
M  V30 5 C 3.530238 -0.085619 2.257265 0
M  V30 6 C 2.933234 -1.267405 1.871927 0
M  V30 7 C 3.026364 -1.856897 0.504656 0
M  V30 8 N 1.951950 -1.360550 -0.274864 0
M  V30 9 C 1.941970 0.075135 -0.419739 0
M  V30 10 C 1.055250 0.361287 -1.625075 0
M  V30 11 N -0.150147 -0.370328 -1.580779 0
M  V30 12 C -0.979520 -0.351731 -0.446322 0
M  V30 13 C -1.596125 0.924023 -0.045208 0
M  V30 14 C -1.028767 2.159047 0.150464 0
M  V30 15 C -1.693671 3.305354 0.518332 0
M  V30 16 C -3.056511 3.237791 0.716296 0
M  V30 17 C -3.719374 2.065406 0.550466 0
M  V30 18 C -2.984165 0.973594 0.183901 0
M  V30 19 C -2.100527 -1.313170 -0.791112 0
M  V30 20 C -2.642680 -1.187324 -2.066579 0
M  V30 21 C -3.672416 -2.043020 -2.434868 0
M  V30 22 C -4.125248 -2.982727 -1.539607 0
M  V30 23 Cl -5.425035 -4.107118 -1.921415 0
M  V30 24 C -3.590303 -3.120335 -0.255885 0
M  V30 25 C -2.569726 -2.251529 0.070260 0
M  V30 26 C 0.188373 -1.767514 -1.905396 0
M  V30 27 C 1.597057 -2.088840 -1.441318 0
M  V30 28 C 2.204739 -1.927987 2.842026 0
M  V30 29 H 1.499324 -1.780235 6.155667 0
M  V30 30 H 1.562084 -3.275542 5.087276 0
M  V30 31 H 0.165036 -2.116205 4.938418 0
M  V30 32 H 2.580190 0.119132 5.487325 0
M  V30 33 H 3.911782 1.357903 3.772044 0
M  V30 34 H 4.103099 0.452738 1.529771 0
M  V30 35 H 3.988899 -1.483684 0.074966 0
M  V30 36 H 3.031007 -2.944365 0.551520 0
M  V30 37 H 1.579207 0.490173 0.516425 0
M  V30 38 H 2.976458 0.408185 -0.587150 0
M  V30 39 H 1.659718 -0.110324 -2.476335 0
M  V30 40 H 1.018815 1.407348 -1.924726 0
M  V30 41 H -0.501031 -0.742082 0.485363 0
M  V30 42 H 0.036808 2.228325 0.009553 0
M  V30 43 H -1.133180 4.221882 0.641363 0
M  V30 44 H -3.535769 4.162038 1.003987 0
M  V30 45 H -4.786406 1.993991 0.701396 0
M  V30 46 H -3.560789 0.040698 0.059901 0
M  V30 47 H -2.302326 -0.447149 -2.802973 0
M  V30 48 H -4.134731 -1.990800 -3.419124 0
M  V30 49 H -3.932154 -3.851017 0.459776 0
M  V30 50 H -2.077820 -2.261352 1.031760 0
M  V30 51 H -0.554240 -2.487133 -1.576698 0
M  V30 52 H 0.212999 -1.797361 -3.026318 0
M  V30 53 H 1.574659 -3.163231 -1.162865 0
M  V30 54 H 2.342223 -2.020011 -2.264783 0
M  V30 55 H 1.708047 -2.856624 2.622166 0
M  V30 END ATOM
M  V30 BEGIN BOND
M  V30 1 1 1 2
M  V30 2 2 2 3
M  V30 3 1 3 4
M  V30 4 2 4 5
M  V30 5 1 5 6
M  V30 6 1 6 7
M  V30 7 1 7 8
M  V30 8 1 8 9
M  V30 9 1 9 10
M  V30 10 1 10 11
M  V30 11 1 11 12
M  V30 12 1 12 13
M  V30 13 2 13 14
M  V30 14 1 14 15
M  V30 15 2 15 16
M  V30 16 1 16 17
M  V30 17 2 17 18
M  V30 18 1 12 19
M  V30 19 2 19 20
M  V30 20 1 20 21
M  V30 21 2 21 22
M  V30 22 1 22 23
M  V30 23 1 22 24
M  V30 24 2 24 25
M  V30 25 1 11 26
M  V30 26 1 26 27
M  V30 27 2 6 28
M  V30 28 1 28 2
M  V30 29 1 27 8
M  V30 30 1 18 13
M  V30 31 1 25 19
M  V30 32 1 1 29
M  V30 33 1 1 30
M  V30 34 1 1 31
M  V30 35 1 3 32
M  V30 36 1 4 33
M  V30 37 1 5 34
M  V30 38 1 7 35
M  V30 39 1 7 36
M  V30 40 1 9 37
M  V30 41 1 9 38
M  V30 42 1 10 39
M  V30 43 1 10 40
M  V30 44 1 12 41
M  V30 45 1 14 42
M  V30 46 1 15 43
M  V30 47 1 16 44
M  V30 48 1 17 45
M  V30 49 1 18 46
M  V30 50 1 20 47
M  V30 51 1 21 48
M  V30 52 1 24 49
M  V30 53 1 25 50
M  V30 54 1 26 51
M  V30 55 1 26 52
M  V30 56 1 27 53
M  V30 57 1 27 54
M  V30 58 1 28 55
M  V30 END BOND
M  V30 END CTAB
M  END
>  <Dataset>  (640) 
ChEMBL_Kinases

>  <Ligand_Instance>  (640) 
nan

>  <PDB_ID>  (640) 
nan

>  <Standardized_SMILES>  (640) 
Cc1cccc(CN2CCN(C(c3ccccc3)c3ccc(Cl)cc3)CC2)c1

>  <Name>  (640) 
MECLIZINE DIHCL

>  <Pocket>  (640) 
nan

>  <ATP_Site>  (640) 
nan

>  <Peripheral>  (640) 
nan

>  <Num_H_Atoms_ProtBoundConf>  (640) 
nan

>  <Num_Resolved_Atoms>  (640) 
nan

>  <Num_Not_Resolved_Atoms>  (640) 
nan

$$$$
CHEMBL1085607
     RDKit          3D

  0  0  0  0  0  0  0  0  0  0999 V3000
M  V30 BEGIN CTAB
M  V30 COUNTS 67 72 0 0 0
M  V30 BEGIN ATOM
M  V30 1 C 2.638441 -3.647428 2.890110 0
M  V30 2 C 3.386660 -2.490600 2.332051 0
M  V30 3 C 3.132984 -1.825703 1.143317 0
M  V30 4 C 4.072043 -0.822952 1.028503 0
M  V30 5 C 4.219019 0.151850 -0.055375 0
M  V30 6 N 3.461447 1.364970 0.169079 0
M  V30 7 C 3.834873 2.063737 1.357883 0
M  V30 8 C 2.727323 3.021273 1.739475 0
M  V30 9 N 2.097652 3.592936 0.542187 0
M  V30 10 C 0.729340 3.960454 0.685716 0
M  V30 11 C 0.374130 5.227357 1.102229 0
M  V30 12 Br 1.784056 6.460784 1.475570 0
M  V30 13 C -0.956501 5.595055 1.245495 0
M  V30 14 N -1.887971 4.660646 0.960022 0
M  V30 15 C -1.528835 3.418530 0.551458 0
M  V30 16 N -2.331997 2.385516 0.232204 0
M  V30 17 C -1.560584 1.320117 -0.126385 0
M  V30 18 C -1.995901 -0.009175 -0.547648 0
M  V30 19 C -1.123787 -1.021777 -0.892055 0
M  V30 20 C -1.629573 -2.246252 -1.277245 0
M  V30 21 C -2.981582 -2.541025 -1.345253 0
M  V30 22 C -3.451055 -3.873375 -1.772145 0
M  V30 23 N -3.580152 -4.842815 -0.736443 0
M  V30 24 C -2.317194 -5.097375 -0.074994 0
M  V30 25 C -2.424874 -6.443684 0.614406 0
M  V30 26 N -3.534359 -6.376478 1.541854 0
M  V30 27 C -4.087723 -5.060340 1.648276 0
M  V30 28 C -4.551156 -4.580495 0.272186 0
M  V30 29 C -3.797211 -1.488217 -0.989275 0
M  V30 30 C -3.364501 -0.241198 -0.595277 0
M  V30 31 N -0.260298 1.723057 -0.019922 0
M  V30 32 C -0.221565 3.003375 0.393315 0
M  V30 33 C 3.099205 3.625170 -0.506503 0
M  V30 34 C 3.463926 2.229200 -0.966117 0
M  V30 35 N 4.846997 -0.916463 2.134224 0
M  V30 36 O 4.423496 -1.897465 2.875218 0
M  V30 37 H 1.610815 -3.694325 2.472401 0
M  V30 38 H 3.182041 -4.602020 2.790100 0
M  V30 39 H 2.512318 -3.466807 3.991561 0
M  V30 40 H 2.335492 -2.066703 0.444540 0
M  V30 41 H 5.275441 0.465170 -0.196799 0
M  V30 42 H 3.889972 -0.250398 -1.042067 0
M  V30 43 H 4.020694 1.415816 2.225196 0
M  V30 44 H 4.769425 2.608423 1.139327 0
M  V30 45 H 3.157449 3.890143 2.301688 0
M  V30 46 H 1.970421 2.568352 2.409116 0
M  V30 47 H -1.205131 6.595045 1.573950 0
M  V30 48 H -3.355948 2.372979 0.246963 0
M  V30 49 H -0.062039 -0.809475 -0.844829 0
M  V30 50 H -0.865330 -2.965018 -1.525865 0
M  V30 51 H -4.368991 -3.728210 -2.369633 0
M  V30 52 H -2.697075 -4.246662 -2.518301 0
M  V30 53 H -1.538376 -5.170296 -0.887834 0
M  V30 54 H -2.045132 -4.313827 0.629221 0
M  V30 55 H -2.690590 -7.232411 -0.122030 0
M  V30 56 H -1.494342 -6.755929 1.113916 0
M  V30 57 H -3.339938 -6.802930 2.452324 0
M  V30 58 H -3.431627 -4.318403 2.145502 0
M  V30 59 H -5.008278 -5.144465 2.273315 0
M  V30 60 H -5.509418 -5.102420 0.069990 0
M  V30 61 H -4.801041 -3.511633 0.417274 0
M  V30 62 H -4.868991 -1.624093 -1.017275 0
M  V30 63 H -4.068094 0.540236 -0.328967 0
M  V30 64 H 3.972422 4.194605 -0.157224 0
M  V30 65 H 2.750342 4.154636 -1.421909 0
M  V30 66 H 4.456326 2.267995 -1.458207 0
M  V30 67 H 2.753171 1.851197 -1.730812 0
M  V30 END ATOM
M  V30 BEGIN BOND
M  V30 1 1 1 2
M  V30 2 2 2 3
M  V30 3 1 3 4
M  V30 4 1 4 5
M  V30 5 1 5 6
M  V30 6 1 6 7
M  V30 7 1 7 8
M  V30 8 1 8 9
M  V30 9 1 9 10
M  V30 10 2 10 11
M  V30 11 1 11 12
M  V30 12 1 11 13
M  V30 13 2 13 14
M  V30 14 1 14 15
M  V30 15 1 15 16
M  V30 16 1 16 17
M  V30 17 1 17 18
M  V30 18 2 18 19
M  V30 19 1 19 20
M  V30 20 2 20 21
M  V30 21 1 21 22
M  V30 22 1 22 23
M  V30 23 1 23 24
M  V30 24 1 24 25
M  V30 25 1 25 26
M  V30 26 1 26 27
M  V30 27 1 27 28
M  V30 28 1 21 29
M  V30 29 2 29 30
M  V30 30 2 17 31
M  V30 31 1 31 32
M  V30 32 1 9 33
M  V30 33 1 33 34
M  V30 34 2 4 35
M  V30 35 1 35 36
M  V30 36 1 36 2
M  V30 37 1 34 6
M  V30 38 1 32 10
M  V30 39 2 32 15
M  V30 40 1 30 18
M  V30 41 1 28 23
M  V30 42 1 1 37
M  V30 43 1 1 38
M  V30 44 1 1 39
M  V30 45 1 3 40
M  V30 46 1 5 41
M  V30 47 1 5 42
M  V30 48 1 7 43
M  V30 49 1 7 44
M  V30 50 1 8 45
M  V30 51 1 8 46
M  V30 52 1 13 47
M  V30 53 1 16 48
M  V30 54 1 19 49
M  V30 55 1 20 50
M  V30 56 1 22 51
M  V30 57 1 22 52
M  V30 58 1 24 53
M  V30 59 1 24 54
M  V30 60 1 25 55
M  V30 61 1 25 56
M  V30 62 1 26 57
M  V30 63 1 27 58
M  V30 64 1 27 59
M  V30 65 1 28 60
M  V30 66 1 28 61
M  V30 67 1 29 62
M  V30 68 1 30 63
M  V30 69 1 33 64
M  V30 70 1 33 65
M  V30 71 1 34 66
M  V30 72 1 34 67
M  V30 END BOND
M  V30 END CTAB
M  END
>  <Dataset>  (641) 
ChEMBL_Kinases

>  <Ligand_Instance>  (641) 
nan

>  <PDB_ID>  (641) 
nan

>  <Standardized_SMILES>  (641) 
Cc1cc(CN2CCN(c3c(Br)cnc4[nH]c(-c5ccc(CN6CCNCC6)cc5)nc34)CC2)no1

>  <Name>  (641) 
nan

>  <Pocket>  (641) 
nan

>  <ATP_Site>  (641) 
nan

>  <Peripheral>  (641) 
nan

>  <Num_H_Atoms_ProtBoundConf>  (641) 
nan

>  <Num_Resolved_Atoms>  (641) 
nan

>  <Num_Not_Resolved_Atoms>  (641) 
nan

$$$$
CHEMBL1085603
     RDKit          3D

  0  0  0  0  0  0  0  0  0  0999 V3000
M  V30 BEGIN CTAB
M  V30 COUNTS 57 61 0 0 0
M  V30 BEGIN ATOM
M  V30 1 C 1.954451 -3.503390 4.033020 0
M  V30 2 C 1.766263 -2.204978 3.343221 0
M  V30 3 C 2.086288 -1.082142 4.077237 0
M  V30 4 C 1.956613 0.184777 3.567200 0
M  V30 5 C 1.489124 0.284692 2.280261 0
M  V30 6 N 1.333270 1.579861 1.697228 0
M  V30 7 C 0.049577 2.150757 1.911769 0
M  V30 8 O -0.756284 1.452167 2.571547 0
M  V30 9 N -0.367056 3.407354 1.449206 0
M  V30 10 C -1.603189 4.081208 1.594225 0
M  V30 11 C -1.768142 5.319224 1.043577 0
M  V30 12 C -2.940834 6.024993 1.148217 0
M  V30 13 Cl -3.030947 7.600412 0.401015 0
M  V30 14 C -4.016358 5.523428 1.814541 0
M  V30 15 C -3.905538 4.275881 2.390900 0
M  V30 16 C -5.054670 3.689848 3.127733 0
M  V30 17 F -4.583619 2.563556 3.794980 0
M  V30 18 F -6.084383 3.303467 2.315514 0
M  V30 19 F -5.478414 4.557161 4.140329 0
M  V30 20 C -2.709243 3.606623 2.259007 0
M  V30 21 C 1.178475 -0.847308 1.572698 0
M  V30 22 C 1.299428 -2.129339 2.060365 0
M  V30 23 C 0.952463 -3.266182 1.233316 0
M  V30 24 N 0.474365 -3.080534 -0.008918 0
M  V30 25 C 0.194486 -4.215360 -0.650240 0
M  V30 26 C 0.513004 -5.215662 0.237624 0
M  V30 27 C 0.230803 -6.396027 -0.406329 0
M  V30 28 N -0.235991 -6.070573 -1.628775 0
M  V30 29 N -0.264773 -4.748773 -1.794143 0
M  V30 30 C -0.700212 -4.009241 -2.965154 0
M  V30 31 C 0.385924 -3.743899 -3.930947 0
M  V30 32 C 0.568623 -4.710136 -4.902758 0
M  V30 33 C 1.568575 -4.538610 -5.850647 0
M  V30 34 C 2.339742 -3.400942 -5.776792 0
M  V30 35 C 2.169964 -2.427975 -4.813585 0
M  V30 36 C 1.161727 -2.602765 -3.859342 0
M  V30 37 N 0.953575 -4.578752 1.326379 0
M  V30 38 H 2.730115 -4.100001 3.554118 0
M  V30 39 H 2.278200 -3.323602 5.110224 0
M  V30 40 H 1.006698 -4.069796 4.139322 0
M  V30 41 H 2.454479 -1.149253 5.088890 0
M  V30 42 H 2.211740 1.048117 4.156092 0
M  V30 43 H 2.023136 2.156940 1.143043 0
M  V30 44 H 0.398552 3.884818 0.914857 0
M  V30 45 H -0.934583 5.764851 0.498889 0
M  V30 46 H -4.922986 6.101534 1.879346 0
M  V30 47 H -2.682313 2.637789 2.729522 0
M  V30 48 H 0.817730 -0.660902 0.566159 0
M  V30 49 H 0.374123 -7.377126 0.029979 0
M  V30 50 H -1.163360 -3.034422 -2.693786 0
M  V30 51 H -1.530166 -4.602202 -3.412236 0
M  V30 52 H -0.002284 -5.616699 -5.008862 0
M  V30 53 H 1.805831 -5.226639 -6.658891 0
M  V30 54 H 3.134604 -3.230303 -6.502994 0
M  V30 55 H 2.755527 -1.529410 -4.729625 0
M  V30 56 H 0.923968 -1.914464 -3.050372 0
M  V30 57 H 1.255918 -5.105800 2.133936 0
M  V30 END ATOM
M  V30 BEGIN BOND
M  V30 1 1 1 2
M  V30 2 2 2 3
M  V30 3 1 3 4
M  V30 4 2 4 5
M  V30 5 1 5 6
M  V30 6 1 6 7
M  V30 7 2 7 8
M  V30 8 1 7 9
M  V30 9 1 9 10
M  V30 10 2 10 11
M  V30 11 1 11 12
M  V30 12 1 12 13
M  V30 13 2 12 14
M  V30 14 1 14 15
M  V30 15 1 15 16
M  V30 16 1 16 17
M  V30 17 1 16 18
M  V30 18 1 16 19
M  V30 19 2 15 20
M  V30 20 1 5 21
M  V30 21 2 21 22
M  V30 22 1 22 23
M  V30 23 2 23 24
M  V30 24 1 24 25
M  V30 25 2 25 26
M  V30 26 1 26 27
M  V30 27 2 27 28
M  V30 28 1 28 29
M  V30 29 1 29 30
M  V30 30 1 30 31
M  V30 31 2 31 32
M  V30 32 1 32 33
M  V30 33 2 33 34
M  V30 34 1 34 35
M  V30 35 2 35 36
M  V30 36 1 26 37
M  V30 37 1 22 2
M  V30 38 1 37 23
M  V30 39 1 20 10
M  V30 40 1 29 25
M  V30 41 1 36 31
M  V30 42 1 1 38
M  V30 43 1 1 39
M  V30 44 1 1 40
M  V30 45 1 3 41
M  V30 46 1 4 42
M  V30 47 1 6 43
M  V30 48 1 9 44
M  V30 49 1 11 45
M  V30 50 1 14 46
M  V30 51 1 20 47
M  V30 52 1 21 48
M  V30 53 1 27 49
M  V30 54 1 30 50
M  V30 55 1 30 51
M  V30 56 1 32 52
M  V30 57 1 33 53
M  V30 58 1 34 54
M  V30 59 1 35 55
M  V30 60 1 36 56
M  V30 61 1 37 57
M  V30 END BOND
M  V30 END CTAB
M  END
>  <Dataset>  (642) 
ChEMBL_Kinases

>  <Ligand_Instance>  (642) 
nan

>  <PDB_ID>  (642) 
nan

>  <Standardized_SMILES>  (642) 
Cc1ccc(NC(=O)Nc2cc(Cl)cc(C(F)(F)F)c2)cc1-c1nc2c(cnn2Cc2ccccc2)[nH]1

>  <Name>  (642) 
nan

>  <Pocket>  (642) 
nan

>  <ATP_Site>  (642) 
nan

>  <Peripheral>  (642) 
nan

>  <Num_H_Atoms_ProtBoundConf>  (642) 
nan

>  <Num_Resolved_Atoms>  (642) 
nan

>  <Num_Not_Resolved_Atoms>  (642) 
nan

$$$$
CHEMBL1085387
     RDKit          3D

  0  0  0  0  0  0  0  0  0  0999 V3000
M  V30 BEGIN CTAB
M  V30 COUNTS 58 62 0 0 0
M  V30 BEGIN ATOM
M  V30 1 C 7.301815 -3.086567 3.569136 0
M  V30 2 C 5.870912 -2.682416 3.656079 0
M  V30 3 C 5.343586 -1.412020 3.828126 0
M  V30 4 C 3.961016 -1.516946 3.850293 0
M  V30 5 C 2.949659 -0.459790 4.008181 0
M  V30 6 N 2.491198 0.143156 2.811397 0
M  V30 7 C 3.443151 0.796696 1.991678 0
M  V30 8 C 2.730508 1.947369 1.262768 0
M  V30 9 N 1.490295 1.515482 0.670016 0
M  V30 10 C 0.538176 2.405519 0.122960 0
M  V30 11 C 0.738399 3.762616 0.062897 0
M  V30 12 Cl 2.189964 4.569178 0.598854 0
M  V30 13 C -0.169741 4.664892 -0.441216 0
M  V30 14 N -1.364094 4.217685 -0.924989 0
M  V30 15 C -1.625186 2.880849 -0.894786 0
M  V30 16 N -2.721280 2.231165 -1.310123 0
M  V30 17 C -2.509102 0.927635 -1.070481 0
M  V30 18 C -3.372121 -0.223247 -1.326080 0
M  V30 19 C -2.981234 -1.507679 -1.009526 0
M  V30 20 C -3.821105 -2.566583 -1.265025 0
M  V30 21 C -5.066778 -2.440377 -1.833067 0
M  V30 22 O -6.064281 -3.277171 -2.185253 0
M  V30 23 C -6.157905 -4.647100 -2.087807 0
M  V30 24 C -5.130253 -5.413741 -2.874726 0
M  V30 25 O -5.218153 -5.128068 -4.236971 0
M  V30 26 C -5.444606 -1.124576 -2.147077 0
M  V30 27 C -4.612084 -0.023450 -1.899345 0
M  V30 28 N -1.294178 0.841773 -0.520384 0
M  V30 29 C -0.682750 2.018102 -0.379469 0
M  V30 30 C 1.380655 0.082366 0.696353 0
M  V30 31 C 1.461480 -0.508047 2.092778 0
M  V30 32 N 3.723804 -2.844070 3.690650 0
M  V30 33 O 4.846780 -3.481996 3.582373 0
M  V30 34 H 7.937464 -2.181305 3.407489 0
M  V30 35 H 7.632570 -3.599969 4.492239 0
M  V30 36 H 7.422863 -3.701028 2.657203 0
M  V30 37 H 5.898198 -0.505449 3.927166 0
M  V30 38 H 2.075588 -0.916416 4.514289 0
M  V30 39 H 3.280631 0.355985 4.686413 0
M  V30 40 H 3.846028 0.113415 1.230092 0
M  V30 41 H 4.308429 1.212091 2.565058 0
M  V30 42 H 2.518315 2.683328 2.090103 0
M  V30 43 H 3.415350 2.394267 0.524331 0
M  V30 44 H -0.066833 5.734472 -0.512622 0
M  V30 45 H -3.580488 2.632019 -1.737087 0
M  V30 46 H -2.039967 -1.713727 -0.568255 0
M  V30 47 H -3.590663 -3.595701 -1.039293 0
M  V30 48 H -6.212842 -5.019738 -1.029275 0
M  V30 49 H -7.163955 -4.938321 -2.516470 0
M  V30 50 H -5.373641 -6.510429 -2.749444 0
M  V30 51 H -4.102133 -5.295020 -2.556868 0
M  V30 52 H -4.409452 -5.364270 -4.728412 0
M  V30 53 H -6.388977 -0.784225 -2.604553 0
M  V30 54 H -4.878076 0.998571 -2.131060 0
M  V30 55 H 0.508048 -0.325116 0.143944 0
M  V30 56 H 2.281295 -0.285716 0.109849 0
M  V30 57 H 1.716226 -1.602437 2.022516 0
M  V30 58 H 0.484084 -0.483769 2.601697 0
M  V30 END ATOM
M  V30 BEGIN BOND
M  V30 1 1 1 2
M  V30 2 2 2 3
M  V30 3 1 3 4
M  V30 4 1 4 5
M  V30 5 1 5 6
M  V30 6 1 6 7
M  V30 7 1 7 8
M  V30 8 1 8 9
M  V30 9 1 9 10
M  V30 10 2 10 11
M  V30 11 1 11 12
M  V30 12 1 11 13
M  V30 13 2 13 14
M  V30 14 1 14 15
M  V30 15 1 15 16
M  V30 16 1 16 17
M  V30 17 1 17 18
M  V30 18 2 18 19
M  V30 19 1 19 20
M  V30 20 2 20 21
M  V30 21 1 21 22
M  V30 22 1 22 23
M  V30 23 1 23 24
M  V30 24 1 24 25
M  V30 25 1 21 26
M  V30 26 2 26 27
M  V30 27 2 17 28
M  V30 28 1 28 29
M  V30 29 1 9 30
M  V30 30 1 30 31
M  V30 31 2 4 32
M  V30 32 1 32 33
M  V30 33 1 33 2
M  V30 34 1 31 6
M  V30 35 1 29 10
M  V30 36 2 29 15
M  V30 37 1 27 18
M  V30 38 1 1 34
M  V30 39 1 1 35
M  V30 40 1 1 36
M  V30 41 1 3 37
M  V30 42 1 5 38
M  V30 43 1 5 39
M  V30 44 1 7 40
M  V30 45 1 7 41
M  V30 46 1 8 42
M  V30 47 1 8 43
M  V30 48 1 13 44
M  V30 49 1 16 45
M  V30 50 1 19 46
M  V30 51 1 20 47
M  V30 52 1 23 48
M  V30 53 1 23 49
M  V30 54 1 24 50
M  V30 55 1 24 51
M  V30 56 1 25 52
M  V30 57 1 26 53
M  V30 58 1 27 54
M  V30 59 1 30 55
M  V30 60 1 30 56
M  V30 61 1 31 57
M  V30 62 1 31 58
M  V30 END BOND
M  V30 END CTAB
M  END
>  <Dataset>  (643) 
ChEMBL_Kinases

>  <Ligand_Instance>  (643) 
nan

>  <PDB_ID>  (643) 
nan

>  <Standardized_SMILES>  (643) 
Cc1cc(CN2CCN(c3c(Cl)cnc4[nH]c(-c5ccc(OCCO)cc5)nc34)CC2)no1

>  <Name>  (643) 
nan

>  <Pocket>  (643) 
nan

>  <ATP_Site>  (643) 
nan

>  <Peripheral>  (643) 
nan

>  <Num_H_Atoms_ProtBoundConf>  (643) 
nan

>  <Num_Resolved_Atoms>  (643) 
nan

>  <Num_Not_Resolved_Atoms>  (643) 
nan

$$$$
CHEMBL1085357
     RDKit          3D

  0  0  0  0  0  0  0  0  0  0999 V3000
M  V30 BEGIN CTAB
M  V30 COUNTS 62 67 0 0 0
M  V30 BEGIN ATOM
M  V30 1 C 2.906694 5.003530 5.707285 0
M  V30 2 O 2.859379 5.411364 4.333818 0
M  V30 3 C 2.533073 4.483838 3.354269 0
M  V30 4 C 2.266784 3.194570 3.766722 0
M  V30 5 C 1.944355 2.284982 2.782952 0
M  V30 6 C 1.879569 2.604544 1.442444 0
M  V30 7 C 1.536044 1.653541 0.380270 0
M  V30 8 N 1.260549 0.383549 0.665376 0
M  V30 9 C 0.972006 -0.319356 -0.420320 0
M  V30 10 C 0.611560 -1.599997 -0.792408 0
M  V30 11 N 0.523388 -2.591700 0.200159 0
M  V30 12 C 0.916725 -2.311623 1.560926 0
M  V30 13 C -0.387916 -2.101802 2.331190 0
M  V30 14 N -1.053582 -3.363939 2.327659 0
M  V30 15 C -2.467340 -3.229504 2.319222 0
M  V30 16 C -3.033751 -2.662632 1.066958 0
M  V30 17 O -2.600305 -2.243413 -0.052334 0
M  V30 18 N -4.459258 -2.508817 1.014695 0
M  V30 19 C -4.916423 -1.962078 -0.218297 0
M  V30 20 N -5.112396 -0.755405 -0.601480 0
M  V30 21 C -5.542554 -0.496696 -1.802930 0
M  V30 22 C -5.828247 -1.594042 -2.792598 0
M  V30 23 S -5.363577 -3.088335 -1.676914 0
M  V30 24 C -0.484214 -4.391088 1.537897 0
M  V30 25 C 0.044143 -3.956611 0.180472 0
M  V30 26 C 0.396910 -1.829543 -2.151554 0
M  V30 27 C 0.003484 -3.161238 -2.672629 0
M  V30 28 C 0.939740 -4.263333 -2.889828 0
M  V30 29 C 0.657554 -3.447410 -4.066268 0
M  V30 30 C 0.525153 -0.847569 -3.142935 0
M  V30 31 N 0.883379 0.405934 -2.735075 0
M  V30 32 C 1.093402 0.631832 -1.407462 0
M  V30 33 N 1.435974 1.832152 -0.928872 0
M  V30 34 C 2.161301 3.916494 1.124026 0
M  V30 35 C 2.499490 4.922313 2.037361 0
M  V30 36 H 1.926326 4.616653 6.041532 0
M  V30 37 H 3.326287 5.791897 6.336677 0
M  V30 38 H 3.618114 4.144070 5.723374 0
M  V30 39 H 2.302559 2.894292 4.795966 0
M  V30 40 H 1.730375 1.264626 3.075246 0
M  V30 41 H 1.646986 -1.518069 1.699053 0
M  V30 42 H 1.372855 -3.232798 2.032138 0
M  V30 43 H -1.051835 -1.367581 1.799599 0
M  V30 44 H -0.164729 -1.748559 3.357166 0
M  V30 45 H -2.778968 -2.566219 3.151507 0
M  V30 46 H -2.942301 -4.220076 2.557034 0
M  V30 47 H -5.152216 -2.754979 1.775490 0
M  V30 48 H -5.812946 0.306519 -2.463724 0
M  V30 49 H -6.160264 -2.029910 -3.812342 0
M  V30 50 H -1.277722 -5.149536 1.330147 0
M  V30 51 H 0.300713 -4.914980 2.104464 0
M  V30 52 H 0.897988 -4.644110 -0.030992 0
M  V30 53 H -0.722676 -4.156544 -0.581539 0
M  V30 54 H -1.101116 -3.328290 -2.689769 0
M  V30 55 H 1.943038 -4.279444 -2.418243 0
M  V30 56 H 0.474348 -5.290172 -2.859381 0
M  V30 57 H -0.034623 -3.730399 -4.858071 0
M  V30 58 H 1.461921 -2.767189 -4.392435 0
M  V30 59 H 0.350946 -1.059185 -4.187302 0
M  V30 60 H 1.606093 2.743913 -1.391592 0
M  V30 61 H 2.131849 4.248231 0.080578 0
M  V30 62 H 2.706726 5.923087 1.727331 0
M  V30 END ATOM
M  V30 BEGIN BOND
M  V30 1 1 1 2
M  V30 2 1 2 3
M  V30 3 2 3 4
M  V30 4 1 4 5
M  V30 5 2 5 6
M  V30 6 1 6 7
M  V30 7 2 7 8
M  V30 8 1 8 9
M  V30 9 2 9 10
M  V30 10 1 10 11
M  V30 11 1 11 12
M  V30 12 1 12 13
M  V30 13 1 13 14
M  V30 14 1 14 15
M  V30 15 1 15 16
M  V30 16 2 16 17
M  V30 17 1 16 18
M  V30 18 1 18 19
M  V30 19 2 19 20
M  V30 20 1 20 21
M  V30 21 2 21 22
M  V30 22 1 22 23
M  V30 23 1 14 24
M  V30 24 1 24 25
M  V30 25 1 10 26
M  V30 26 1 26 27
M  V30 27 1 27 28
M  V30 28 1 28 29
M  V30 29 2 26 30
M  V30 30 1 30 31
M  V30 31 2 31 32
M  V30 32 1 32 33
M  V30 33 1 6 34
M  V30 34 2 34 35
M  V30 35 1 35 3
M  V30 36 1 33 7
M  V30 37 1 32 9
M  V30 38 1 25 11
M  V30 39 1 29 27
M  V30 40 1 23 19
M  V30 41 1 1 36
M  V30 42 1 1 37
M  V30 43 1 1 38
M  V30 44 1 4 39
M  V30 45 1 5 40
M  V30 46 1 12 41
M  V30 47 1 12 42
M  V30 48 1 13 43
M  V30 49 1 13 44
M  V30 50 1 15 45
M  V30 51 1 15 46
M  V30 52 1 18 47
M  V30 53 1 21 48
M  V30 54 1 22 49
M  V30 55 1 24 50
M  V30 56 1 24 51
M  V30 57 1 25 52
M  V30 58 1 25 53
M  V30 59 1 27 54
M  V30 60 1 28 55
M  V30 61 1 28 56
M  V30 62 1 29 57
M  V30 63 1 29 58
M  V30 64 1 30 59
M  V30 65 1 33 60
M  V30 66 1 34 61
M  V30 67 1 35 62
M  V30 END BOND
M  V30 END CTAB
M  END
>  <Dataset>  (644) 
ChEMBL_Kinases

>  <Ligand_Instance>  (644) 
nan

>  <PDB_ID>  (644) 
nan

>  <Standardized_SMILES>  (644) 
COc1ccc(-c2nc3c(N4CCN(CC(=O)Nc5nccs5)CC4)c(C4CC4)cnc3[nH]2)cc1

>  <Name>  (644) 
nan

>  <Pocket>  (644) 
nan

>  <ATP_Site>  (644) 
nan

>  <Peripheral>  (644) 
nan

>  <Num_H_Atoms_ProtBoundConf>  (644) 
nan

>  <Num_Resolved_Atoms>  (644) 
nan

>  <Num_Not_Resolved_Atoms>  (644) 
nan

$$$$
CHEMBL1085356
     RDKit          3D

  0  0  0  0  0  0  0  0  0  0999 V3000
M  V30 BEGIN CTAB
M  V30 COUNTS 60 64 0 0 0
M  V30 BEGIN ATOM
M  V30 1 C 5.075207 0.889241 5.493842 0
M  V30 2 N 3.713049 0.543635 5.127145 0
M  V30 3 C 2.762152 0.045830 6.108439 0
M  V30 4 C 3.288515 0.692200 3.776179 0
M  V30 5 C 4.135526 1.156515 2.797643 0
M  V30 6 C 3.738944 1.311631 1.463379 0
M  V30 7 C 2.464356 0.988855 1.126249 0
M  V30 8 C 1.979774 1.123919 -0.244947 0
M  V30 9 N 0.749949 0.837396 -0.681485 0
M  V30 10 C 0.573979 1.054496 -1.993284 0
M  V30 11 C -0.457772 0.933214 -2.908370 0
M  V30 12 N -1.701735 0.445436 -2.505906 0
M  V30 13 C -1.701851 0.007023 -1.137080 0
M  V30 14 C -3.003815 -0.671815 -0.808533 0
M  V30 15 N -3.397941 -1.687616 -1.763188 0
M  V30 16 C -2.652189 -2.899164 -1.525616 0
M  V30 17 C -3.125428 -3.444608 -0.207051 0
M  V30 18 O -3.935806 -3.220389 0.755369 0
M  V30 19 N -2.448713 -4.665205 0.145435 0
M  V30 20 C -2.729907 -5.364431 1.347929 0
M  V30 21 N -2.423618 -5.469248 2.499556 0
M  V30 22 C -3.001975 -6.330272 3.338019 0
M  V30 23 C -4.100442 -7.216287 2.797708 0
M  V30 24 S -4.121309 -6.613912 1.026309 0
M  V30 25 C -3.284927 -1.192037 -3.120839 0
M  V30 26 C -3.000117 0.300846 -3.106753 0
M  V30 27 C -0.109159 1.309504 -4.190249 0
M  V30 28 C -1.054004 1.209999 -5.267924 0
M  V30 29 N -1.807882 1.121488 -6.156678 0
M  V30 30 C 1.120322 1.774302 -4.613230 0
M  V30 31 N 2.091432 1.870431 -3.664079 0
M  V30 32 C 1.828995 1.520168 -2.385073 0
M  V30 33 N 2.648526 1.552033 -1.325449 0
M  V30 34 C 1.611860 0.522396 2.106606 0
M  V30 35 C 2.007102 0.376051 3.397067 0
M  V30 36 H 5.028898 1.116416 6.597848 0
M  V30 37 H 5.770445 0.034565 5.402191 0
M  V30 38 H 5.433355 1.824082 5.016322 0
M  V30 39 H 1.944268 0.821219 6.149869 0
M  V30 40 H 2.272389 -0.892628 5.761003 0
M  V30 41 H 3.201610 -0.050085 7.106335 0
M  V30 42 H 5.162251 1.424063 3.034705 0
M  V30 43 H 4.421948 1.683029 0.694492 0
M  V30 44 H -0.897270 -0.712748 -0.896709 0
M  V30 45 H -1.603447 0.837506 -0.408084 0
M  V30 46 H -3.815870 0.017755 -0.526028 0
M  V30 47 H -2.815899 -1.263706 0.143018 0
M  V30 48 H -1.572845 -2.685657 -1.391388 0
M  V30 49 H -2.875403 -3.646396 -2.299072 0
M  V30 50 H -1.697285 -5.186911 -0.395482 0
M  V30 51 H -2.528936 -6.214854 4.327260 0
M  V30 52 H -4.395518 -7.862765 3.814943 0
M  V30 53 H -4.240895 -1.383138 -3.630281 0
M  V30 54 H -2.505246 -1.777173 -3.629463 0
M  V30 55 H -3.774170 0.742519 -2.377698 0
M  V30 56 H -3.218468 0.832590 -4.009521 0
M  V30 57 H 1.379903 2.065219 -5.615055 0
M  V30 58 H 3.630253 1.853586 -1.329133 0
M  V30 59 H 0.590448 0.256674 1.870427 0
M  V30 60 H 1.331062 0.010247 4.153229 0
M  V30 END ATOM
M  V30 BEGIN BOND
M  V30 1 1 1 2
M  V30 2 1 2 3
M  V30 3 1 2 4
M  V30 4 2 4 5
M  V30 5 1 5 6
M  V30 6 2 6 7
M  V30 7 1 7 8
M  V30 8 2 8 9
M  V30 9 1 9 10
M  V30 10 2 10 11
M  V30 11 1 11 12
M  V30 12 1 12 13
M  V30 13 1 13 14
M  V30 14 1 14 15
M  V30 15 1 15 16
M  V30 16 1 16 17
M  V30 17 2 17 18
M  V30 18 1 17 19
M  V30 19 1 19 20
M  V30 20 2 20 21
M  V30 21 1 21 22
M  V30 22 2 22 23
M  V30 23 1 23 24
M  V30 24 1 15 25
M  V30 25 1 25 26
M  V30 26 1 11 27
M  V30 27 1 27 28
M  V30 28 3 28 29
M  V30 29 2 27 30
M  V30 30 1 30 31
M  V30 31 2 31 32
M  V30 32 1 32 33
M  V30 33 1 7 34
M  V30 34 2 34 35
M  V30 35 1 35 4
M  V30 36 1 33 8
M  V30 37 1 32 10
M  V30 38 1 26 12
M  V30 39 1 24 20
M  V30 40 1 1 36
M  V30 41 1 1 37
M  V30 42 1 1 38
M  V30 43 1 3 39
M  V30 44 1 3 40
M  V30 45 1 3 41
M  V30 46 1 5 42
M  V30 47 1 6 43
M  V30 48 1 13 44
M  V30 49 1 13 45
M  V30 50 1 14 46
M  V30 51 1 14 47
M  V30 52 1 16 48
M  V30 53 1 16 49
M  V30 54 1 19 50
M  V30 55 1 22 51
M  V30 56 1 23 52
M  V30 57 1 25 53
M  V30 58 1 25 54
M  V30 59 1 26 55
M  V30 60 1 26 56
M  V30 61 1 30 57
M  V30 62 1 33 58
M  V30 63 1 34 59
M  V30 64 1 35 60
M  V30 END BOND
M  V30 END CTAB
M  END
>  <Dataset>  (645) 
ChEMBL_Kinases

>  <Ligand_Instance>  (645) 
nan

>  <PDB_ID>  (645) 
nan

>  <Standardized_SMILES>  (645) 
CN(C)c1ccc(-c2nc3c(N4CCN(CC(=O)Nc5nccs5)CC4)c(C#N)cnc3[nH]2)cc1

>  <Name>  (645) 
nan

>  <Pocket>  (645) 
nan

>  <ATP_Site>  (645) 
nan

>  <Peripheral>  (645) 
nan

>  <Num_H_Atoms_ProtBoundConf>  (645) 
nan

>  <Num_Resolved_Atoms>  (645) 
nan

>  <Num_Not_Resolved_Atoms>  (645) 
nan

$$$$
CHEMBL1085136
     RDKit          3D

  0  0  0  0  0  0  0  0  0  0999 V3000
M  V30 BEGIN CTAB
M  V30 COUNTS 58 61 0 0 0
M  V30 BEGIN ATOM
M  V30 1 C 1.693632 1.261395 6.257115 0
M  V30 2 C 1.484681 0.174982 5.219491 0
M  V30 3 C 1.291358 -1.128941 5.964244 0
M  V30 4 C 2.747636 0.138469 4.385295 0
M  V30 5 N 2.688493 -0.861324 3.346306 0
M  V30 6 C 3.908284 -0.853669 2.586243 0
M  V30 7 C 3.873541 0.086244 1.407159 0
M  V30 8 N 2.723822 -0.086969 0.549112 0
M  V30 9 C 2.445742 0.630330 -0.637886 0
M  V30 10 C 3.267206 1.595912 -1.154116 0
M  V30 11 Br 4.919456 2.096001 -0.354647 0
M  V30 12 C 3.022098 2.321012 -2.302000 0
M  V30 13 N 1.891848 2.079724 -2.989096 0
M  V30 14 C 1.055997 1.139719 -2.518642 0
M  V30 15 N -0.108743 0.782060 -3.083807 0
M  V30 16 C -0.601828 -0.174319 -2.287907 0
M  V30 17 C -1.852894 -0.930789 -2.416078 0
M  V30 18 C -2.274870 -1.907856 -1.531516 0
M  V30 19 C -3.463524 -2.577656 -1.716112 0
M  V30 20 C -4.284980 -2.305643 -2.788121 0
M  V30 21 N -5.485432 -3.023722 -2.920938 0
M  V30 22 C -5.810166 -4.020309 -1.925620 0
M  V30 23 C -6.432815 -2.841169 -3.988755 0
M  V30 24 C -3.863179 -1.332275 -3.668074 0
M  V30 25 C -2.667960 -0.646490 -3.498258 0
M  V30 26 N 0.234699 -0.391078 -1.272991 0
M  V30 27 C 1.297118 0.413601 -1.372833 0
M  V30 28 C 1.903847 -1.118862 1.091943 0
M  V30 29 C 1.519066 -0.706492 2.503629 0
M  V30 30 H 2.077744 2.189211 5.785597 0
M  V30 31 H 2.487739 0.904843 6.944951 0
M  V30 32 H 0.801026 1.451289 6.871316 0
M  V30 33 H 0.580610 0.340481 4.604464 0
M  V30 34 H 1.680258 -1.047265 6.980566 0
M  V30 35 H 1.807129 -1.905919 5.359891 0
M  V30 36 H 0.208617 -1.408770 5.977120 0
M  V30 37 H 3.574141 -0.141247 5.074750 0
M  V30 38 H 2.960526 1.149852 3.987464 0
M  V30 39 H 4.702683 -0.460793 3.264753 0
M  V30 40 H 4.225750 -1.876174 2.332116 0
M  V30 41 H 4.774206 -0.161073 0.812368 0
M  V30 42 H 3.961412 1.133153 1.771937 0
M  V30 43 H 3.658951 3.086554 -2.723792 0
M  V30 44 H -0.568487 1.128931 -3.934508 0
M  V30 45 H -1.602730 -2.095036 -0.699887 0
M  V30 46 H -3.669125 -3.319369 -0.943754 0
M  V30 47 H -4.999522 -4.798499 -1.987577 0
M  V30 48 H -6.788809 -4.499054 -2.074717 0
M  V30 49 H -5.812499 -3.575120 -0.904159 0
M  V30 50 H -6.044030 -2.343353 -4.879656 0
M  V30 51 H -7.321390 -2.280583 -3.638207 0
M  V30 52 H -6.809899 -3.860102 -4.274850 0
M  V30 53 H -4.476272 -1.087771 -4.521518 0
M  V30 54 H -2.399158 0.106411 -4.229457 0
M  V30 55 H 1.062143 -1.463513 0.512598 0
M  V30 56 H 2.555340 -2.039840 1.225253 0
M  V30 57 H 1.287646 0.376805 2.470824 0
M  V30 58 H 0.708473 -1.353784 2.840239 0
M  V30 END ATOM
M  V30 BEGIN BOND
M  V30 1 1 1 2
M  V30 2 1 2 3
M  V30 3 1 2 4
M  V30 4 1 4 5
M  V30 5 1 5 6
M  V30 6 1 6 7
M  V30 7 1 7 8
M  V30 8 1 8 9
M  V30 9 2 9 10
M  V30 10 1 10 11
M  V30 11 1 10 12
M  V30 12 2 12 13
M  V30 13 1 13 14
M  V30 14 1 14 15
M  V30 15 1 15 16
M  V30 16 1 16 17
M  V30 17 2 17 18
M  V30 18 1 18 19
M  V30 19 2 19 20
M  V30 20 1 20 21
M  V30 21 1 21 22
M  V30 22 1 21 23
M  V30 23 1 20 24
M  V30 24 2 24 25
M  V30 25 2 16 26
M  V30 26 1 26 27
M  V30 27 1 8 28
M  V30 28 1 28 29
M  V30 29 1 29 5
M  V30 30 1 27 9
M  V30 31 2 27 14
M  V30 32 1 25 17
M  V30 33 1 1 30
M  V30 34 1 1 31
M  V30 35 1 1 32
M  V30 36 1 2 33
M  V30 37 1 3 34
M  V30 38 1 3 35
M  V30 39 1 3 36
M  V30 40 1 4 37
M  V30 41 1 4 38
M  V30 42 1 6 39
M  V30 43 1 6 40
M  V30 44 1 7 41
M  V30 45 1 7 42
M  V30 46 1 12 43
M  V30 47 1 15 44
M  V30 48 1 18 45
M  V30 49 1 19 46
M  V30 50 1 22 47
M  V30 51 1 22 48
M  V30 52 1 22 49
M  V30 53 1 23 50
M  V30 54 1 23 51
M  V30 55 1 23 52
M  V30 56 1 24 53
M  V30 57 1 25 54
M  V30 58 1 28 55
M  V30 59 1 28 56
M  V30 60 1 29 57
M  V30 61 1 29 58
M  V30 END BOND
M  V30 END CTAB
M  END
>  <Dataset>  (646) 
ChEMBL_Kinases

>  <Ligand_Instance>  (646) 
nan

>  <PDB_ID>  (646) 
nan

>  <Standardized_SMILES>  (646) 
CC(C)CN1CCN(c2c(Br)cnc3[nH]c(-c4ccc(N(C)C)cc4)nc23)CC1

>  <Name>  (646) 
nan

>  <Pocket>  (646) 
nan

>  <ATP_Site>  (646) 
nan

>  <Peripheral>  (646) 
nan

>  <Num_H_Atoms_ProtBoundConf>  (646) 
nan

>  <Num_Resolved_Atoms>  (646) 
nan

>  <Num_Not_Resolved_Atoms>  (646) 
nan

$$$$
CHEMBL1085135
     RDKit          3D

  0  0  0  0  0  0  0  0  0  0999 V3000
M  V30 BEGIN CTAB
M  V30 COUNTS 56 60 0 0 0
M  V30 BEGIN ATOM
M  V30 1 C 2.325128 -1.038379 6.909591 0
M  V30 2 N 3.321374 -1.704097 6.057293 0
M  V30 3 C 4.501584 -2.241956 6.704056 0
M  V30 4 C 3.127052 -1.812260 4.651875 0
M  V30 5 C 4.021429 -2.423634 3.796035 0
M  V30 6 C 3.800716 -2.512166 2.426954 0
M  V30 7 C 2.640177 -1.964269 1.917458 0
M  V30 8 C 2.387632 -2.046113 0.480048 0
M  V30 9 N 1.297534 -1.554954 -0.154062 0
M  V30 10 C 1.402902 -1.813478 -1.484963 0
M  V30 11 C 0.575147 -1.529591 -2.553920 0
M  V30 12 N -0.648446 -0.835273 -2.322342 0
M  V30 13 C -0.705036 0.586977 -2.364513 0
M  V30 14 C -2.053665 1.161243 -2.655022 0
M  V30 15 N -3.086617 0.611106 -1.767993 0
M  V30 16 C -4.340297 1.247900 -1.629960 0
M  V30 17 C -5.377209 0.819005 -0.823901 0
M  V30 18 C -6.581839 1.500083 -0.741536 0
M  V30 19 C -6.784770 2.647076 -1.475204 0
M  V30 20 C -5.772374 3.108932 -2.293419 0
M  V30 21 C -4.585553 2.396035 -2.344242 0
M  V30 22 C -2.729039 -0.604688 -1.063242 0
M  V30 23 C -1.924625 -1.445836 -2.030042 0
M  V30 24 C 1.019522 -1.956479 -3.790554 0
M  V30 25 Br -0.119962 -1.568226 -5.278762 0
M  V30 26 C 2.220218 -2.625935 -3.939493 0
M  V30 27 N 2.993800 -2.878840 -2.858690 0
M  V30 28 C 2.605220 -2.481838 -1.620930 0
M  V30 29 N 3.209086 -2.624110 -0.413415 0
M  V30 30 C 1.725758 -1.345995 2.747544 0
M  V30 31 C 1.978536 -1.276664 4.103906 0
M  V30 32 H 2.101409 -0.082947 6.350119 0
M  V30 33 H 1.385848 -1.587659 6.961087 0
M  V30 34 H 2.764072 -0.709730 7.854284 0
M  V30 35 H 5.341287 -1.513510 6.761243 0
M  V30 36 H 4.230431 -2.568559 7.750763 0
M  V30 37 H 4.822592 -3.180929 6.211531 0
M  V30 38 H 4.925024 -2.848884 4.201536 0
M  V30 39 H 4.540821 -3.008470 1.782081 0
M  V30 40 H -0.249617 0.990914 -1.437538 0
M  V30 41 H -0.031846 0.939322 -3.183217 0
M  V30 42 H -2.315542 1.102406 -3.715350 0
M  V30 43 H -1.999232 2.250151 -2.392825 0
M  V30 44 H -5.221741 -0.079746 -0.247171 0
M  V30 45 H -7.359735 1.097771 -0.078469 0
M  V30 46 H -7.729656 3.177986 -1.408239 0
M  V30 47 H -5.936009 4.017424 -2.873148 0
M  V30 48 H -3.848313 2.841400 -3.019108 0
M  V30 49 H -2.047160 -0.384452 -0.203642 0
M  V30 50 H -3.564156 -1.182153 -0.679574 0
M  V30 51 H -1.790176 -2.433245 -1.498294 0
M  V30 52 H -2.499231 -1.703424 -2.943303 0
M  V30 53 H 2.491321 -2.926375 -4.957946 0
M  V30 54 H 4.125827 -3.090626 -0.232839 0
M  V30 55 H 0.843818 -0.942254 2.277077 0
M  V30 56 H 1.200084 -0.773848 4.655233 0
M  V30 END ATOM
M  V30 BEGIN BOND
M  V30 1 1 1 2
M  V30 2 1 2 3
M  V30 3 1 2 4
M  V30 4 2 4 5
M  V30 5 1 5 6
M  V30 6 2 6 7
M  V30 7 1 7 8
M  V30 8 2 8 9
M  V30 9 1 9 10
M  V30 10 2 10 11
M  V30 11 1 11 12
M  V30 12 1 12 13
M  V30 13 1 13 14
M  V30 14 1 14 15
M  V30 15 1 15 16
M  V30 16 2 16 17
M  V30 17 1 17 18
M  V30 18 2 18 19
M  V30 19 1 19 20
M  V30 20 2 20 21
M  V30 21 1 15 22
M  V30 22 1 22 23
M  V30 23 1 11 24
M  V30 24 1 24 25
M  V30 25 2 24 26
M  V30 26 1 26 27
M  V30 27 2 27 28
M  V30 28 1 28 29
M  V30 29 1 7 30
M  V30 30 2 30 31
M  V30 31 1 31 4
M  V30 32 1 29 8
M  V30 33 1 28 10
M  V30 34 1 23 12
M  V30 35 1 21 16
M  V30 36 1 1 32
M  V30 37 1 1 33
M  V30 38 1 1 34
M  V30 39 1 3 35
M  V30 40 1 3 36
M  V30 41 1 3 37
M  V30 42 1 5 38
M  V30 43 1 6 39
M  V30 44 1 13 40
M  V30 45 1 13 41
M  V30 46 1 14 42
M  V30 47 1 14 43
M  V30 48 1 17 44
M  V30 49 1 18 45
M  V30 50 1 19 46
M  V30 51 1 20 47
M  V30 52 1 21 48
M  V30 53 1 22 49
M  V30 54 1 22 50
M  V30 55 1 23 51
M  V30 56 1 23 52
M  V30 57 1 26 53
M  V30 58 1 29 54
M  V30 59 1 30 55
M  V30 60 1 31 56
M  V30 END BOND
M  V30 END CTAB
M  END
>  <Dataset>  (647) 
ChEMBL_Kinases

>  <Ligand_Instance>  (647) 
nan

>  <PDB_ID>  (647) 
nan

>  <Standardized_SMILES>  (647) 
CN(C)c1ccc(-c2nc3c(N4CCN(c5ccccc5)CC4)c(Br)cnc3[nH]2)cc1

>  <Name>  (647) 
nan

>  <Pocket>  (647) 
nan

>  <ATP_Site>  (647) 
nan

>  <Peripheral>  (647) 
nan

>  <Num_H_Atoms_ProtBoundConf>  (647) 
nan

>  <Num_Resolved_Atoms>  (647) 
nan

>  <Num_Not_Resolved_Atoms>  (647) 
nan

$$$$
CHEMBL1085134
     RDKit          3D

  0  0  0  0  0  0  0  0  0  0999 V3000
M  V30 BEGIN CTAB
M  V30 COUNTS 59 63 0 0 0
M  V30 BEGIN ATOM
M  V30 1 C 6.122512 -1.677958 4.238524 0
M  V30 2 N 4.873089 -0.941291 4.207256 0
M  V30 3 C 4.381043 -0.201592 5.330206 0
M  V30 4 C 4.122924 -0.969871 2.999465 0
M  V30 5 C 4.541685 -1.663473 1.882049 0
M  V30 6 C 3.848824 -1.722008 0.685370 0
M  V30 7 C 2.661461 -1.018414 0.664493 0
M  V30 8 C 1.900736 -1.056695 -0.583445 0
M  V30 9 N 0.731276 -0.450869 -0.824582 0
M  V30 10 C 0.273143 -0.668039 -2.065828 0
M  V30 11 C -0.823541 -0.306800 -2.817357 0
M  V30 12 N -1.834548 0.516279 -2.261935 0
M  V30 13 C -1.576320 0.884376 -0.890514 0
M  V30 14 C -2.585109 1.775210 -0.250540 0
M  V30 15 N -3.940973 1.312059 -0.386715 0
M  V30 16 S -4.544473 0.406864 0.910265 0
M  V30 17 O -4.659316 1.207406 2.169582 0
M  V30 18 O -5.964807 0.000036 0.541669 0
M  V30 19 C -3.688386 -1.069034 1.224736 0
M  V30 20 C -4.068512 -2.256698 0.593068 0
M  V30 21 C -3.489324 -3.500192 0.742038 0
M  V30 22 C -2.422461 -3.566961 1.608946 0
M  V30 23 C -1.985779 -2.438620 2.271704 0
M  V30 24 C -2.598518 -1.226541 2.086540 0
M  V30 25 C -4.186221 0.758501 -1.696373 0
M  V30 26 C -3.051796 1.110616 -2.646345 0
M  V30 27 C -0.829566 -0.808356 -4.095272 0
M  V30 28 Br -2.247384 -0.438216 -5.304719 0
M  V30 29 C 0.127779 -1.607094 -4.662141 0
M  V30 30 N 1.190771 -1.933478 -3.873564 0
M  V30 31 C 1.245747 -1.471799 -2.622185 0
M  V30 32 N 2.211388 -1.692459 -1.717553 0
M  V30 33 C 2.169043 -0.299397 1.734575 0
M  V30 34 C 2.911152 -0.282888 2.899684 0
M  V30 35 H 6.936121 -1.178866 3.672084 0
M  V30 36 H 5.957211 -2.743956 3.906093 0
M  V30 37 H 6.442103 -1.767701 5.303525 0
M  V30 38 H 3.500196 -0.625975 5.816208 0
M  V30 39 H 5.210425 -0.145434 6.079364 0
M  V30 40 H 4.079097 0.830684 5.001971 0
M  V30 41 H 5.497144 -2.191037 1.996337 0
M  V30 42 H 4.234121 -2.284600 -0.151928 0
M  V30 43 H -1.501608 -0.102252 -0.345758 0
M  V30 44 H -0.618197 1.443175 -0.899974 0
M  V30 45 H -2.530761 2.810223 -0.630234 0
M  V30 46 H -2.344557 1.803702 0.828866 0
M  V30 47 H -4.911645 -2.192261 -0.088940 0
M  V30 48 H -3.872177 -4.336821 0.201635 0
M  V30 49 H -1.962104 -4.540855 1.731222 0
M  V30 50 H -1.142621 -2.523152 2.948380 0
M  V30 51 H -2.279515 -0.313952 2.594250 0
M  V30 52 H -4.301982 -0.320127 -1.607530 0
M  V30 53 H -5.105687 1.212525 -2.096166 0
M  V30 54 H -3.424786 0.966017 -3.653986 0
M  V30 55 H -2.941974 2.231835 -2.542339 0
M  V30 56 H 0.131672 -2.002644 -5.656993 0
M  V30 57 H 3.073739 -2.253889 -1.829131 0
M  V30 58 H 1.221143 0.221302 1.614359 0
M  V30 59 H 2.507970 0.286522 3.727134 0
M  V30 END ATOM
M  V30 BEGIN BOND
M  V30 1 1 1 2
M  V30 2 1 2 3
M  V30 3 1 2 4
M  V30 4 2 4 5
M  V30 5 1 5 6
M  V30 6 2 6 7
M  V30 7 1 7 8
M  V30 8 2 8 9
M  V30 9 1 9 10
M  V30 10 2 10 11
M  V30 11 1 11 12
M  V30 12 1 12 13
M  V30 13 1 13 14
M  V30 14 1 14 15
M  V30 15 1 15 16
M  V30 16 2 16 17
M  V30 17 2 16 18
M  V30 18 1 16 19
M  V30 19 2 19 20
M  V30 20 1 20 21
M  V30 21 2 21 22
M  V30 22 1 22 23
M  V30 23 2 23 24
M  V30 24 1 15 25
M  V30 25 1 25 26
M  V30 26 1 11 27
M  V30 27 1 27 28
M  V30 28 2 27 29
M  V30 29 1 29 30
M  V30 30 2 30 31
M  V30 31 1 31 32
M  V30 32 1 7 33
M  V30 33 2 33 34
M  V30 34 1 34 4
M  V30 35 1 32 8
M  V30 36 1 31 10
M  V30 37 1 26 12
M  V30 38 1 24 19
M  V30 39 1 1 35
M  V30 40 1 1 36
M  V30 41 1 1 37
M  V30 42 1 3 38
M  V30 43 1 3 39
M  V30 44 1 3 40
M  V30 45 1 5 41
M  V30 46 1 6 42
M  V30 47 1 13 43
M  V30 48 1 13 44
M  V30 49 1 14 45
M  V30 50 1 14 46
M  V30 51 1 20 47
M  V30 52 1 21 48
M  V30 53 1 22 49
M  V30 54 1 23 50
M  V30 55 1 24 51
M  V30 56 1 25 52
M  V30 57 1 25 53
M  V30 58 1 26 54
M  V30 59 1 26 55
M  V30 60 1 29 56
M  V30 61 1 32 57
M  V30 62 1 33 58
M  V30 63 1 34 59
M  V30 END BOND
M  V30 END CTAB
M  END
>  <Dataset>  (648) 
ChEMBL_Kinases

>  <Ligand_Instance>  (648) 
nan

>  <PDB_ID>  (648) 
nan

>  <Standardized_SMILES>  (648) 
CN(C)c1ccc(-c2nc3c(N4CCN(S(=O)(=O)c5ccccc5)CC4)c(Br)cnc3[nH]2)cc1

>  <Name>  (648) 
nan

>  <Pocket>  (648) 
nan

>  <ATP_Site>  (648) 
nan

>  <Peripheral>  (648) 
nan

>  <Num_H_Atoms_ProtBoundConf>  (648) 
nan

>  <Num_Resolved_Atoms>  (648) 
nan

>  <Num_Not_Resolved_Atoms>  (648) 
nan

$$$$
CHEMBL1085133
     RDKit          3D

  0  0  0  0  0  0  0  0  0  0999 V3000
M  V30 BEGIN CTAB
M  V30 COUNTS 60 64 0 0 0
M  V30 BEGIN ATOM
M  V30 1 C 4.135120 -2.037710 5.789706 0
M  V30 2 N 4.930852 -2.417470 4.649567 0
M  V30 3 C 6.183375 -3.155563 4.710131 0
M  V30 4 C 4.471103 -2.048962 3.353711 0
M  V30 5 C 3.295775 -1.346389 3.225640 0
M  V30 6 C 2.769039 -0.945310 2.015941 0
M  V30 7 C 3.457505 -1.263248 0.838990 0
M  V30 8 C 2.973713 -0.878149 -0.486505 0
M  V30 9 N 1.838383 -0.194605 -0.664610 0
M  V30 10 C 1.572391 0.059118 -1.953813 0
M  V30 11 C 0.594523 0.696782 -2.685926 0
M  V30 12 N -0.517961 1.280699 -2.022785 0
M  V30 13 C -0.478044 1.023347 -0.597768 0
M  V30 14 C -1.741831 1.462886 0.106158 0
M  V30 15 N -2.855643 0.976107 -0.694860 0
M  V30 16 C -3.853523 0.160822 -0.087610 0
M  V30 17 O -3.734087 -0.112975 1.139497 0
M  V30 18 N -4.958675 -0.338960 -0.827573 0
M  V30 19 C -5.820551 -1.127347 -0.010969 0
M  V30 20 C -5.428774 -2.464193 -0.033126 0
M  V30 21 C -6.118982 -3.440110 0.692002 0
M  V30 22 C -7.207056 -3.014836 1.430653 0
M  V30 23 C -7.606825 -1.689555 1.461239 0
M  V30 24 C -6.912604 -0.741126 0.738797 0
M  V30 25 C -2.942271 1.322300 -2.101772 0
M  V30 26 C -1.649603 2.070741 -2.406037 0
M  V30 27 C 0.791570 0.687117 -4.045217 0
M  V30 28 Br -0.448354 1.485668 -5.241964 0
M  V30 29 C 1.840490 0.119773 -4.728373 0
M  V30 30 N 2.787799 -0.502088 -3.963495 0
M  V30 31 C 2.649317 -0.525477 -2.632236 0
M  V30 32 N 3.461073 -1.073273 -1.719485 0
M  V30 33 C 4.637493 -1.967841 0.958775 0
M  V30 34 C 5.143289 -2.358467 2.193606 0
M  V30 35 H 4.150710 -0.932321 5.959394 0
M  V30 36 H 3.082748 -2.321898 5.585912 0
M  V30 37 H 4.416422 -2.613776 6.704049 0
M  V30 38 H 7.018331 -2.562603 4.244727 0
M  V30 39 H 6.491079 -3.331975 5.770374 0
M  V30 40 H 6.089883 -4.146822 4.210178 0
M  V30 41 H 2.675173 -1.041779 4.051237 0
M  V30 42 H 1.846213 -0.391596 1.895438 0
M  V30 43 H 0.367480 1.575259 -0.139213 0
M  V30 44 H -0.437318 -0.085622 -0.401850 0
M  V30 45 H -1.817062 2.559004 0.253931 0
M  V30 46 H -1.805357 1.011474 1.129770 0
M  V30 47 H -5.019140 -0.083551 -1.857578 0
M  V30 48 H -4.586873 -2.887840 -0.585709 0
M  V30 49 H -5.840552 -4.485879 0.696148 0
M  V30 50 H -7.781619 -3.745515 2.017753 0
M  V30 51 H -8.454142 -1.315006 2.027382 0
M  V30 52 H -7.112637 0.327924 0.670655 0
M  V30 53 H -3.783976 2.070368 -2.188348 0
M  V30 54 H -3.119513 0.486733 -2.773257 0
M  V30 55 H -1.641620 2.959076 -1.686069 0
M  V30 56 H -1.648146 2.522986 -3.385886 0
M  V30 57 H 2.001411 0.108461 -5.790473 0
M  V30 58 H 4.348300 -1.583222 -1.901583 0
M  V30 59 H 5.185023 -2.223859 0.065153 0
M  V30 60 H 6.073831 -2.914688 2.292445 0
M  V30 END ATOM
M  V30 BEGIN BOND
M  V30 1 1 1 2
M  V30 2 1 2 3
M  V30 3 1 2 4
M  V30 4 2 4 5
M  V30 5 1 5 6
M  V30 6 2 6 7
M  V30 7 1 7 8
M  V30 8 2 8 9
M  V30 9 1 9 10
M  V30 10 2 10 11
M  V30 11 1 11 12
M  V30 12 1 12 13
M  V30 13 1 13 14
M  V30 14 1 14 15
M  V30 15 1 15 16
M  V30 16 2 16 17
M  V30 17 1 16 18
M  V30 18 1 18 19
M  V30 19 2 19 20
M  V30 20 1 20 21
M  V30 21 2 21 22
M  V30 22 1 22 23
M  V30 23 2 23 24
M  V30 24 1 15 25
M  V30 25 1 25 26
M  V30 26 1 11 27
M  V30 27 1 27 28
M  V30 28 2 27 29
M  V30 29 1 29 30
M  V30 30 2 30 31
M  V30 31 1 31 32
M  V30 32 1 7 33
M  V30 33 2 33 34
M  V30 34 1 34 4
M  V30 35 1 32 8
M  V30 36 1 31 10
M  V30 37 1 26 12
M  V30 38 1 24 19
M  V30 39 1 1 35
M  V30 40 1 1 36
M  V30 41 1 1 37
M  V30 42 1 3 38
M  V30 43 1 3 39
M  V30 44 1 3 40
M  V30 45 1 5 41
M  V30 46 1 6 42
M  V30 47 1 13 43
M  V30 48 1 13 44
M  V30 49 1 14 45
M  V30 50 1 14 46
M  V30 51 1 18 47
M  V30 52 1 20 48
M  V30 53 1 21 49
M  V30 54 1 22 50
M  V30 55 1 23 51
M  V30 56 1 24 52
M  V30 57 1 25 53
M  V30 58 1 25 54
M  V30 59 1 26 55
M  V30 60 1 26 56
M  V30 61 1 29 57
M  V30 62 1 32 58
M  V30 63 1 33 59
M  V30 64 1 34 60
M  V30 END BOND
M  V30 END CTAB
M  END
>  <Dataset>  (649) 
ChEMBL_Kinases

>  <Ligand_Instance>  (649) 
nan

>  <PDB_ID>  (649) 
nan

>  <Standardized_SMILES>  (649) 
CN(C)c1ccc(-c2nc3c(N4CCN(C(=O)Nc5ccccc5)CC4)c(Br)cnc3[nH]2)cc1

>  <Name>  (649) 
nan

>  <Pocket>  (649) 
nan

>  <ATP_Site>  (649) 
nan

>  <Peripheral>  (649) 
nan

>  <Num_H_Atoms_ProtBoundConf>  (649) 
nan

>  <Num_Resolved_Atoms>  (649) 
nan

>  <Num_Not_Resolved_Atoms>  (649) 
nan

$$$$
CHEMBL1085132
     RDKit          3D

  0  0  0  0  0  0  0  0  0  0999 V3000
M  V30 BEGIN CTAB
M  V30 COUNTS 58 62 0 0 0
M  V30 BEGIN ATOM
M  V30 1 C 7.104517 -3.087795 3.477218 0
M  V30 2 C 5.686870 -2.659724 3.611288 0
M  V30 3 C 5.183507 -1.393965 3.845703 0
M  V30 4 C 3.789702 -1.510953 3.887338 0
M  V30 5 C 2.832643 -0.417981 4.112897 0
M  V30 6 N 2.375564 0.253258 2.945561 0
M  V30 7 C 3.380739 0.881150 2.159366 0
M  V30 8 C 2.711329 2.024898 1.379551 0
M  V30 9 N 1.495373 1.603991 0.734199 0
M  V30 10 C 0.534936 2.465206 0.160306 0
M  V30 11 C 0.678311 3.828829 0.089908 0
M  V30 12 Br 2.224132 4.757868 0.693231 0
M  V30 13 C -0.250995 4.692936 -0.435994 0
M  V30 14 N -1.412107 4.192293 -0.933828 0
M  V30 15 C -1.617023 2.850807 -0.895353 0
M  V30 16 N -2.691354 2.182021 -1.331898 0
M  V30 17 C -2.443044 0.888335 -1.081452 0
M  V30 18 C -3.290540 -0.268416 -1.360724 0
M  V30 19 C -2.883624 -1.545852 -1.037698 0
M  V30 20 C -3.708482 -2.611896 -1.315671 0
M  V30 21 C -4.934012 -2.498436 -1.904061 0
M  V30 22 O -5.916648 -3.353093 -2.279998 0
M  V30 23 C -5.996486 -4.737020 -2.188289 0
M  V30 24 C -4.953072 -5.504518 -2.949018 0
M  V30 25 O -5.033080 -5.207558 -4.320007 0
M  V30 26 C -5.327969 -1.188866 -2.224094 0
M  V30 27 C -4.518633 -0.074881 -1.958152 0
M  V30 28 N -1.240434 0.826858 -0.509213 0
M  V30 29 C -0.659679 2.023509 -0.359606 0
M  V30 30 C 1.436311 0.169015 0.745581 0
M  V30 31 C 1.409657 -0.423946 2.151846 0
M  V30 32 N 3.538793 -2.834883 3.676299 0
M  V30 33 O 4.655403 -3.465482 3.521455 0
M  V30 34 H 7.764546 -2.197716 3.334933 0
M  V30 35 H 7.454929 -3.656672 4.361752 0
M  V30 36 H 7.154047 -3.680186 2.540048 0
M  V30 37 H 5.766451 -0.495020 3.970867 0
M  V30 38 H 1.956129 -0.864674 4.627374 0
M  V30 39 H 3.210747 0.352493 4.815491 0
M  V30 40 H 3.850218 0.225767 1.409606 0
M  V30 41 H 4.203642 1.316127 2.780807 0
M  V30 42 H 2.472517 2.768709 2.179493 0
M  V30 43 H 3.415569 2.470785 0.666258 0
M  V30 44 H -0.177619 5.765121 -0.509371 0
M  V30 45 H -3.538955 2.567400 -1.770627 0
M  V30 46 H -1.943910 -1.747397 -0.575022 0
M  V30 47 H -3.462182 -3.636460 -1.085216 0
M  V30 48 H -6.032440 -5.089247 -1.125675 0
M  V30 49 H -6.981484 -5.055615 -2.607040 0
M  V30 50 H -5.171186 -6.594092 -2.823859 0
M  V30 51 H -3.921019 -5.316433 -2.641966 0
M  V30 52 H -4.439365 -5.757137 -4.855525 0
M  V30 53 H -6.268386 -0.863299 -2.699833 0
M  V30 54 H -4.791247 0.940054 -2.190826 0
M  V30 55 H 0.611664 -0.248788 0.130617 0
M  V30 56 H 2.363688 -0.194473 0.199182 0
M  V30 57 H 1.681453 -1.501860 2.065544 0
M  V30 58 H 0.406196 -0.400944 2.583561 0
M  V30 END ATOM
M  V30 BEGIN BOND
M  V30 1 1 1 2
M  V30 2 2 2 3
M  V30 3 1 3 4
M  V30 4 1 4 5
M  V30 5 1 5 6
M  V30 6 1 6 7
M  V30 7 1 7 8
M  V30 8 1 8 9
M  V30 9 1 9 10
M  V30 10 2 10 11
M  V30 11 1 11 12
M  V30 12 1 11 13
M  V30 13 2 13 14
M  V30 14 1 14 15
M  V30 15 1 15 16
M  V30 16 1 16 17
M  V30 17 1 17 18
M  V30 18 2 18 19
M  V30 19 1 19 20
M  V30 20 2 20 21
M  V30 21 1 21 22
M  V30 22 1 22 23
M  V30 23 1 23 24
M  V30 24 1 24 25
M  V30 25 1 21 26
M  V30 26 2 26 27
M  V30 27 2 17 28
M  V30 28 1 28 29
M  V30 29 1 9 30
M  V30 30 1 30 31
M  V30 31 2 4 32
M  V30 32 1 32 33
M  V30 33 1 33 2
M  V30 34 1 31 6
M  V30 35 1 29 10
M  V30 36 2 29 15
M  V30 37 1 27 18
M  V30 38 1 1 34
M  V30 39 1 1 35
M  V30 40 1 1 36
M  V30 41 1 3 37
M  V30 42 1 5 38
M  V30 43 1 5 39
M  V30 44 1 7 40
M  V30 45 1 7 41
M  V30 46 1 8 42
M  V30 47 1 8 43
M  V30 48 1 13 44
M  V30 49 1 16 45
M  V30 50 1 19 46
M  V30 51 1 20 47
M  V30 52 1 23 48
M  V30 53 1 23 49
M  V30 54 1 24 50
M  V30 55 1 24 51
M  V30 56 1 25 52
M  V30 57 1 26 53
M  V30 58 1 27 54
M  V30 59 1 30 55
M  V30 60 1 30 56
M  V30 61 1 31 57
M  V30 62 1 31 58
M  V30 END BOND
M  V30 END CTAB
M  END
>  <Dataset>  (650) 
ChEMBL_Kinases

>  <Ligand_Instance>  (650) 
nan

>  <PDB_ID>  (650) 
nan

>  <Standardized_SMILES>  (650) 
Cc1cc(CN2CCN(c3c(Br)cnc4[nH]c(-c5ccc(OCCO)cc5)nc34)CC2)no1

>  <Name>  (650) 
nan

>  <Pocket>  (650) 
nan

>  <ATP_Site>  (650) 
nan

>  <Peripheral>  (650) 
nan

>  <Num_H_Atoms_ProtBoundConf>  (650) 
nan

>  <Num_Resolved_Atoms>  (650) 
nan

>  <Num_Not_Resolved_Atoms>  (650) 
nan

$$$$
CHEMBL1088031
     RDKit          3D

  0  0  0  0  0  0  0  0  0  0999 V3000
M  V30 BEGIN CTAB
M  V30 COUNTS 46 50 0 0 0
M  V30 BEGIN ATOM
M  V30 1 O 1.432356 -0.432334 2.791400 0
M  V30 2 C 2.275450 0.393712 2.399640 0
M  V30 3 N 3.647035 0.020607 2.633545 0
M  V30 4 C 3.976147 -1.226836 3.282598 0
M  V30 5 C 4.785438 -2.252337 2.520166 0
M  V30 6 C 5.309517 -1.601120 3.733494 0
M  V30 7 C 1.952103 1.666342 1.741566 0
M  V30 8 C 2.798618 2.726597 1.461219 0
M  V30 9 C 2.326018 3.849343 0.814326 0
M  V30 10 C 1.000383 3.908479 0.446634 0
M  V30 11 F 0.593290 5.038520 -0.183309 0
M  V30 12 C 0.083399 2.876100 0.695432 0
M  V30 13 N -1.282797 2.965969 0.282538 0
M  V30 14 C -2.036263 1.787922 0.621853 0
M  V30 15 N -2.869338 1.599472 1.631645 0
M  V30 16 N -3.441934 0.428508 1.782933 0
M  V30 17 C -3.264436 -0.641240 0.988633 0
M  V30 18 C -2.402341 -0.532768 -0.101341 0
M  V30 19 C -1.800321 0.718702 -0.249890 0
M  V30 20 C -1.001568 0.570672 -1.387608 0
M  V30 21 N -1.127524 -0.680966 -1.869982 0
M  V30 22 N -1.980011 -1.362231 -1.090632 0
M  V30 23 C -2.472790 -2.709807 -1.114291 0
M  V30 24 C -3.760638 -3.117368 -1.376475 0
M  V30 25 C -3.997854 -4.467091 -1.339865 0
M  V30 26 C -3.029356 -5.393564 -1.061478 0
M  V30 27 F -3.351466 -6.700693 -1.044654 0
M  V30 28 C -1.729650 -4.955675 -0.798619 0
M  V30 29 C -1.434085 -3.586545 -0.822613 0
M  V30 30 F -0.153397 -3.264473 -0.554514 0
M  V30 31 C 0.619405 1.789854 1.342738 0
M  V30 32 H 4.416175 0.666130 2.327088 0
M  V30 33 H 3.091034 -1.717258 3.755746 0
M  V30 34 H 5.004704 -1.946320 1.484442 0
M  V30 35 H 4.485754 -3.333878 2.545008 0
M  V30 36 H 5.431766 -2.262514 4.628573 0
M  V30 37 H 6.160975 -0.895879 3.623983 0
M  V30 38 H 3.820201 2.570136 1.795429 0
M  V30 39 H 3.025557 4.651883 0.617395 0
M  V30 40 H -1.556310 3.869418 -0.208589 0
M  V30 41 H -3.752804 -1.579644 1.146971 0
M  V30 42 H -0.371235 1.320700 -1.836808 0
M  V30 43 H -4.475632 -2.316152 -1.591210 0
M  V30 44 H -5.032975 -4.751805 -1.554252 0
M  V30 45 H -0.945120 -5.698395 -0.573408 0
M  V30 46 H -0.077185 0.961356 1.552447 0
M  V30 END ATOM
M  V30 BEGIN BOND
M  V30 1 2 1 2
M  V30 2 1 2 3
M  V30 3 1 3 4
M  V30 4 1 4 5
M  V30 5 1 5 6
M  V30 6 1 2 7
M  V30 7 2 7 8
M  V30 8 1 8 9
M  V30 9 2 9 10
M  V30 10 1 10 11
M  V30 11 1 10 12
M  V30 12 1 12 13
M  V30 13 1 13 14
M  V30 14 2 14 15
M  V30 15 1 15 16
M  V30 16 2 16 17
M  V30 17 1 17 18
M  V30 18 2 18 19
M  V30 19 1 19 20
M  V30 20 2 20 21
M  V30 21 1 21 22
M  V30 22 1 22 23
M  V30 23 2 23 24
M  V30 24 1 24 25
M  V30 25 2 25 26
M  V30 26 1 26 27
M  V30 27 1 26 28
M  V30 28 2 28 29
M  V30 29 1 29 30
M  V30 30 2 12 31
M  V30 31 1 6 4
M  V30 32 1 31 7
M  V30 33 1 19 14
M  V30 34 1 29 23
M  V30 35 1 22 18
M  V30 36 1 3 32
M  V30 37 1 4 33
M  V30 38 1 5 34
M  V30 39 1 5 35
M  V30 40 1 6 36
M  V30 41 1 6 37
M  V30 42 1 8 38
M  V30 43 1 9 39
M  V30 44 1 13 40
M  V30 45 1 17 41
M  V30 46 1 20 42
M  V30 47 1 24 43
M  V30 48 1 25 44
M  V30 49 1 28 45
M  V30 50 1 31 46
M  V30 END BOND
M  V30 END CTAB
M  END
>  <Dataset>  (651) 
ChEMBL_Kinases

>  <Ligand_Instance>  (651) 
nan

>  <PDB_ID>  (651) 
nan

>  <Standardized_SMILES>  (651) 
O=C(NC1CC1)c1ccc(F)c(Nc2nncc3c2cnn3-c2ccc(F)cc2F)c1

>  <Name>  (651) 
nan

>  <Pocket>  (651) 
nan

>  <ATP_Site>  (651) 
nan

>  <Peripheral>  (651) 
nan

>  <Num_H_Atoms_ProtBoundConf>  (651) 
nan

>  <Num_Resolved_Atoms>  (651) 
nan

>  <Num_Not_Resolved_Atoms>  (651) 
nan

$$$$
CHEMBL1084454
     RDKit          3D

  0  0  0  0  0  0  0  0  0  0999 V3000
M  V30 BEGIN CTAB
M  V30 COUNTS 36 38 0 0 0
M  V30 BEGIN ATOM
M  V30 1 C 0.804166 -5.237703 4.391020 0
M  V30 2 C 0.751400 -4.257775 3.230904 0
M  V30 3 N -0.019773 -3.751193 2.563255 0
M  V30 4 C 0.115915 -2.895984 1.570264 0
M  V30 5 C -0.912128 -2.221626 0.697796 0
M  V30 6 C 1.427697 -2.538839 1.271892 0
M  V30 7 C 2.067709 -1.632207 0.283263 0
M  V30 8 C 3.402576 -1.425613 0.211293 0
M  V30 9 C 3.797788 -0.537332 -0.767168 0
M  V30 10 N 2.924630 0.090233 -1.603266 0
M  V30 11 C 1.596136 -0.155193 -1.485816 0
M  V30 12 N 0.473864 0.382260 -2.214197 0
M  V30 13 C -0.314550 1.323572 -1.464300 0
M  V30 14 C -1.444404 1.901915 -2.060017 0
M  V30 15 C -2.170002 2.784545 -1.283361 0
M  V30 16 C -1.894599 3.150173 0.010339 0
M  V30 17 N -2.708234 4.063764 0.728837 0
M  V30 18 C -0.781086 2.565194 0.561796 0
M  V30 19 C -0.001580 1.664712 -0.163823 0
M  V30 20 N 1.206212 -1.021851 -0.531687 0
M  V30 21 S 2.374128 -3.547767 2.546391 0
M  V30 22 H -0.198493 -5.654451 4.434942 0
M  V30 23 H 1.018478 -4.733323 5.341050 0
M  V30 24 H 1.593133 -5.986363 4.170897 0
M  V30 25 H -1.921696 -2.568958 0.931534 0
M  V30 26 H -0.855538 -1.124460 0.925703 0
M  V30 27 H -0.716653 -2.421858 -0.375225 0
M  V30 28 H 4.076618 -1.931866 0.881913 0
M  V30 29 H 4.839534 -0.300080 -0.910136 0
M  V30 30 H 0.225761 0.134832 -3.191977 0
M  V30 31 H -1.702695 1.644918 -3.076197 0
M  V30 32 H -3.034843 3.214066 -1.769738 0
M  V30 33 H -2.450436 4.885681 1.323575 0
M  V30 34 H -3.745361 3.993400 0.732499 0
M  V30 35 H -0.472207 2.791422 1.597093 0
M  V30 36 H 0.862201 1.226887 0.285637 0
M  V30 END ATOM
M  V30 BEGIN BOND
M  V30 1 1 1 2
M  V30 2 2 2 3
M  V30 3 1 3 4
M  V30 4 1 4 5
M  V30 5 2 4 6
M  V30 6 1 6 7
M  V30 7 2 7 8
M  V30 8 1 8 9
M  V30 9 2 9 10
M  V30 10 1 10 11
M  V30 11 1 11 12
M  V30 12 1 12 13
M  V30 13 2 13 14
M  V30 14 1 14 15
M  V30 15 2 15 16
M  V30 16 1 16 17
M  V30 17 1 16 18
M  V30 18 2 18 19
M  V30 19 2 11 20
M  V30 20 1 6 21
M  V30 21 1 21 2
M  V30 22 1 20 7
M  V30 23 1 19 13
M  V30 24 1 1 22
M  V30 25 1 1 23
M  V30 26 1 1 24
M  V30 27 1 5 25
M  V30 28 1 5 26
M  V30 29 1 5 27
M  V30 30 1 8 28
M  V30 31 1 9 29
M  V30 32 1 12 30
M  V30 33 1 14 31
M  V30 34 1 15 32
M  V30 35 1 17 33
M  V30 36 1 17 34
M  V30 37 1 18 35
M  V30 38 1 19 36
M  V30 END BOND
M  V30 END CTAB
M  END
>  <Dataset>  (652) 
ChEMBL_Kinases

>  <Ligand_Instance>  (652) 
nan

>  <PDB_ID>  (652) 
nan

>  <Standardized_SMILES>  (652) 
Cc1nc(C)c(-c2ccnc(Nc3ccc(N)cc3)n2)s1

>  <Name>  (652) 
nan

>  <Pocket>  (652) 
nan

>  <ATP_Site>  (652) 
nan

>  <Peripheral>  (652) 
nan

>  <Num_H_Atoms_ProtBoundConf>  (652) 
nan

>  <Num_Resolved_Atoms>  (652) 
nan

>  <Num_Not_Resolved_Atoms>  (652) 
nan

$$$$
CHEMBL1084636
     RDKit          3D

  0  0  0  0  0  0  0  0  0  0999 V3000
M  V30 BEGIN CTAB
M  V30 COUNTS 54 58 0 0 0
M  V30 BEGIN ATOM
M  V30 1 C -1.428605 -3.360534 3.158577 0
M  V30 2 C 0.029962 -3.201319 2.958032 0
M  V30 3 C 0.714977 -3.353027 1.785274 0
M  V30 4 C 2.026415 -3.102145 2.117994 0
M  V30 5 C 3.236297 -3.108828 1.290901 0
M  V30 6 N 3.588702 -1.882975 0.676037 0
M  V30 7 C 3.849102 -0.772104 1.491095 0
M  V30 8 C 2.887172 0.378439 1.342345 0
M  V30 9 N 2.513741 0.536253 -0.072483 0
M  V30 10 C 1.569773 1.586656 -0.258728 0
M  V30 11 C 2.086422 2.828757 -0.490789 0
M  V30 12 Br 3.945537 3.170203 -0.567004 0
M  V30 13 C 1.200998 3.870305 -0.675846 0
M  V30 14 N -0.132972 3.702487 -0.635353 0
M  V30 15 C -0.665231 2.487261 -0.408122 0
M  V30 16 N -1.926246 1.987893 -0.307223 0
M  V30 17 C -1.840246 0.675149 -0.066540 0
M  V30 18 N -2.963223 -0.166645 0.096285 0
M  V30 19 C -4.294625 0.366305 0.007887 0
M  V30 20 C -4.902766 -0.294557 -1.229810 0
M  V30 21 N -5.073005 -1.678973 -0.913874 0
M  V30 22 C -3.913401 -2.371363 -0.457643 0
M  V30 23 C -2.950691 -1.567298 0.353658 0
M  V30 24 N -0.536793 0.317022 -0.010123 0
M  V30 25 C 0.199780 1.426792 -0.219437 0
M  V30 26 C 3.063598 -0.298968 -1.126345 0
M  V30 27 C 3.208007 -1.704106 -0.664660 0
M  V30 28 N 2.072041 -2.817538 3.443374 0
M  V30 29 O 0.862920 -2.882533 3.928648 0
M  V30 30 H -1.604334 -4.065868 4.003608 0
M  V30 31 H -1.869158 -2.372383 3.362359 0
M  V30 32 H -1.883584 -3.769114 2.229437 0
M  V30 33 H 0.354165 -3.609427 0.801414 0
M  V30 34 H 4.103301 -3.522395 1.883096 0
M  V30 35 H 3.082115 -3.861113 0.484817 0
M  V30 36 H 3.769663 -1.097862 2.568225 0
M  V30 37 H 4.868480 -0.385609 1.343513 0
M  V30 38 H 3.353079 1.319289 1.651377 0
M  V30 39 H 1.937475 0.185317 1.881981 0
M  V30 40 H 1.589958 4.864644 -0.861441 0
M  V30 41 H -2.722538 2.645454 -0.422347 0
M  V30 42 H -4.896616 0.004620 0.870977 0
M  V30 43 H -4.346707 1.444651 -0.127582 0
M  V30 44 H -5.897195 0.162871 -1.339444 0
M  V30 45 H -4.268869 -0.104066 -2.111299 0
M  V30 46 H -5.906717 -1.788796 -0.299478 0
M  V30 47 H -3.381408 -2.861103 -1.299843 0
M  V30 48 H -4.256992 -3.215024 0.187150 0
M  V30 49 H -1.914085 -1.940525 0.214733 0
M  V30 50 H -3.145908 -1.690163 1.447813 0
M  V30 51 H 4.048571 0.071014 -1.475551 0
M  V30 52 H 2.302466 -0.257211 -1.952195 0
M  V30 53 H 3.922153 -2.222858 -1.339654 0
M  V30 54 H 2.226001 -2.228400 -0.839093 0
M  V30 END ATOM
M  V30 BEGIN BOND
M  V30 1 1 1 2
M  V30 2 2 2 3
M  V30 3 1 3 4
M  V30 4 1 4 5
M  V30 5 1 5 6
M  V30 6 1 6 7
M  V30 7 1 7 8
M  V30 8 1 8 9
M  V30 9 1 9 10
M  V30 10 2 10 11
M  V30 11 1 11 12
M  V30 12 1 11 13
M  V30 13 2 13 14
M  V30 14 1 14 15
M  V30 15 1 15 16
M  V30 16 1 16 17
M  V30 17 1 17 18
M  V30 18 1 18 19
M  V30 19 1 19 20
M  V30 20 1 20 21
M  V30 21 1 21 22
M  V30 22 1 22 23
M  V30 23 2 17 24
M  V30 24 1 24 25
M  V30 25 1 9 26
M  V30 26 1 26 27
M  V30 27 2 4 28
M  V30 28 1 28 29
M  V30 29 1 29 2
M  V30 30 1 27 6
M  V30 31 1 25 10
M  V30 32 2 25 15
M  V30 33 1 23 18
M  V30 34 1 1 30
M  V30 35 1 1 31
M  V30 36 1 1 32
M  V30 37 1 3 33
M  V30 38 1 5 34
M  V30 39 1 5 35
M  V30 40 1 7 36
M  V30 41 1 7 37
M  V30 42 1 8 38
M  V30 43 1 8 39
M  V30 44 1 13 40
M  V30 45 1 16 41
M  V30 46 1 19 42
M  V30 47 1 19 43
M  V30 48 1 20 44
M  V30 49 1 20 45
M  V30 50 1 21 46
M  V30 51 1 22 47
M  V30 52 1 22 48
M  V30 53 1 23 49
M  V30 54 1 23 50
M  V30 55 1 26 51
M  V30 56 1 26 52
M  V30 57 1 27 53
M  V30 58 1 27 54
M  V30 END BOND
M  V30 END CTAB
M  END
>  <Dataset>  (653) 
ChEMBL_Kinases

>  <Ligand_Instance>  (653) 
nan

>  <PDB_ID>  (653) 
nan

>  <Standardized_SMILES>  (653) 
Cc1cc(CN2CCN(c3c(Br)cnc4[nH]c(N5CCNCC5)nc34)CC2)no1

>  <Name>  (653) 
nan

>  <Pocket>  (653) 
nan

>  <ATP_Site>  (653) 
nan

>  <Peripheral>  (653) 
nan

>  <Num_H_Atoms_ProtBoundConf>  (653) 
nan

>  <Num_Resolved_Atoms>  (653) 
nan

>  <Num_Not_Resolved_Atoms>  (653) 
nan

$$$$
CHEMBL1084664
     RDKit          3D

  0  0  0  0  0  0  0  0  0  0999 V3000
M  V30 BEGIN CTAB
M  V30 COUNTS 33 35 0 0 0
M  V30 BEGIN ATOM
M  V30 1 C 2.160842 -3.972843 3.989273 0
M  V30 2 O 1.603053 -2.672364 4.069630 0
M  V30 3 C 1.158340 -2.011213 2.951558 0
M  V30 4 C 1.258322 -2.631642 1.718283 0
M  V30 5 C 0.818149 -1.983523 0.585003 0
M  V30 6 C 0.267423 -0.733890 0.554352 0
M  V30 7 C 0.188331 -0.163595 1.791381 0
M  V30 8 C 0.599482 -0.724830 2.980070 0
M  V30 9 Cl 0.479444 0.046852 4.542185 0
M  V30 10 C -0.295630 -0.054571 -0.582649 0
M  V30 11 C -0.899693 1.245660 -0.644780 0
M  V30 12 C -1.041082 2.373651 0.098047 0
M  V30 13 C -1.796321 3.493473 -0.103625 0
M  V30 14 C -2.553082 3.533199 -1.232343 0
M  V30 15 C -2.524392 2.472750 -2.097090 0
M  V30 16 F -3.290138 2.552482 -3.204860 0
M  V30 17 C -1.725253 1.408207 -1.778286 0
M  V30 18 N -0.223217 -0.811138 -1.595391 0
M  V30 19 C 0.263241 -2.096870 -1.819894 0
M  V30 20 C 0.989634 -2.724159 -0.684193 0
M  V30 21 H 3.188093 -3.953681 3.524800 0
M  V30 22 H 2.244544 -4.400119 5.026284 0
M  V30 23 H 1.537751 -4.687303 3.417090 0
M  V30 24 H 1.685068 -3.619404 1.684807 0
M  V30 25 H -0.247495 0.775458 1.960021 0
M  V30 26 H -0.393167 2.369551 0.945380 0
M  V30 27 H -1.745867 4.270686 0.640254 0
M  V30 28 H -3.153799 4.395574 -1.415345 0
M  V30 29 H -1.803303 0.638643 -2.555581 0
M  V30 30 H -0.570677 -2.768561 -2.198377 0
M  V30 31 H 0.977052 -2.071028 -2.701196 0
M  V30 32 H 2.093853 -2.689467 -0.901002 0
M  V30 33 H 0.691471 -3.788055 -0.528698 0
M  V30 END ATOM
M  V30 BEGIN BOND
M  V30 1 1 1 2
M  V30 2 1 2 3
M  V30 3 2 3 4
M  V30 4 1 4 5
M  V30 5 2 5 6
M  V30 6 1 6 7
M  V30 7 2 7 8
M  V30 8 1 8 9
M  V30 9 1 6 10
M  V30 10 1 10 11
M  V30 11 2 11 12
M  V30 12 1 12 13
M  V30 13 2 13 14
M  V30 14 1 14 15
M  V30 15 1 15 16
M  V30 16 2 15 17
M  V30 17 2 10 18
M  V30 18 1 18 19
M  V30 19 1 19 20
M  V30 20 1 8 3
M  V30 21 1 17 11
M  V30 22 1 20 5
M  V30 23 1 1 21
M  V30 24 1 1 22
M  V30 25 1 1 23
M  V30 26 1 4 24
M  V30 27 1 7 25
M  V30 28 1 12 26
M  V30 29 1 13 27
M  V30 30 1 14 28
M  V30 31 1 17 29
M  V30 32 1 19 30
M  V30 33 1 19 31
M  V30 34 1 20 32
M  V30 35 1 20 33
M  V30 END BOND
M  V30 END CTAB
M  END
>  <Dataset>  (654) 
ChEMBL_Kinases

>  <Ligand_Instance>  (654) 
nan

>  <PDB_ID>  (654) 
nan

>  <Standardized_SMILES>  (654) 
COc1cc2c(cc1Cl)C(c1cccc(F)c1)=NCC2

>  <Name>  (654) 
nan

>  <Pocket>  (654) 
nan

>  <ATP_Site>  (654) 
nan

>  <Peripheral>  (654) 
nan

>  <Num_H_Atoms_ProtBoundConf>  (654) 
nan

>  <Num_Resolved_Atoms>  (654) 
nan

>  <Num_Not_Resolved_Atoms>  (654) 
nan

$$$$
CHEMBL1084681
     RDKit          3D

  0  0  0  0  0  0  0  0  0  0999 V3000
M  V30 BEGIN CTAB
M  V30 COUNTS 38 40 0 0 0
M  V30 BEGIN ATOM
M  V30 1 C -0.279095 3.491742 3.690438 0
M  V30 2 C 1.122086 2.936790 3.545482 0
M  V30 3 C 1.056550 1.427112 3.788795 0
M  V30 4 C 0.132804 0.821536 2.764314 0
M  V30 5 O -0.577804 1.216072 1.783594 0
M  V30 6 N -0.057477 -0.603868 2.844817 0
M  V30 7 C -0.962028 -1.032203 1.804622 0
M  V30 8 N -2.296316 -1.113901 1.914766 0
M  V30 9 N -2.825024 -1.541556 0.776225 0
M  V30 10 C -1.831707 -1.757115 -0.132275 0
M  V30 11 C -1.846436 -2.198235 -1.448313 0
M  V30 12 C -0.633076 -2.308536 -2.101811 0
M  V30 13 C -0.616848 -2.771056 -3.487489 0
M  V30 14 C -1.522128 -3.668683 -4.020112 0
M  V30 15 C -1.455386 -4.068955 -5.340458 0
M  V30 16 C -0.445850 -3.538653 -6.118547 0
M  V30 17 F -0.326320 -3.897787 -7.439170 0
M  V30 18 C 0.497960 -2.638619 -5.667713 0
M  V30 19 C 0.376145 -2.277786 -4.335640 0
M  V30 20 C 0.536099 -1.984543 -1.443823 0
M  V30 21 C 0.575916 -1.543039 -0.132973 0
M  V30 22 C -0.655660 -1.434566 0.519793 0
M  V30 23 H -0.901012 2.883725 4.381895 0
M  V30 24 H -0.732804 3.576006 2.678611 0
M  V30 25 H -0.229191 4.509415 4.155193 0
M  V30 26 H 1.841521 3.412660 4.232306 0
M  V30 27 H 1.527012 3.087646 2.506417 0
M  V30 28 H 2.045842 0.962731 3.703043 0
M  V30 29 H 0.612291 1.232825 4.768748 0
M  V30 30 H 0.391420 -1.255115 3.555426 0
M  V30 31 H -3.846391 -1.688585 0.607435 0
M  V30 32 H -2.799945 -2.432848 -1.896784 0
M  V30 33 H -2.291105 -4.043214 -3.340158 0
M  V30 34 H -2.173412 -4.776466 -5.749456 0
M  V30 35 H 1.280384 -2.236675 -6.296171 0
M  V30 36 H 1.115656 -1.561088 -3.948850 0
M  V30 37 H 1.496051 -2.063763 -1.937068 0
M  V30 38 H 1.455162 -1.280100 0.420166 0
M  V30 END ATOM
M  V30 BEGIN BOND
M  V30 1 1 1 2
M  V30 2 1 2 3
M  V30 3 1 3 4
M  V30 4 2 4 5
M  V30 5 1 4 6
M  V30 6 1 6 7
M  V30 7 2 7 8
M  V30 8 1 8 9
M  V30 9 1 9 10
M  V30 10 2 10 11
M  V30 11 1 11 12
M  V30 12 1 12 13
M  V30 13 2 13 14
M  V30 14 1 14 15
M  V30 15 2 15 16
M  V30 16 1 16 17
M  V30 17 1 16 18
M  V30 18 2 18 19
M  V30 19 2 12 20
M  V30 20 1 20 21
M  V30 21 2 21 22
M  V30 22 1 22 7
M  V30 23 1 22 10
M  V30 24 1 19 13
M  V30 25 1 1 23
M  V30 26 1 1 24
M  V30 27 1 1 25
M  V30 28 1 2 26
M  V30 29 1 2 27
M  V30 30 1 3 28
M  V30 31 1 3 29
M  V30 32 1 6 30
M  V30 33 1 9 31
M  V30 34 1 11 32
M  V30 35 1 14 33
M  V30 36 1 15 34
M  V30 37 1 18 35
M  V30 38 1 19 36
M  V30 39 1 20 37
M  V30 40 1 21 38
M  V30 END BOND
M  V30 END CTAB
M  END
>  <Dataset>  (655) 
ChEMBL_Kinases

>  <Ligand_Instance>  (655) 
nan

>  <PDB_ID>  (655) 
nan

>  <Standardized_SMILES>  (655) 
CCCC(=O)Nc1n[nH]c2cc(-c3ccc(F)cc3)ccc12

>  <Name>  (655) 
nan

>  <Pocket>  (655) 
nan

>  <ATP_Site>  (655) 
nan

>  <Peripheral>  (655) 
nan

>  <Num_H_Atoms_ProtBoundConf>  (655) 
nan

>  <Num_Resolved_Atoms>  (655) 
nan

>  <Num_Not_Resolved_Atoms>  (655) 
nan

$$$$
CHEMBL1084682
     RDKit          3D

  0  0  0  0  0  0  0  0  0  0999 V3000
M  V30 BEGIN CTAB
M  V30 COUNTS 38 40 0 0 0
M  V30 BEGIN ATOM
M  V30 1 C 1.164203 -5.633325 4.005163 0
M  V30 2 C 0.638122 -5.878664 2.628069 0
M  V30 3 C 1.381926 -5.074072 1.591900 0
M  V30 4 C 1.294063 -3.604164 1.819446 0
M  V30 5 O 0.747579 -2.864081 2.680779 0
M  V30 6 N 2.007205 -2.862427 0.808170 0
M  V30 7 C 1.990719 -1.421722 0.930525 0
M  V30 8 N 2.914089 -0.709712 1.616544 0
M  V30 9 N 2.632312 0.585594 1.548027 0
M  V30 10 C 1.498949 0.751682 0.802675 0
M  V30 11 C 0.768751 1.869004 0.417446 0
M  V30 12 C -0.375818 1.715619 -0.364022 0
M  V30 13 C -1.165596 2.871283 -0.785638 0
M  V30 14 C -1.165409 3.932607 0.127108 0
M  V30 15 C -1.897922 5.063697 -0.211668 0
M  V30 16 Cl -1.886787 6.394933 0.949751 0
M  V30 17 C -2.591466 5.120838 -1.403785 0
M  V30 18 C -2.575309 4.061189 -2.285891 0
M  V30 19 Cl -3.475064 4.185612 -3.788014 0
M  V30 20 C -1.854699 2.898438 -1.995893 0
M  V30 21 C -0.724682 0.428847 -0.718113 0
M  V30 22 C -0.048843 -0.725425 -0.372745 0
M  V30 23 C 1.090568 -0.510185 0.411260 0
M  V30 24 H 0.487632 -5.034893 4.650727 0
M  V30 25 H 1.358630 -6.615728 4.488948 0
M  V30 26 H 2.146173 -5.095101 3.997775 0
M  V30 27 H -0.432847 -5.676452 2.498295 0
M  V30 28 H 0.812533 -6.949445 2.336825 0
M  V30 29 H 1.013609 -5.272692 0.571142 0
M  V30 30 H 2.476982 -5.335662 1.581542 0
M  V30 31 H 2.527345 -3.251225 0.006895 0
M  V30 32 H 3.195404 1.329386 1.995287 0
M  V30 33 H 1.096908 2.848858 0.728477 0
M  V30 34 H -0.630369 3.892175 1.050064 0
M  V30 35 H -3.133474 6.050132 -1.575094 0
M  V30 36 H -1.822779 2.066707 -2.653523 0
M  V30 37 H -1.616182 0.336697 -1.324840 0
M  V30 38 H -0.371733 -1.709457 -0.681431 0
M  V30 END ATOM
M  V30 BEGIN BOND
M  V30 1 1 1 2
M  V30 2 1 2 3
M  V30 3 1 3 4
M  V30 4 2 4 5
M  V30 5 1 4 6
M  V30 6 1 6 7
M  V30 7 2 7 8
M  V30 8 1 8 9
M  V30 9 1 9 10
M  V30 10 2 10 11
M  V30 11 1 11 12
M  V30 12 1 12 13
M  V30 13 2 13 14
M  V30 14 1 14 15
M  V30 15 1 15 16
M  V30 16 2 15 17
M  V30 17 1 17 18
M  V30 18 1 18 19
M  V30 19 2 18 20
M  V30 20 2 12 21
M  V30 21 1 21 22
M  V30 22 2 22 23
M  V30 23 1 23 7
M  V30 24 1 23 10
M  V30 25 1 20 13
M  V30 26 1 1 24
M  V30 27 1 1 25
M  V30 28 1 1 26
M  V30 29 1 2 27
M  V30 30 1 2 28
M  V30 31 1 3 29
M  V30 32 1 3 30
M  V30 33 1 6 31
M  V30 34 1 9 32
M  V30 35 1 11 33
M  V30 36 1 14 34
M  V30 37 1 17 35
M  V30 38 1 20 36
M  V30 39 1 21 37
M  V30 40 1 22 38
M  V30 END BOND
M  V30 END CTAB
M  END
>  <Dataset>  (656) 
ChEMBL_Kinases

>  <Ligand_Instance>  (656) 
nan

>  <PDB_ID>  (656) 
nan

>  <Standardized_SMILES>  (656) 
CCCC(=O)Nc1n[nH]c2cc(-c3cc(Cl)cc(Cl)c3)ccc12

>  <Name>  (656) 
nan

>  <Pocket>  (656) 
nan

>  <ATP_Site>  (656) 
nan

>  <Peripheral>  (656) 
nan

>  <Num_H_Atoms_ProtBoundConf>  (656) 
nan

>  <Num_Resolved_Atoms>  (656) 
nan

>  <Num_Not_Resolved_Atoms>  (656) 
nan

$$$$
CHEMBL1084683
     RDKit          3D

  0  0  0  0  0  0  0  0  0  0999 V3000
M  V30 BEGIN CTAB
M  V30 COUNTS 42 44 0 0 0
M  V30 BEGIN ATOM
M  V30 1 C 0.268832 -6.632566 2.189071 0
M  V30 2 C 0.085769 -7.210709 0.802400 0
M  V30 3 C -0.438822 -6.128025 -0.140683 0
M  V30 4 C 0.574196 -5.040582 -0.153567 0
M  V30 5 O 1.691767 -4.775040 0.371961 0
M  V30 6 N 0.181034 -3.974303 -1.008561 0
M  V30 7 C 0.847788 -2.752924 -1.309068 0
M  V30 8 N 1.746481 -2.470401 -2.294186 0
M  V30 9 N 2.122484 -1.196983 -2.216368 0
M  V30 10 C 1.488801 -0.580964 -1.176058 0
M  V30 11 C 1.554467 0.717307 -0.706949 0
M  V30 12 C 0.779071 1.063702 0.392444 0
M  V30 13 C 0.757611 2.398275 0.983490 0
M  V30 14 C 0.532816 2.539958 2.332863 0
M  V30 15 C 0.507066 3.791437 2.919516 0
M  V30 16 C 0.715358 4.882063 2.096376 0
M  V30 17 O 0.681795 6.123691 2.724029 0
M  V30 18 C -0.604145 6.741208 2.777307 0
M  V30 19 F -1.462713 5.903892 3.476895 0
M  V30 20 F -0.563074 7.998768 3.317113 0
M  V30 21 F -1.155408 6.862776 1.504264 0
M  V30 22 C 0.946001 4.797009 0.733344 0
M  V30 23 C 0.963595 3.527180 0.187591 0
M  V30 24 C -0.031344 0.091229 0.976439 0
M  V30 25 C -0.068750 -1.202546 0.474529 0
M  V30 26 C 0.697262 -1.566126 -0.620740 0
M  V30 27 H -0.020651 -7.353974 2.986988 0
M  V30 28 H 1.334821 -6.388372 2.406767 0
M  V30 29 H -0.405537 -5.764511 2.308621 0
M  V30 30 H -0.694902 -8.015111 0.817812 0
M  V30 31 H 0.994660 -7.628419 0.364588 0
M  V30 32 H -0.638921 -6.516881 -1.136664 0
M  V30 33 H -1.397636 -5.797244 0.325506 0
M  V30 34 H -0.707839 -3.913205 -1.583654 0
M  V30 35 H 2.812708 -0.757593 -2.878982 0
M  V30 36 H 2.176806 1.471622 -1.151982 0
M  V30 37 H 0.372100 1.665385 2.957512 0
M  V30 38 H 0.330236 3.903481 3.980314 0
M  V30 39 H 1.104705 5.672688 0.121354 0
M  V30 40 H 1.138853 3.392326 -0.872930 0
M  V30 41 H -0.657621 0.287194 1.828360 0
M  V30 42 H -0.694827 -1.957260 0.924651 0
M  V30 END ATOM
M  V30 BEGIN BOND
M  V30 1 1 1 2
M  V30 2 1 2 3
M  V30 3 1 3 4
M  V30 4 2 4 5
M  V30 5 1 4 6
M  V30 6 1 6 7
M  V30 7 2 7 8
M  V30 8 1 8 9
M  V30 9 1 9 10
M  V30 10 2 10 11
M  V30 11 1 11 12
M  V30 12 1 12 13
M  V30 13 2 13 14
M  V30 14 1 14 15
M  V30 15 2 15 16
M  V30 16 1 16 17
M  V30 17 1 17 18
M  V30 18 1 18 19
M  V30 19 1 18 20
M  V30 20 1 18 21
M  V30 21 1 16 22
M  V30 22 2 22 23
M  V30 23 2 12 24
M  V30 24 1 24 25
M  V30 25 2 25 26
M  V30 26 1 26 7
M  V30 27 1 26 10
M  V30 28 1 23 13
M  V30 29 1 1 27
M  V30 30 1 1 28
M  V30 31 1 1 29
M  V30 32 1 2 30
M  V30 33 1 2 31
M  V30 34 1 3 32
M  V30 35 1 3 33
M  V30 36 1 6 34
M  V30 37 1 9 35
M  V30 38 1 11 36
M  V30 39 1 14 37
M  V30 40 1 15 38
M  V30 41 1 22 39
M  V30 42 1 23 40
M  V30 43 1 24 41
M  V30 44 1 25 42
M  V30 END BOND
M  V30 END CTAB
M  END
>  <Dataset>  (657) 
ChEMBL_Kinases

>  <Ligand_Instance>  (657) 
nan

>  <PDB_ID>  (657) 
nan

>  <Standardized_SMILES>  (657) 
CCCC(=O)Nc1n[nH]c2cc(-c3ccc(OC(F)(F)F)cc3)ccc12

>  <Name>  (657) 
nan

>  <Pocket>  (657) 
nan

>  <ATP_Site>  (657) 
nan

>  <Peripheral>  (657) 
nan

>  <Num_H_Atoms_ProtBoundConf>  (657) 
nan

>  <Num_Resolved_Atoms>  (657) 
nan

>  <Num_Not_Resolved_Atoms>  (657) 
nan

$$$$
CHEMBL1084684
     RDKit          3D

  0  0  0  0  0  0  0  0  0  0999 V3000
M  V30 BEGIN CTAB
M  V30 COUNTS 44 46 0 0 0
M  V30 BEGIN ATOM
M  V30 1 C -1.002206 -6.550561 1.013053 0
M  V30 2 C -0.223093 -5.322564 0.529237 0
M  V30 3 C -1.076312 -4.399277 -0.275266 0
M  V30 4 C -0.348542 -3.201498 -0.757016 0
M  V30 5 O 0.876968 -2.934091 -0.539107 0
M  V30 6 N -1.062046 -2.254229 -1.532670 0
M  V30 7 C -0.253409 -1.129649 -1.946613 0
M  V30 8 N 0.486279 -0.951721 -3.032863 0
M  V30 9 N 1.061789 0.243618 -2.998893 0
M  V30 10 C 0.668238 0.830350 -1.854166 0
M  V30 11 C 0.970398 2.082302 -1.316962 0
M  V30 12 C 0.419229 2.435581 -0.103409 0
M  V30 13 C 0.664903 3.748780 0.579055 0
M  V30 14 C 1.885410 3.576754 1.473440 0
M  V30 15 C 1.647530 2.506510 2.497382 0
M  V30 16 C 1.105237 2.766564 3.738028 0
M  V30 17 C 0.910393 1.740171 4.637458 0
M  V30 18 C 1.244993 0.421295 4.341265 0
M  V30 19 C 1.788148 0.143169 3.105797 0
M  V30 20 C 1.977633 1.195012 2.209364 0
M  V30 21 C -0.412394 1.595199 0.585212 0
M  V30 22 C -0.728381 0.351728 0.078140 0
M  V30 23 C -0.176237 -0.004977 -1.139888 0
M  V30 24 H -2.014935 -6.166947 1.321312 0
M  V30 25 H -0.555588 -6.976450 1.936116 0
M  V30 26 H -1.188255 -7.268086 0.210694 0
M  V30 27 H 0.679207 -5.656623 0.008941 0
M  V30 28 H 0.138971 -4.828854 1.472692 0
M  V30 29 H -1.927057 -4.060177 0.351300 0
M  V30 30 H -1.508356 -5.000582 -1.103934 0
M  V30 31 H -2.090074 -2.368140 -1.780409 0
M  V30 32 H 1.704706 0.643018 -3.739480 0
M  V30 33 H 1.617621 2.793708 -1.805187 0
M  V30 34 H -0.203931 4.072107 1.160722 0
M  V30 35 H 0.916888 4.536188 -0.140758 0
M  V30 36 H 2.730449 3.328096 0.818003 0
M  V30 37 H 2.039304 4.515207 2.013357 0
M  V30 38 H 0.838120 3.784178 3.988766 0
M  V30 39 H 0.486703 1.907325 5.621363 0
M  V30 40 H 1.099083 -0.400917 5.036517 0
M  V30 41 H 2.060340 -0.863233 2.837947 0
M  V30 42 H 2.404559 0.966588 1.242280 0
M  V30 43 H -0.865797 1.836119 1.542179 0
M  V30 44 H -1.388603 -0.351812 0.594589 0
M  V30 END ATOM
M  V30 BEGIN BOND
M  V30 1 1 1 2
M  V30 2 1 2 3
M  V30 3 1 3 4
M  V30 4 2 4 5
M  V30 5 1 4 6
M  V30 6 1 6 7
M  V30 7 2 7 8
M  V30 8 1 8 9
M  V30 9 1 9 10
M  V30 10 2 10 11
M  V30 11 1 11 12
M  V30 12 1 12 13
M  V30 13 1 13 14
M  V30 14 1 14 15
M  V30 15 2 15 16
M  V30 16 1 16 17
M  V30 17 2 17 18
M  V30 18 1 18 19
M  V30 19 2 19 20
M  V30 20 2 12 21
M  V30 21 1 21 22
M  V30 22 2 22 23
M  V30 23 1 23 7
M  V30 24 1 23 10
M  V30 25 1 20 15
M  V30 26 1 1 24
M  V30 27 1 1 25
M  V30 28 1 1 26
M  V30 29 1 2 27
M  V30 30 1 2 28
M  V30 31 1 3 29
M  V30 32 1 3 30
M  V30 33 1 6 31
M  V30 34 1 9 32
M  V30 35 1 11 33
M  V30 36 1 13 34
M  V30 37 1 13 35
M  V30 38 1 14 36
M  V30 39 1 14 37
M  V30 40 1 16 38
M  V30 41 1 17 39
M  V30 42 1 18 40
M  V30 43 1 19 41
M  V30 44 1 20 42
M  V30 45 1 21 43
M  V30 46 1 22 44
M  V30 END BOND
M  V30 END CTAB
M  END
>  <Dataset>  (658) 
ChEMBL_Kinases

>  <Ligand_Instance>  (658) 
nan

>  <PDB_ID>  (658) 
nan

>  <Standardized_SMILES>  (658) 
CCCC(=O)Nc1n[nH]c2cc(CCc3ccccc3)ccc12

>  <Name>  (658) 
nan

>  <Pocket>  (658) 
nan

>  <ATP_Site>  (658) 
nan

>  <Peripheral>  (658) 
nan

>  <Num_H_Atoms_ProtBoundConf>  (658) 
nan

>  <Num_Resolved_Atoms>  (658) 
nan

>  <Num_Not_Resolved_Atoms>  (658) 
nan

$$$$
CHEMBL1085131
     RDKit          3D

  0  0  0  0  0  0  0  0  0  0999 V3000
M  V30 BEGIN CTAB
M  V30 COUNTS 55 59 0 0 0
M  V30 BEGIN ATOM
M  V30 1 C 0.168410 -4.094642 3.748576 0
M  V30 2 C 1.269300 -3.609693 2.846732 0
M  V30 3 C 2.254631 -2.673223 3.175963 0
M  V30 4 C 3.060068 -2.528557 2.040753 0
M  V30 5 C 4.209028 -1.613301 2.024483 0
M  V30 6 N 3.943059 -0.285782 1.600522 0
M  V30 7 C 3.016614 0.477638 2.320589 0
M  V30 8 C 2.201889 1.462847 1.561455 0
M  V30 9 N 2.229275 1.245289 0.125007 0
M  V30 10 C 1.339028 2.154881 -0.551579 0
M  V30 11 C 1.705444 3.419541 -1.023020 0
M  V30 12 Cl 3.345914 3.924065 -0.774432 0
M  V30 13 C 0.728721 4.174528 -1.653825 0
M  V30 14 N -0.537186 3.750858 -1.829969 0
M  V30 15 C -0.919908 2.526302 -1.381666 0
M  V30 16 N -2.102536 1.885030 -1.434030 0
M  V30 17 C -1.886462 0.706742 -0.831986 0
M  V30 18 C -2.919227 -0.335627 -0.657348 0
M  V30 19 C -4.179694 -0.068816 -1.148131 0
M  V30 20 C -5.137427 -1.050740 -0.979430 0
M  V30 21 C -4.844373 -2.242083 -0.349038 0
M  V30 22 C -5.823085 -3.352267 -0.127931 0
M  V30 23 N -5.738035 -4.229233 -1.297428 0
M  V30 24 C -3.571032 -2.491912 0.137741 0
M  V30 25 C -2.597249 -1.521255 -0.021079 0
M  V30 26 N -0.594974 0.597137 -0.404347 0
M  V30 27 C 0.019158 1.748121 -0.751240 0
M  V30 28 C 3.035922 0.251896 -0.561928 0
M  V30 29 C 4.276245 0.067709 0.277461 0
M  V30 30 N 2.534282 -3.359054 1.116763 0
M  V30 31 O 1.501705 -3.965648 1.619535 0
M  V30 32 H -0.143766 -5.109891 3.489050 0
M  V30 33 H -0.650135 -3.352238 3.656819 0
M  V30 34 H 0.543417 -3.989962 4.786662 0
M  V30 35 H 2.272066 -2.222957 4.163300 0
M  V30 36 H 4.938140 -2.046030 1.278885 0
M  V30 37 H 4.770668 -1.624844 2.984566 0
M  V30 38 H 2.332672 -0.207413 2.863127 0
M  V30 39 H 3.573753 1.021568 3.137047 0
M  V30 40 H 2.528524 2.503622 1.796578 0
M  V30 41 H 1.136997 1.425513 1.870907 0
M  V30 42 H 1.130681 5.135292 -1.975870 0
M  V30 43 H -2.994353 2.231645 -1.853117 0
M  V30 44 H -4.476244 0.839000 -1.649896 0
M  V30 45 H -6.170161 -0.923179 -1.339884 0
M  V30 46 H -5.643582 -3.881111 0.813883 0
M  V30 47 H -6.860025 -2.920700 -0.066016 0
M  V30 48 H -4.702981 -4.328449 -1.501996 0
M  V30 49 H -6.121858 -3.656607 -2.103590 0
M  V30 50 H -3.310210 -3.415541 0.636339 0
M  V30 51 H -1.567304 -1.627538 0.328906 0
M  V30 52 H 3.260493 0.605683 -1.587315 0
M  V30 53 H 2.405572 -0.680687 -0.550531 0
M  V30 54 H 4.810610 1.052065 0.269280 0
M  V30 55 H 4.894600 -0.738925 -0.157058 0
M  V30 END ATOM
M  V30 BEGIN BOND
M  V30 1 1 1 2
M  V30 2 2 2 3
M  V30 3 1 3 4
M  V30 4 1 4 5
M  V30 5 1 5 6
M  V30 6 1 6 7
M  V30 7 1 7 8
M  V30 8 1 8 9
M  V30 9 1 9 10
M  V30 10 2 10 11
M  V30 11 1 11 12
M  V30 12 1 11 13
M  V30 13 2 13 14
M  V30 14 1 14 15
M  V30 15 1 15 16
M  V30 16 1 16 17
M  V30 17 1 17 18
M  V30 18 2 18 19
M  V30 19 1 19 20
M  V30 20 2 20 21
M  V30 21 1 21 22
M  V30 22 1 22 23
M  V30 23 1 21 24
M  V30 24 2 24 25
M  V30 25 2 17 26
M  V30 26 1 26 27
M  V30 27 1 9 28
M  V30 28 1 28 29
M  V30 29 2 4 30
M  V30 30 1 30 31
M  V30 31 1 31 2
M  V30 32 1 29 6
M  V30 33 1 27 10
M  V30 34 2 27 15
M  V30 35 1 25 18
M  V30 36 1 1 32
M  V30 37 1 1 33
M  V30 38 1 1 34
M  V30 39 1 3 35
M  V30 40 1 5 36
M  V30 41 1 5 37
M  V30 42 1 7 38
M  V30 43 1 7 39
M  V30 44 1 8 40
M  V30 45 1 8 41
M  V30 46 1 13 42
M  V30 47 1 16 43
M  V30 48 1 19 44
M  V30 49 1 20 45
M  V30 50 1 22 46
M  V30 51 1 22 47
M  V30 52 1 23 48
M  V30 53 1 23 49
M  V30 54 1 24 50
M  V30 55 1 25 51
M  V30 56 1 28 52
M  V30 57 1 28 53
M  V30 58 1 29 54
M  V30 59 1 29 55
M  V30 END BOND
M  V30 END CTAB
M  END
>  <Dataset>  (659) 
ChEMBL_Kinases

>  <Ligand_Instance>  (659) 
nan

>  <PDB_ID>  (659) 
nan

>  <Standardized_SMILES>  (659) 
Cc1cc(CN2CCN(c3c(Cl)cnc4[nH]c(-c5ccc(CN)cc5)nc34)CC2)no1

>  <Name>  (659) 
nan

>  <Pocket>  (659) 
nan

>  <ATP_Site>  (659) 
nan

>  <Peripheral>  (659) 
nan

>  <Num_H_Atoms_ProtBoundConf>  (659) 
nan

>  <Num_Resolved_Atoms>  (659) 
nan

>  <Num_Not_Resolved_Atoms>  (659) 
nan

$$$$
CHEMBL1084858
     RDKit          3D

  0  0  0  0  0  0  0  0  0  0999 V3000
M  V30 BEGIN CTAB
M  V30 COUNTS 66 71 0 0 0
M  V30 BEGIN ATOM
M  V30 1 Br 1.919798 -5.208986 5.781094 0
M  V30 2 C 1.986963 -3.402256 5.175163 0
M  V30 3 C 2.372471 -2.347264 5.985257 0
M  V30 4 N 2.411187 -1.068218 5.526643 0
M  V30 5 C 2.071873 -0.763411 4.245895 0
M  V30 6 N 2.005206 0.362589 3.503507 0
M  V30 7 C 1.591880 0.029642 2.267541 0
M  V30 8 C 1.377002 0.922115 1.134511 0
M  V30 9 C 1.602705 2.275957 1.270252 0
M  V30 10 C 1.386402 3.102885 0.162511 0
M  V30 11 C 0.963749 2.601835 -1.027813 0
M  V30 12 C 0.705118 3.384472 -2.257481 0
M  V30 13 N -0.663114 3.836924 -2.314493 0
M  V30 14 C -0.906501 4.671953 -1.155361 0
M  V30 15 C -2.299442 5.260365 -1.293695 0
M  V30 16 O -2.272315 6.121787 -2.390136 0
M  V30 17 C -2.183539 5.326623 -3.532292 0
M  V30 18 C -0.840662 4.633231 -3.509767 0
M  V30 19 C 0.739096 1.243020 -1.157734 0
M  V30 20 C 0.952473 0.426689 -0.064705 0
M  V30 21 N 1.409531 -1.303341 2.268240 0
M  V30 22 C 1.693838 -1.840036 3.470869 0
M  V30 23 C 1.628909 -3.164764 3.862411 0
M  V30 24 N 1.212018 -4.164015 2.921176 0
M  V30 25 C -0.204311 -4.373718 2.935566 0
M  V30 26 C -0.583510 -5.252963 1.788819 0
M  V30 27 N 0.066105 -4.943899 0.561526 0
M  V30 28 C -0.397641 -3.758621 -0.085233 0
M  V30 29 C -1.821256 -3.786744 -0.435632 0
M  V30 30 C -2.243762 -4.276660 -1.674530 0
M  V30 31 C -3.613312 -4.281215 -1.958607 0
M  V30 32 C -4.553053 -3.812604 -1.041795 0
M  V30 33 N -4.142228 -3.333831 0.168513 0
M  V30 34 C -2.816368 -3.339662 0.419390 0
M  V30 35 C 1.501060 -4.974988 0.621070 0
M  V30 36 C 2.047784 -4.924801 2.020639 0
M  V30 37 H 2.645437 -2.564593 7.002748 0
M  V30 38 H 2.243631 1.310439 3.868582 0
M  V30 39 H 1.939485 2.731865 2.192655 0
M  V30 40 H 1.541735 4.174991 0.191340 0
M  V30 41 H 0.897346 2.793293 -3.179283 0
M  V30 42 H 1.385206 4.274509 -2.325233 0
M  V30 43 H -0.841068 4.090747 -0.216216 0
M  V30 44 H -0.172441 5.507347 -1.109466 0
M  V30 45 H -2.540958 5.791154 -0.369886 0
M  V30 46 H -2.970433 4.394195 -1.506368 0
M  V30 47 H -2.243701 5.911668 -4.465382 0
M  V30 48 H -3.009181 4.573452 -3.459059 0
M  V30 49 H -0.055063 5.417075 -3.528217 0
M  V30 50 H -0.767558 3.958076 -4.388025 0
M  V30 51 H 0.399167 0.715718 -2.057870 0
M  V30 52 H 0.788627 -0.651110 -0.119519 0
M  V30 53 H -0.720205 -3.376985 2.880200 0
M  V30 54 H -0.492549 -4.869929 3.889047 0
M  V30 55 H -1.680273 -5.173978 1.611631 0
M  V30 56 H -0.348195 -6.309970 2.046496 0
M  V30 57 H -0.106979 -2.856722 0.492227 0
M  V30 58 H 0.192831 -3.672589 -1.042322 0
M  V30 59 H -1.521175 -4.643165 -2.394061 0
M  V30 60 H -3.919190 -4.660064 -2.912498 0
M  V30 61 H -5.607887 -3.827688 -1.287879 0
M  V30 62 H -2.565824 -2.949808 1.388159 0
M  V30 63 H 1.840136 -5.919231 0.142268 0
M  V30 64 H 1.898341 -4.154424 -0.013907 0
M  V30 65 H 3.081269 -4.511726 1.955531 0
M  V30 66 H 2.162096 -5.954938 2.440226 0
M  V30 END ATOM
M  V30 BEGIN BOND
M  V30 1 1 1 2
M  V30 2 2 2 3
M  V30 3 1 3 4
M  V30 4 2 4 5
M  V30 5 1 5 6
M  V30 6 1 6 7
M  V30 7 1 7 8
M  V30 8 2 8 9
M  V30 9 1 9 10
M  V30 10 2 10 11
M  V30 11 1 11 12
M  V30 12 1 12 13
M  V30 13 1 13 14
M  V30 14 1 14 15
M  V30 15 1 15 16
M  V30 16 1 16 17
M  V30 17 1 17 18
M  V30 18 1 11 19
M  V30 19 2 19 20
M  V30 20 2 7 21
M  V30 21 1 21 22
M  V30 22 2 22 23
M  V30 23 1 23 24
M  V30 24 1 24 25
M  V30 25 1 25 26
M  V30 26 1 26 27
M  V30 27 1 27 28
M  V30 28 1 28 29
M  V30 29 2 29 30
M  V30 30 1 30 31
M  V30 31 2 31 32
M  V30 32 1 32 33
M  V30 33 2 33 34
M  V30 34 1 27 35
M  V30 35 1 35 36
M  V30 36 1 23 2
M  V30 37 1 36 24
M  V30 38 1 22 5
M  V30 39 1 34 29
M  V30 40 1 20 8
M  V30 41 1 18 13
M  V30 42 1 3 37
M  V30 43 1 6 38
M  V30 44 1 9 39
M  V30 45 1 10 40
M  V30 46 1 12 41
M  V30 47 1 12 42
M  V30 48 1 14 43
M  V30 49 1 14 44
M  V30 50 1 15 45
M  V30 51 1 15 46
M  V30 52 1 17 47
M  V30 53 1 17 48
M  V30 54 1 18 49
M  V30 55 1 18 50
M  V30 56 1 19 51
M  V30 57 1 20 52
M  V30 58 1 25 53
M  V30 59 1 25 54
M  V30 60 1 26 55
M  V30 61 1 26 56
M  V30 62 1 28 57
M  V30 63 1 28 58
M  V30 64 1 30 59
M  V30 65 1 31 60
M  V30 66 1 32 61
M  V30 67 1 34 62
M  V30 68 1 35 63
M  V30 69 1 35 64
M  V30 70 1 36 65
M  V30 71 1 36 66
M  V30 END BOND
M  V30 END CTAB
M  END
>  <Dataset>  (660) 
ChEMBL_Kinases

>  <Ligand_Instance>  (660) 
nan

>  <PDB_ID>  (660) 
nan

>  <Standardized_SMILES>  (660) 
Brc1cnc2[nH]c(-c3ccc(CN4CCOCC4)cc3)nc2c1N1CCN(Cc2cccnc2)CC1

>  <Name>  (660) 
nan

>  <Pocket>  (660) 
nan

>  <ATP_Site>  (660) 
nan

>  <Peripheral>  (660) 
nan

>  <Num_H_Atoms_ProtBoundConf>  (660) 
nan

>  <Num_Resolved_Atoms>  (660) 
nan

>  <Num_Not_Resolved_Atoms>  (660) 
nan

$$$$
CHEMBL1084859
     RDKit          3D

  0  0  0  0  0  0  0  0  0  0999 V3000
M  V30 BEGIN CTAB
M  V30 COUNTS 53 57 0 0 0
M  V30 BEGIN ATOM
M  V30 1 C -1.274815 -8.468358 1.901720 0
M  V30 2 O -1.554833 -7.115846 2.293306 0
M  V30 3 C -0.856184 -6.109681 1.636720 0
M  V30 4 C 0.072981 -6.361590 0.647231 0
M  V30 5 C 0.716313 -5.275195 0.054259 0
M  V30 6 C 0.427692 -3.984123 0.450261 0
M  V30 7 C 1.151720 -2.912374 -0.228411 0
M  V30 8 N 1.082665 -1.572094 -0.057023 0
M  V30 9 C 1.938725 -0.964817 -0.908176 0
M  V30 10 C 2.203034 0.377743 -1.085780 0
M  V30 11 N 1.584833 1.432167 -0.359995 0
M  V30 12 C 1.953992 2.083242 0.872269 0
M  V30 13 C 0.898500 1.876422 1.921567 0
M  V30 14 N -0.328458 2.496421 1.454877 0
M  V30 15 C -1.334775 2.527789 2.483087 0
M  V30 16 C -2.549806 3.177182 1.939997 0
M  V30 17 C -2.613377 4.550677 2.086143 0
M  V30 18 N -3.666379 5.271337 1.639776 0
M  V30 19 C -4.681454 4.610286 1.033057 0
M  V30 20 N -4.667547 3.280074 0.867068 0
M  V30 21 C -3.629108 2.584897 1.309277 0
M  V30 22 C -0.730334 1.815825 0.249245 0
M  V30 23 C 0.372419 2.077777 -0.786555 0
M  V30 24 C 3.140256 0.770725 -2.037971 0
M  V30 25 Br 3.548225 2.608057 -2.329313 0
M  V30 26 C 3.752033 -0.246573 -2.753547 0
M  V30 27 N 3.480060 -1.561769 -2.565891 0
M  V30 28 C 2.572153 -1.950341 -1.644079 0
M  V30 29 N 2.063780 -3.106491 -1.197434 0
M  V30 30 C -0.497303 -3.707770 1.437178 0
M  V30 31 C -1.139049 -4.804691 2.027712 0
M  V30 32 H -1.847119 -9.186467 2.505140 0
M  V30 33 H -1.355445 -8.585754 0.815081 0
M  V30 34 H -0.190698 -8.666220 2.137404 0
M  V30 35 H 0.264250 -7.386623 0.372515 0
M  V30 36 H 1.428985 -5.531604 -0.709203 0
M  V30 37 H 2.902951 1.688415 1.287037 0
M  V30 38 H 2.140146 3.165536 0.700244 0
M  V30 39 H 0.791889 0.787299 2.095989 0
M  V30 40 H 1.215416 2.338019 2.873116 0
M  V30 41 H -0.990812 3.063010 3.366129 0
M  V30 42 H -1.635856 1.503355 2.802111 0
M  V30 43 H -1.852347 5.173191 2.557567 0
M  V30 44 H -5.524978 5.197197 0.676801 0
M  V30 45 H -3.547860 1.507731 1.210741 0
M  V30 46 H -0.783791 0.709494 0.390225 0
M  V30 47 H -1.680244 2.203847 -0.126964 0
M  V30 48 H 0.445172 3.181569 -0.870573 0
M  V30 49 H 0.025299 1.630592 -1.752591 0
M  V30 50 H 4.492420 0.040030 -3.507569 0
M  V30 51 H 2.418242 -3.997828 -1.634432 0
M  V30 52 H -0.707839 -2.691437 1.731410 0
M  V30 53 H -1.857672 -4.556241 2.796849 0
M  V30 END ATOM
M  V30 BEGIN BOND
M  V30 1 1 1 2
M  V30 2 1 2 3
M  V30 3 2 3 4
M  V30 4 1 4 5
M  V30 5 2 5 6
M  V30 6 1 6 7
M  V30 7 2 7 8
M  V30 8 1 8 9
M  V30 9 2 9 10
M  V30 10 1 10 11
M  V30 11 1 11 12
M  V30 12 1 12 13
M  V30 13 1 13 14
M  V30 14 1 14 15
M  V30 15 1 15 16
M  V30 16 2 16 17
M  V30 17 1 17 18
M  V30 18 2 18 19
M  V30 19 1 19 20
M  V30 20 2 20 21
M  V30 21 1 14 22
M  V30 22 1 22 23
M  V30 23 1 10 24
M  V30 24 1 24 25
M  V30 25 2 24 26
M  V30 26 1 26 27
M  V30 27 2 27 28
M  V30 28 1 28 29
M  V30 29 1 6 30
M  V30 30 2 30 31
M  V30 31 1 31 3
M  V30 32 1 29 7
M  V30 33 1 28 9
M  V30 34 1 23 11
M  V30 35 1 21 16
M  V30 36 1 1 32
M  V30 37 1 1 33
M  V30 38 1 1 34
M  V30 39 1 4 35
M  V30 40 1 5 36
M  V30 41 1 12 37
M  V30 42 1 12 38
M  V30 43 1 13 39
M  V30 44 1 13 40
M  V30 45 1 15 41
M  V30 46 1 15 42
M  V30 47 1 17 43
M  V30 48 1 19 44
M  V30 49 1 21 45
M  V30 50 1 22 46
M  V30 51 1 22 47
M  V30 52 1 23 48
M  V30 53 1 23 49
M  V30 54 1 26 50
M  V30 55 1 29 51
M  V30 56 1 30 52
M  V30 57 1 31 53
M  V30 END BOND
M  V30 END CTAB
M  END
>  <Dataset>  (661) 
ChEMBL_Kinases

>  <Ligand_Instance>  (661) 
nan

>  <PDB_ID>  (661) 
nan

>  <Standardized_SMILES>  (661) 
COc1ccc(-c2nc3c(N4CCN(Cc5cncnc5)CC4)c(Br)cnc3[nH]2)cc1

>  <Name>  (661) 
nan

>  <Pocket>  (661) 
nan

>  <ATP_Site>  (661) 
nan

>  <Peripheral>  (661) 
nan

>  <Num_H_Atoms_ProtBoundConf>  (661) 
nan

>  <Num_Resolved_Atoms>  (661) 
nan

>  <Num_Not_Resolved_Atoms>  (661) 
nan

$$$$
CHEMBL1084860
     RDKit          3D

  0  0  0  0  0  0  0  0  0  0999 V3000
M  V30 BEGIN CTAB
M  V30 COUNTS 65 70 0 0 0
M  V30 BEGIN ATOM
M  V30 1 Br 2.050981 -5.699694 4.576718 0
M  V30 2 C 2.003588 -3.875526 4.119052 0
M  V30 3 C 2.289046 -3.044297 5.178181 0
M  V30 4 N 2.268375 -1.714256 4.977412 0
M  V30 5 C 1.970068 -1.265494 3.752659 0
M  V30 6 N 1.902587 0.014234 3.350296 0
M  V30 7 C 1.579240 0.049370 2.048032 0
M  V30 8 C 1.401826 1.239387 1.214654 0
M  V30 9 C 1.581955 2.470852 1.818685 0
M  V30 10 C 1.412138 3.587842 1.025656 0
M  V30 11 C 1.078202 3.525378 -0.312040 0
M  V30 12 C 0.884880 4.701460 -1.196428 0
M  V30 13 N -0.421195 5.215838 -1.277661 0
M  V30 14 C -1.063100 5.689948 -0.128093 0
M  V30 15 C -2.334211 4.976739 0.249850 0
M  V30 16 O -2.625252 3.919251 -0.601348 0
M  V30 17 C -2.657448 4.422815 -1.899900 0
M  V30 18 C -1.246610 4.696171 -2.318855 0
M  V30 19 C 0.906831 2.255640 -0.877402 0
M  V30 20 C 1.067243 1.092140 -0.117639 0
M  V30 21 N 1.455257 -1.236722 1.682534 0
M  V30 22 C 1.684409 -2.092822 2.691619 0
M  V30 23 C 1.691816 -3.464609 2.842578 0
M  V30 24 N 1.431845 -4.308070 1.729552 0
M  V30 25 C 1.456602 -5.717425 1.492088 0
M  V30 26 C 0.014575 -6.138337 1.281627 0
M  V30 27 N -0.591221 -5.472169 0.168311 0
M  V30 28 C -1.862043 -4.863668 0.418040 0
M  V30 29 C -2.482386 -4.207758 -0.762639 0
M  V30 30 C -3.285523 -5.023047 -1.539088 0
M  V30 31 N -3.890185 -4.513364 -2.625962 0
M  V30 32 C -3.741941 -3.220127 -2.993480 0
M  V30 33 N -2.972464 -2.425695 -2.255346 0
M  V30 34 C -2.365415 -2.898148 -1.181755 0
M  V30 35 C 0.385151 -4.608970 -0.449178 0
M  V30 36 C 1.002935 -3.636091 0.522059 0
M  V30 37 H 2.533372 -3.367554 6.176692 0
M  V30 38 H 2.062853 0.860447 3.907288 0
M  V30 39 H 1.842971 2.604473 2.856202 0
M  V30 40 H 1.547514 4.541917 1.470453 0
M  V30 41 H 1.241756 4.491459 -2.235957 0
M  V30 42 H 1.553904 5.510427 -0.833233 0
M  V30 43 H -0.369498 5.759748 0.722642 0
M  V30 44 H -1.368580 6.760824 -0.323413 0
M  V30 45 H -3.233014 5.633794 0.249437 0
M  V30 46 H -2.249399 4.565184 1.275184 0
M  V30 47 H -3.046099 3.607035 -2.563374 0
M  V30 48 H -3.317823 5.309089 -2.008927 0
M  V30 49 H -0.802817 3.785732 -2.743764 0
M  V30 50 H -1.310207 5.433067 -3.169370 0
M  V30 51 H 0.644858 2.062286 -1.913406 0
M  V30 52 H 0.936342 0.109121 -0.548917 0
M  V30 53 H 1.981737 -6.349113 2.207405 0
M  V30 54 H 2.002320 -5.959748 0.518799 0
M  V30 55 H -0.577237 -6.103871 2.201706 0
M  V30 56 H 0.019674 -7.233877 1.000532 0
M  V30 57 H -2.597637 -5.538747 0.850639 0
M  V30 58 H -1.763671 -4.024692 1.171380 0
M  V30 59 H -3.465663 -6.084849 -1.320274 0
M  V30 60 H -4.247695 -2.840347 -3.881711 0
M  V30 61 H -1.732962 -2.285731 -0.555387 0
M  V30 62 H -0.167437 -3.994735 -1.250656 0
M  V30 63 H 1.114556 -5.200331 -1.028406 0
M  V30 64 H 0.198665 -2.894310 0.711129 0
M  V30 65 H 1.907600 -3.195280 0.059309 0
M  V30 END ATOM
M  V30 BEGIN BOND
M  V30 1 1 1 2
M  V30 2 2 2 3
M  V30 3 1 3 4
M  V30 4 2 4 5
M  V30 5 1 5 6
M  V30 6 1 6 7
M  V30 7 1 7 8
M  V30 8 2 8 9
M  V30 9 1 9 10
M  V30 10 2 10 11
M  V30 11 1 11 12
M  V30 12 1 12 13
M  V30 13 1 13 14
M  V30 14 1 14 15
M  V30 15 1 15 16
M  V30 16 1 16 17
M  V30 17 1 17 18
M  V30 18 1 11 19
M  V30 19 2 19 20
M  V30 20 2 7 21
M  V30 21 1 21 22
M  V30 22 2 22 23
M  V30 23 1 23 24
M  V30 24 1 24 25
M  V30 25 1 25 26
M  V30 26 1 26 27
M  V30 27 1 27 28
M  V30 28 1 28 29
M  V30 29 2 29 30
M  V30 30 1 30 31
M  V30 31 2 31 32
M  V30 32 1 32 33
M  V30 33 2 33 34
M  V30 34 1 27 35
M  V30 35 1 35 36
M  V30 36 1 23 2
M  V30 37 1 36 24
M  V30 38 1 22 5
M  V30 39 1 34 29
M  V30 40 1 20 8
M  V30 41 1 18 13
M  V30 42 1 3 37
M  V30 43 1 6 38
M  V30 44 1 9 39
M  V30 45 1 10 40
M  V30 46 1 12 41
M  V30 47 1 12 42
M  V30 48 1 14 43
M  V30 49 1 14 44
M  V30 50 1 15 45
M  V30 51 1 15 46
M  V30 52 1 17 47
M  V30 53 1 17 48
M  V30 54 1 18 49
M  V30 55 1 18 50
M  V30 56 1 19 51
M  V30 57 1 20 52
M  V30 58 1 25 53
M  V30 59 1 25 54
M  V30 60 1 26 55
M  V30 61 1 26 56
M  V30 62 1 28 57
M  V30 63 1 28 58
M  V30 64 1 30 59
M  V30 65 1 32 60
M  V30 66 1 34 61
M  V30 67 1 35 62
M  V30 68 1 35 63
M  V30 69 1 36 64
M  V30 70 1 36 65
M  V30 END BOND
M  V30 END CTAB
M  END
>  <Dataset>  (662) 
ChEMBL_Kinases

>  <Ligand_Instance>  (662) 
nan

>  <PDB_ID>  (662) 
nan

>  <Standardized_SMILES>  (662) 
Brc1cnc2[nH]c(-c3ccc(CN4CCOCC4)cc3)nc2c1N1CCN(Cc2cncnc2)CC1

>  <Name>  (662) 
nan

>  <Pocket>  (662) 
nan

>  <ATP_Site>  (662) 
nan

>  <Peripheral>  (662) 
nan

>  <Num_H_Atoms_ProtBoundConf>  (662) 
nan

>  <Num_Resolved_Atoms>  (662) 
nan

>  <Num_Not_Resolved_Atoms>  (662) 
nan

$$$$
CHEMBL1084887
     RDKit          3D

  0  0  0  0  0  0  0  0  0  0999 V3000
M  V30 BEGIN CTAB
M  V30 COUNTS 72 77 0 0 0
M  V30 BEGIN ATOM
M  V30 1 C 2.904664 -1.412447 4.079400 0
M  V30 2 C 1.849087 -0.629463 3.293322 0
M  V30 3 C 1.415256 0.525523 4.195913 0
M  V30 4 C 2.410225 -0.109148 2.028206 0
M  V30 5 N 2.136615 -0.326124 0.728837 0
M  V30 6 C 2.972058 0.427087 -0.031452 0
M  V30 7 C 2.933953 0.415637 -1.514870 0
M  V30 8 N 2.004352 1.398730 -1.962363 0
M  V30 9 C 2.271564 2.745622 -1.583865 0
M  V30 10 C 0.928220 3.485838 -1.534621 0
M  V30 11 N 0.110796 3.007391 -2.631881 0
M  V30 12 C -1.307100 2.923521 -2.704113 0
M  V30 13 C -2.098291 3.948934 -3.177819 0
M  V30 14 Br -1.264000 5.569934 -3.770597 0
M  V30 15 C -3.467166 3.775187 -3.210093 0
M  V30 16 N -4.103634 2.661489 -2.807606 0
M  V30 17 C -3.363775 1.631721 -2.335989 0
M  V30 18 N -3.652510 0.405168 -1.861916 0
M  V30 19 C -2.523061 -0.234147 -1.518990 0
M  V30 20 C -2.319794 -1.568125 -0.964675 0
M  V30 21 C -1.069489 -2.069270 -0.668859 0
M  V30 22 C -0.901834 -3.334565 -0.145057 0
M  V30 23 C -1.997298 -4.167322 0.109731 0
M  V30 24 C -1.732948 -5.494641 0.663568 0
M  V30 25 N -1.693708 -5.589206 2.084476 0
M  V30 26 C -2.881068 -5.220491 2.779306 0
M  V30 27 C -2.830996 -3.855879 3.408511 0
M  V30 28 O -1.741753 -3.862105 4.280218 0
M  V30 29 C -0.601986 -3.893381 3.491371 0
M  V30 30 C -0.472251 -5.151886 2.678975 0
M  V30 31 C -3.226757 -3.625974 -0.200849 0
M  V30 32 C -3.420119 -2.364988 -0.724800 0
M  V30 33 N -1.547445 0.623753 -1.792654 0
M  V30 34 C -1.999861 1.787232 -2.296718 0
M  V30 35 C 0.944646 2.587602 -3.740337 0
M  V30 36 C 1.719233 1.315148 -3.381200 0
M  V30 37 C 3.741892 1.090123 0.877353 0
M  V30 38 O 3.389304 0.755097 2.097373 0
M  V30 39 H 2.441892 -1.748198 5.020726 0
M  V30 40 H 3.811283 -0.803208 4.252629 0
M  V30 41 H 3.112184 -2.333109 3.476884 0
M  V30 42 H 1.023418 -1.356114 3.138993 0
M  V30 43 H 2.303755 0.914556 4.739025 0
M  V30 44 H 0.992594 1.366031 3.579326 0
M  V30 45 H 0.668853 0.226502 4.941463 0
M  V30 46 H 2.548683 -0.573226 -1.871788 0
M  V30 47 H 3.955875 0.552480 -1.930294 0
M  V30 48 H 2.949801 3.253433 -2.326819 0
M  V30 49 H 2.765301 2.852427 -0.604321 0
M  V30 50 H 0.475568 3.155416 -0.557449 0
M  V30 51 H 1.116815 4.563581 -1.559034 0
M  V30 52 H -4.042995 4.603336 -3.587913 0
M  V30 53 H -4.611329 -0.002856 -1.768822 0
M  V30 54 H -0.264939 -1.380235 -0.887328 0
M  V30 55 H 0.120624 -3.567609 0.024905 0
M  V30 56 H -2.455442 -6.268172 0.294473 0
M  V30 57 H -0.741380 -5.847223 0.288428 0
M  V30 58 H -3.760428 -5.256335 2.109253 0
M  V30 59 H -3.072054 -5.980186 3.571761 0
M  V30 60 H -2.672285 -3.068916 2.668816 0
M  V30 61 H -3.791375 -3.726685 3.962158 0
M  V30 62 H 0.258292 -3.728439 4.161148 0
M  V30 63 H -0.661440 -3.028208 2.783640 0
M  V30 64 H 0.330195 -5.002771 1.930745 0
M  V30 65 H -0.126875 -5.961365 3.354033 0
M  V30 66 H -4.083667 -4.230604 -0.022364 0
M  V30 67 H -4.422052 -2.019584 -0.939142 0
M  V30 68 H 1.627149 3.424901 -3.990464 0
M  V30 69 H 0.307675 2.418552 -4.633793 0
M  V30 70 H 2.636604 1.258106 -4.012286 0
M  V30 71 H 1.107887 0.422069 -3.575592 0
M  V30 72 H 4.519067 1.781948 0.604401 0
M  V30 END ATOM
M  V30 BEGIN BOND
M  V30 1 1 1 2
M  V30 2 1 2 3
M  V30 3 1 2 4
M  V30 4 2 4 5
M  V30 5 1 5 6
M  V30 6 1 6 7
M  V30 7 1 7 8
M  V30 8 1 8 9
M  V30 9 1 9 10
M  V30 10 1 10 11
M  V30 11 1 11 12
M  V30 12 2 12 13
M  V30 13 1 13 14
M  V30 14 1 13 15
M  V30 15 2 15 16
M  V30 16 1 16 17
M  V30 17 1 17 18
M  V30 18 1 18 19
M  V30 19 1 19 20
M  V30 20 2 20 21
M  V30 21 1 21 22
M  V30 22 2 22 23
M  V30 23 1 23 24
M  V30 24 1 24 25
M  V30 25 1 25 26
M  V30 26 1 26 27
M  V30 27 1 27 28
M  V30 28 1 28 29
M  V30 29 1 29 30
M  V30 30 1 23 31
M  V30 31 2 31 32
M  V30 32 2 19 33
M  V30 33 1 33 34
M  V30 34 1 11 35
M  V30 35 1 35 36
M  V30 36 2 6 37
M  V30 37 1 37 38
M  V30 38 1 38 4
M  V30 39 1 36 8
M  V30 40 1 34 12
M  V30 41 2 34 17
M  V30 42 1 32 20
M  V30 43 1 30 25
M  V30 44 1 1 39
M  V30 45 1 1 40
M  V30 46 1 1 41
M  V30 47 1 2 42
M  V30 48 1 3 43
M  V30 49 1 3 44
M  V30 50 1 3 45
M  V30 51 1 7 46
M  V30 52 1 7 47
M  V30 53 1 9 48
M  V30 54 1 9 49
M  V30 55 1 10 50
M  V30 56 1 10 51
M  V30 57 1 15 52
M  V30 58 1 18 53
M  V30 59 1 21 54
M  V30 60 1 22 55
M  V30 61 1 24 56
M  V30 62 1 24 57
M  V30 63 1 26 58
M  V30 64 1 26 59
M  V30 65 1 27 60
M  V30 66 1 27 61
M  V30 67 1 29 62
M  V30 68 1 29 63
M  V30 69 1 30 64
M  V30 70 1 30 65
M  V30 71 1 31 66
M  V30 72 1 32 67
M  V30 73 1 35 68
M  V30 74 1 35 69
M  V30 75 1 36 70
M  V30 76 1 36 71
M  V30 77 1 37 72
M  V30 END BOND
M  V30 END CTAB
M  END
>  <Dataset>  (663) 
ChEMBL_Kinases

>  <Ligand_Instance>  (663) 
nan

>  <PDB_ID>  (663) 
nan

>  <Standardized_SMILES>  (663) 
CC(C)c1nc(CN2CCN(c3c(Br)cnc4[nH]c(-c5ccc(CN6CCOCC6)cc5)nc34)CC2)co1

>  <Name>  (663) 
nan

>  <Pocket>  (663) 
nan

>  <ATP_Site>  (663) 
nan

>  <Peripheral>  (663) 
nan

>  <Num_H_Atoms_ProtBoundConf>  (663) 
nan

>  <Num_Resolved_Atoms>  (663) 
nan

>  <Num_Not_Resolved_Atoms>  (663) 
nan

$$$$
CHEMBL1084888
     RDKit          3D

  0  0  0  0  0  0  0  0  0  0999 V3000
M  V30 BEGIN CTAB
M  V30 COUNTS 55 59 0 0 0
M  V30 BEGIN ATOM
M  V30 1 C 6.590715 -3.181873 6.140129 0
M  V30 2 O 5.488443 -2.388210 5.729161 0
M  V30 3 C 4.772126 -2.635577 4.566734 0
M  V30 4 C 5.003903 -3.647779 3.658810 0
M  V30 5 C 4.193742 -3.773542 2.526894 0
M  V30 6 C 3.162495 -2.874108 2.330859 0
M  V30 7 C 2.352273 -3.055633 1.131471 0
M  V30 8 N 1.300750 -2.320661 0.749725 0
M  V30 9 C 0.764204 -2.744854 -0.402746 0
M  V30 10 C -0.293912 -2.344117 -1.184767 0
M  V30 11 N -1.111245 -1.237197 -0.866846 0
M  V30 12 C -0.934085 -0.352319 0.252593 0
M  V30 13 C -0.943234 1.093124 -0.219528 0
M  V30 14 N -2.252044 1.454802 -0.725540 0
M  V30 15 C -2.913950 2.488948 0.003736 0
M  V30 16 C -4.261178 2.818583 -0.525554 0
M  V30 17 N -5.447117 2.277627 -0.176579 0
M  V30 18 C -6.395287 2.893567 -0.927332 0
M  V30 19 C -5.795157 3.834322 -1.759161 0
M  V30 20 N -4.482090 3.754651 -1.478994 0
M  V30 21 C -3.556992 4.626201 -2.192219 0
M  V30 22 C -3.065689 0.271590 -0.914737 0
M  V30 23 C -2.282624 -0.832100 -1.602976 0
M  V30 24 C -0.478750 -3.104910 -2.311266 0
M  V30 25 Br -1.828127 -2.794339 -3.589989 0
M  V30 26 C 0.308995 -4.182643 -2.656575 0
M  V30 27 N 1.345353 -4.529136 -1.835528 0
M  V30 28 C 1.574662 -3.816813 -0.714398 0
M  V30 29 N 2.532625 -4.009479 0.204845 0
M  V30 30 C 2.906844 -1.853002 3.219973 0
M  V30 31 C 3.729922 -1.744354 4.347377 0
M  V30 32 H 6.230562 -4.042026 6.776324 0
M  V30 33 H 7.145583 -3.625983 5.290935 0
M  V30 34 H 7.238957 -2.583981 6.814963 0
M  V30 35 H 5.828830 -4.312067 3.880373 0
M  V30 36 H 4.445949 -4.598312 1.864139 0
M  V30 37 H -1.727154 -0.509499 1.037125 0
M  V30 38 H 0.012952 -0.464210 0.803332 0
M  V30 39 H -0.665111 1.771905 0.577283 0
M  V30 40 H -0.223531 1.172140 -1.052261 0
M  V30 41 H -2.959982 2.207581 1.075190 0
M  V30 42 H -2.262191 3.399661 -0.048217 0
M  V30 43 H -7.449004 2.692602 -0.892561 0
M  V30 44 H -6.361471 4.450881 -2.452407 0
M  V30 45 H -2.530953 4.581837 -1.817883 0
M  V30 46 H -3.890776 5.696577 -2.092115 0
M  V30 47 H -3.552271 4.407477 -3.284064 0
M  V30 48 H -3.439385 -0.087433 0.040375 0
M  V30 49 H -3.885776 0.553406 -1.607367 0
M  V30 50 H -1.984738 -0.422059 -2.578668 0
M  V30 51 H -3.026906 -1.668327 -1.683074 0
M  V30 52 H 0.217142 -4.817588 -3.521652 0
M  V30 53 H 3.267325 -4.749689 0.198922 0
M  V30 54 H 2.086490 -1.178312 3.015031 0
M  V30 55 H 3.444974 -0.906286 4.985954 0
M  V30 END ATOM
M  V30 BEGIN BOND
M  V30 1 1 1 2
M  V30 2 1 2 3
M  V30 3 2 3 4
M  V30 4 1 4 5
M  V30 5 2 5 6
M  V30 6 1 6 7
M  V30 7 2 7 8
M  V30 8 1 8 9
M  V30 9 2 9 10
M  V30 10 1 10 11
M  V30 11 1 11 12
M  V30 12 1 12 13
M  V30 13 1 13 14
M  V30 14 1 14 15
M  V30 15 1 15 16
M  V30 16 2 16 17
M  V30 17 1 17 18
M  V30 18 2 18 19
M  V30 19 1 19 20
M  V30 20 1 20 21
M  V30 21 1 14 22
M  V30 22 1 22 23
M  V30 23 1 10 24
M  V30 24 1 24 25
M  V30 25 2 24 26
M  V30 26 1 26 27
M  V30 27 2 27 28
M  V30 28 1 28 29
M  V30 29 1 6 30
M  V30 30 2 30 31
M  V30 31 1 31 3
M  V30 32 1 29 7
M  V30 33 1 28 9
M  V30 34 1 23 11
M  V30 35 1 20 16
M  V30 36 1 1 32
M  V30 37 1 1 33
M  V30 38 1 1 34
M  V30 39 1 4 35
M  V30 40 1 5 36
M  V30 41 1 12 37
M  V30 42 1 12 38
M  V30 43 1 13 39
M  V30 44 1 13 40
M  V30 45 1 15 41
M  V30 46 1 15 42
M  V30 47 1 18 43
M  V30 48 1 19 44
M  V30 49 1 21 45
M  V30 50 1 21 46
M  V30 51 1 21 47
M  V30 52 1 22 48
M  V30 53 1 22 49
M  V30 54 1 23 50
M  V30 55 1 23 51
M  V30 56 1 26 52
M  V30 57 1 29 53
M  V30 58 1 30 54
M  V30 59 1 31 55
M  V30 END BOND
M  V30 END CTAB
M  END
>  <Dataset>  (664) 
ChEMBL_Kinases

>  <Ligand_Instance>  (664) 
nan

>  <PDB_ID>  (664) 
nan

>  <Standardized_SMILES>  (664) 
COc1ccc(-c2nc3c(N4CCN(Cc5nccn5C)CC4)c(Br)cnc3[nH]2)cc1

>  <Name>  (664) 
nan

>  <Pocket>  (664) 
nan

>  <ATP_Site>  (664) 
nan

>  <Peripheral>  (664) 
nan

>  <Num_H_Atoms_ProtBoundConf>  (664) 
nan

>  <Num_Resolved_Atoms>  (664) 
nan

>  <Num_Not_Resolved_Atoms>  (664) 
nan

$$$$
CHEMBL1084889
     RDKit          3D

  0  0  0  0  0  0  0  0  0  0999 V3000
M  V30 BEGIN CTAB
M  V30 COUNTS 67 72 0 0 0
M  V30 BEGIN ATOM
M  V30 1 C 4.027345 0.635442 3.146520 0
M  V30 2 N 5.134862 0.146264 2.311729 0
M  V30 3 C 6.366084 -0.030622 2.833188 0
M  V30 4 C 7.126734 -0.502126 1.799840 0
M  V30 5 N 6.370467 -0.601299 0.700902 0
M  V30 6 C 5.126599 -0.203367 0.992805 0
M  V30 7 C 3.969038 -0.134498 0.071961 0
M  V30 8 N 3.974381 1.043952 -0.689305 0
M  V30 9 C 2.859215 1.273206 -1.564580 0
M  V30 10 C 1.673945 1.604756 -0.695850 0
M  V30 11 N 1.877619 2.700738 0.202551 0
M  V30 12 C 0.787745 2.897638 1.091988 0
M  V30 13 C 0.765724 3.879746 2.055615 0
M  V30 14 Br 2.189357 5.106184 2.346973 0
M  V30 15 C -0.254591 4.133740 2.941629 0
M  V30 16 N -1.346038 3.316701 2.836380 0
M  V30 17 C -1.380509 2.347235 1.920149 0
M  V30 18 N -2.338554 1.457100 1.656047 0
M  V30 19 C -1.965068 0.663699 0.651135 0
M  V30 20 C -2.737984 -0.429810 0.073051 0
M  V30 21 C -3.986074 -0.684911 0.608812 0
M  V30 22 C -4.700406 -1.725734 0.044436 0
M  V30 23 C -4.269425 -2.523123 -1.002470 0
M  V30 24 C -5.077212 -3.614932 -1.557244 0
M  V30 25 N -4.870978 -4.896108 -0.932629 0
M  V30 26 C -3.500065 -5.352637 -1.042907 0
M  V30 27 C -3.556344 -6.879900 -0.901129 0
M  V30 28 O -4.517986 -7.229706 0.066894 0
M  V30 29 C -4.567247 -6.213215 1.014965 0
M  V30 30 C -5.228677 -4.949140 0.456917 0
M  V30 31 C -3.010605 -2.206593 -1.485163 0
M  V30 32 C -2.237758 -1.179662 -0.971016 0
M  V30 33 N -0.746184 1.104948 0.315738 0
M  V30 34 C -0.339859 2.127972 1.054990 0
M  V30 35 C 3.149046 3.266564 -0.105354 0
M  V30 36 C 4.306736 2.275255 -0.088462 0
M  V30 37 H 4.126136 0.212129 4.150089 0
M  V30 38 H 3.076025 0.292593 2.684158 0
M  V30 39 H 4.107238 1.738201 3.212999 0
M  V30 40 H 6.691241 0.157148 3.848645 0
M  V30 41 H 8.170980 -0.738957 1.918374 0
M  V30 42 H 3.071939 -0.273551 0.718523 0
M  V30 43 H 4.017208 -1.009369 -0.616658 0
M  V30 44 H 2.647645 0.281133 -2.056180 0
M  V30 45 H 3.108478 2.035865 -2.300747 0
M  V30 46 H 1.475449 0.639988 -0.143505 0
M  V30 47 H 0.788855 1.786502 -1.343391 0
M  V30 48 H -0.317821 4.881453 3.704570 0
M  V30 49 H -3.247583 1.385010 2.156154 0
M  V30 50 H -4.407194 -0.123280 1.420314 0
M  V30 51 H -5.691691 -1.919195 0.478691 0
M  V30 52 H -4.897515 -3.761816 -2.644778 0
M  V30 53 H -6.137132 -3.347375 -1.440361 0
M  V30 54 H -2.923691 -4.968529 -0.177279 0
M  V30 55 H -3.044295 -5.100828 -2.010750 0
M  V30 56 H -3.776665 -7.337374 -1.883535 0
M  V30 57 H -2.597748 -7.299480 -0.548130 0
M  V30 58 H -3.602385 -5.971439 1.473406 0
M  V30 59 H -5.243242 -6.580964 1.826102 0
M  V30 60 H -4.751764 -4.083744 0.962136 0
M  V30 61 H -6.312352 -4.914304 0.664252 0
M  V30 62 H -2.579692 -2.760808 -2.295424 0
M  V30 63 H -1.257424 -0.967505 -1.379873 0
M  V30 64 H 3.087315 3.671276 -1.157692 0
M  V30 65 H 3.471468 4.061556 0.587725 0
M  V30 66 H 5.116391 2.737109 -0.742435 0
M  V30 67 H 4.769255 2.154584 0.880270 0
M  V30 END ATOM
M  V30 BEGIN BOND
M  V30 1 1 1 2
M  V30 2 1 2 3
M  V30 3 2 3 4
M  V30 4 1 4 5
M  V30 5 2 5 6
M  V30 6 1 6 7
M  V30 7 1 7 8
M  V30 8 1 8 9
M  V30 9 1 9 10
M  V30 10 1 10 11
M  V30 11 1 11 12
M  V30 12 2 12 13
M  V30 13 1 13 14
M  V30 14 1 13 15
M  V30 15 2 15 16
M  V30 16 1 16 17
M  V30 17 1 17 18
M  V30 18 1 18 19
M  V30 19 1 19 20
M  V30 20 2 20 21
M  V30 21 1 21 22
M  V30 22 2 22 23
M  V30 23 1 23 24
M  V30 24 1 24 25
M  V30 25 1 25 26
M  V30 26 1 26 27
M  V30 27 1 27 28
M  V30 28 1 28 29
M  V30 29 1 29 30
M  V30 30 1 23 31
M  V30 31 2 31 32
M  V30 32 2 19 33
M  V30 33 1 33 34
M  V30 34 1 11 35
M  V30 35 1 35 36
M  V30 36 1 6 2
M  V30 37 1 36 8
M  V30 38 1 34 12
M  V30 39 2 34 17
M  V30 40 1 32 20
M  V30 41 1 30 25
M  V30 42 1 1 37
M  V30 43 1 1 38
M  V30 44 1 1 39
M  V30 45 1 3 40
M  V30 46 1 4 41
M  V30 47 1 7 42
M  V30 48 1 7 43
M  V30 49 1 9 44
M  V30 50 1 9 45
M  V30 51 1 10 46
M  V30 52 1 10 47
M  V30 53 1 15 48
M  V30 54 1 18 49
M  V30 55 1 21 50
M  V30 56 1 22 51
M  V30 57 1 24 52
M  V30 58 1 24 53
M  V30 59 1 26 54
M  V30 60 1 26 55
M  V30 61 1 27 56
M  V30 62 1 27 57
M  V30 63 1 29 58
M  V30 64 1 29 59
M  V30 65 1 30 60
M  V30 66 1 30 61
M  V30 67 1 31 62
M  V30 68 1 32 63
M  V30 69 1 35 64
M  V30 70 1 35 65
M  V30 71 1 36 66
M  V30 72 1 36 67
M  V30 END BOND
M  V30 END CTAB
M  END
>  <Dataset>  (665) 
ChEMBL_Kinases

>  <Ligand_Instance>  (665) 
nan

>  <PDB_ID>  (665) 
nan

>  <Standardized_SMILES>  (665) 
Cn1ccnc1CN1CCN(c2c(Br)cnc3[nH]c(-c4ccc(CN5CCOCC5)cc4)nc23)CC1

>  <Name>  (665) 
nan

>  <Pocket>  (665) 
nan

>  <ATP_Site>  (665) 
nan

>  <Peripheral>  (665) 
nan

>  <Num_H_Atoms_ProtBoundConf>  (665) 
nan

>  <Num_Resolved_Atoms>  (665) 
nan

>  <Num_Not_Resolved_Atoms>  (665) 
nan

$$$$
CHEMBL1085035
     RDKit          3D

  0  0  0  0  0  0  0  0  0  0999 V3000
M  V30 BEGIN CTAB
M  V30 COUNTS 43 46 0 0 0
M  V30 BEGIN ATOM
M  V30 1 C -1.166016 -2.095692 -0.085425 0
M  V30 2 C -0.959690 -0.603873 -0.082564 0
M  V30 3 C -1.520892 0.118339 -1.073576 0
M  V30 4 C -2.322704 -0.051122 -2.241431 0
M  V30 5 C -2.817958 -1.236230 -2.733177 0
M  V30 6 C -3.590813 -1.422089 -3.855308 0
M  V30 7 N -3.898181 -0.320601 -4.552198 0
M  V30 8 C -3.452233 0.865126 -4.134656 0
M  V30 9 N -3.760797 2.072219 -4.855824 0
M  V30 10 N -2.706037 0.966953 -3.034699 0
M  V30 11 S -1.018865 1.821536 -0.672352 0
M  V30 12 C -0.089639 1.413348 0.806010 0
M  V30 13 C 0.589172 2.269472 1.648308 0
M  V30 14 C 1.226534 1.696479 2.723868 0
M  V30 15 C 1.124355 0.329437 2.853096 0
M  V30 16 C 1.809735 -0.299612 4.015592 0
M  V30 17 N 0.886892 -1.271579 4.603003 0
M  V30 18 C 3.044462 -1.005598 3.667521 0
M  V30 19 C 3.706205 -0.842421 2.469469 0
M  V30 20 C 4.868233 -1.519490 2.165484 0
M  V30 21 C 5.349200 -2.386433 3.135495 0
M  V30 22 C 4.714349 -2.582855 4.359340 0
M  V30 23 Cl 5.400763 -3.708579 5.535365 0
M  V30 24 C 3.539955 -1.873826 4.620323 0
M  V30 25 C 0.430843 -0.461153 1.975086 0
M  V30 26 C -0.231387 0.045809 0.875857 0
M  V30 27 H -2.208594 -2.379280 0.061701 0
M  V30 28 H -0.690275 -2.563729 -0.968646 0
M  V30 29 H -0.604027 -2.569380 0.782356 0
M  V30 30 H -2.601359 -2.152803 -2.211169 0
M  V30 31 H -3.943954 -2.390400 -4.179708 0
M  V30 32 H -3.491299 2.615948 -5.715357 0
M  V30 33 H -4.520505 2.551282 -4.307901 0
M  V30 34 H 0.572676 3.303901 1.409627 0
M  V30 35 H 1.753677 2.357539 3.378745 0
M  V30 36 H 2.019602 0.459894 4.768067 0
M  V30 37 H 1.167029 -2.250248 4.380384 0
M  V30 38 H 0.855137 -1.149425 5.645777 0
M  V30 39 H 3.300795 -0.152401 1.727915 0
M  V30 40 H 5.419968 -1.425152 1.244515 0
M  V30 41 H 6.257880 -2.941154 2.944990 0
M  V30 42 H 3.096656 -2.072105 5.589077 0
M  V30 43 H 0.436075 -1.539438 2.205811 0
M  V30 END ATOM
M  V30 BEGIN BOND
M  V30 1 1 1 2
M  V30 2 2 2 3
M  V30 3 1 3 4
M  V30 4 2 4 5
M  V30 5 1 5 6
M  V30 6 2 6 7
M  V30 7 1 7 8
M  V30 8 1 8 9
M  V30 9 2 8 10
M  V30 10 1 3 11
M  V30 11 1 11 12
M  V30 12 2 12 13
M  V30 13 1 13 14
M  V30 14 2 14 15
M  V30 15 1 15 16
M  V30 16 1 16 17
M  V30 17 1 16 18
M  V30 18 2 18 19
M  V30 19 1 19 20
M  V30 20 2 20 21
M  V30 21 1 21 22
M  V30 22 1 22 23
M  V30 23 2 22 24
M  V30 24 1 15 25
M  V30 25 2 25 26
M  V30 26 1 26 2
M  V30 27 1 10 4
M  V30 28 1 26 12
M  V30 29 1 24 18
M  V30 30 1 1 27
M  V30 31 1 1 28
M  V30 32 1 1 29
M  V30 33 1 5 30
M  V30 34 1 6 31
M  V30 35 1 9 32
M  V30 36 1 9 33
M  V30 37 1 13 34
M  V30 38 1 14 35
M  V30 39 1 16 36
M  V30 40 1 17 37
M  V30 41 1 17 38
M  V30 42 1 19 39
M  V30 43 1 20 40
M  V30 44 1 21 41
M  V30 45 1 24 42
M  V30 46 1 25 43
M  V30 END BOND
M  V30 END CTAB
M  END
>  <Dataset>  (666) 
ChEMBL_Kinases

>  <Ligand_Instance>  (666) 
nan

>  <PDB_ID>  (666) 
nan

>  <Standardized_SMILES>  (666) 
Cc1c(-c2ccnc(N)n2)sc2ccc(C(N)c3cccc(Cl)c3)cc12

>  <Name>  (666) 
nan

>  <Pocket>  (666) 
nan

>  <ATP_Site>  (666) 
nan

>  <Peripheral>  (666) 
nan

>  <Num_H_Atoms_ProtBoundConf>  (666) 
nan

>  <Num_Resolved_Atoms>  (666) 
nan

>  <Num_Not_Resolved_Atoms>  (666) 
nan

$$$$
CHEMBL1085063
     RDKit          3D

  0  0  0  0  0  0  0  0  0  0999 V3000
M  V30 BEGIN CTAB
M  V30 COUNTS 58 62 0 0 0
M  V30 BEGIN ATOM
M  V30 1 C 5.312910 -3.506614 1.217537 0
M  V30 2 O 5.967642 -2.235083 1.129736 0
M  V30 3 C 5.184966 -1.083231 1.317851 0
M  V30 4 C 3.845390 -1.234861 1.573745 0
M  V30 5 C 3.163882 -0.059724 1.742902 0
M  V30 6 C 3.726331 1.194075 1.672494 0
M  V30 7 C 2.947676 2.448417 1.863012 0
M  V30 8 N 2.402670 2.958496 0.630174 0
M  V30 9 N 3.055289 3.821052 -0.160777 0
M  V30 10 C 2.255611 4.091183 -1.233592 0
M  V30 11 C 1.088497 3.374488 -1.089882 0
M  V30 12 N -0.114071 3.044449 -1.570272 0
M  V30 13 C -0.780021 2.192285 -0.806131 0
M  V30 14 C -2.062587 1.521794 -0.823277 0
M  V30 15 C -2.429977 0.654446 0.183137 0
M  V30 16 C -3.618480 -0.016231 0.242286 0
M  V30 17 N -3.907517 -0.894555 1.327155 0
M  V30 18 C -3.522150 -2.275934 1.173624 0
M  V30 19 O -2.955682 -2.571292 0.069013 0
M  V30 20 N -3.692449 -3.346786 2.093082 0
M  V30 21 C -3.210219 -4.634533 1.677507 0
M  V30 22 C -3.977030 -5.555963 0.993220 0
M  V30 23 C -3.465561 -6.772980 0.619857 0
M  V30 24 C -2.155321 -7.125643 0.916049 0
M  V30 25 Cl -1.516299 -8.690512 0.429481 0
M  V30 26 C -1.394715 -6.184529 1.607093 0
M  V30 27 Cl 0.245975 -6.682993 1.952231 0
M  V30 28 C -1.911204 -4.958385 1.982843 0
M  V30 29 C -4.549848 0.153769 -0.752696 0
M  V30 30 C -4.222698 1.009815 -1.774051 0
M  V30 31 C -3.012183 1.669305 -1.798837 0
M  V30 32 C -2.795603 2.561859 -2.956760 0
M  V30 33 N 0.075001 1.987414 0.211672 0
M  V30 34 C 1.209022 2.674096 0.086882 0
M  V30 35 C 5.088303 1.242413 1.409026 0
M  V30 36 C 5.867057 0.115104 1.222442 0
M  V30 37 H 4.593767 -3.593919 0.374814 0
M  V30 38 H 6.056411 -4.308045 1.107869 0
M  V30 39 H 4.787058 -3.557703 2.189274 0
M  V30 40 H 3.371549 -2.196792 1.636006 0
M  V30 41 H 2.095233 -0.074673 1.950346 0
M  V30 42 H 2.126400 2.238776 2.580363 0
M  V30 43 H 3.613642 3.202504 2.330774 0
M  V30 44 H 2.450584 4.749409 -2.086211 0
M  V30 45 H -0.461107 3.424049 -2.441848 0
M  V30 46 H -1.746238 0.455813 1.024054 0
M  V30 47 H -4.366506 -0.708892 2.249388 0
M  V30 48 H -4.167408 -3.045331 2.992081 0
M  V30 49 H -5.018258 -5.289387 0.751650 0
M  V30 50 H -4.106293 -7.477989 0.077485 0
M  V30 51 H -1.214918 -4.322506 2.513225 0
M  V30 52 H -5.475104 -0.393913 -0.668479 0
M  V30 53 H -4.961707 1.134293 -2.548073 0
M  V30 54 H -2.015047 2.246155 -3.650561 0
M  V30 55 H -2.737164 3.634377 -2.621486 0
M  V30 56 H -3.726737 2.594567 -3.612804 0
M  V30 57 H 5.575966 2.207253 1.344167 0
M  V30 58 H 6.927878 0.159494 1.017452 0
M  V30 END ATOM
M  V30 BEGIN BOND
M  V30 1 1 1 2
M  V30 2 1 2 3
M  V30 3 2 3 4
M  V30 4 1 4 5
M  V30 5 2 5 6
M  V30 6 1 6 7
M  V30 7 1 7 8
M  V30 8 1 8 9
M  V30 9 2 9 10
M  V30 10 1 10 11
M  V30 11 1 11 12
M  V30 12 1 12 13
M  V30 13 1 13 14
M  V30 14 2 14 15
M  V30 15 1 15 16
M  V30 16 1 16 17
M  V30 17 1 17 18
M  V30 18 2 18 19
M  V30 19 1 18 20
M  V30 20 1 20 21
M  V30 21 2 21 22
M  V30 22 1 22 23
M  V30 23 2 23 24
M  V30 24 1 24 25
M  V30 25 1 24 26
M  V30 26 1 26 27
M  V30 27 2 26 28
M  V30 28 2 16 29
M  V30 29 1 29 30
M  V30 30 2 30 31
M  V30 31 1 31 32
M  V30 32 2 13 33
M  V30 33 1 33 34
M  V30 34 1 6 35
M  V30 35 2 35 36
M  V30 36 1 36 3
M  V30 37 1 34 8
M  V30 38 2 34 11
M  V30 39 1 31 14
M  V30 40 1 28 21
M  V30 41 1 1 37
M  V30 42 1 1 38
M  V30 43 1 1 39
M  V30 44 1 4 40
M  V30 45 1 5 41
M  V30 46 1 7 42
M  V30 47 1 7 43
M  V30 48 1 10 44
M  V30 49 1 12 45
M  V30 50 1 15 46
M  V30 51 1 17 47
M  V30 52 1 20 48
M  V30 53 1 22 49
M  V30 54 1 23 50
M  V30 55 1 28 51
M  V30 56 1 29 52
M  V30 57 1 30 53
M  V30 58 1 32 54
M  V30 59 1 32 55
M  V30 60 1 32 56
M  V30 61 1 35 57
M  V30 62 1 36 58
M  V30 END BOND
M  V30 END CTAB
M  END
>  <Dataset>  (667) 
ChEMBL_Kinases

>  <Ligand_Instance>  (667) 
nan

>  <PDB_ID>  (667) 
nan

>  <Standardized_SMILES>  (667) 
COc1ccc(Cn2ncc3[nH]c(-c4cc(NC(=O)Nc5ccc(Cl)c(Cl)c5)ccc4C)nc32)cc1

>  <Name>  (667) 
nan

>  <Pocket>  (667) 
nan

>  <ATP_Site>  (667) 
nan

>  <Peripheral>  (667) 
nan

>  <Num_H_Atoms_ProtBoundConf>  (667) 
nan

>  <Num_Resolved_Atoms>  (667) 
nan

>  <Num_Not_Resolved_Atoms>  (667) 
nan

$$$$
CHEMBL1084795
     RDKit          3D

  0  0  0  0  0  0  0  0  0  0999 V3000
M  V30 BEGIN CTAB
M  V30 COUNTS 47 50 0 0 0
M  V30 BEGIN ATOM
M  V30 1 C 0.615245 -6.278414 0.698479 0
M  V30 2 O 0.427836 -5.585731 -0.528756 0
M  V30 3 C 1.087804 -4.377929 -0.707894 0
M  V30 4 C 1.887010 -3.922300 0.317722 0
M  V30 5 C 2.545326 -2.721645 0.144209 0
M  V30 6 C 2.444420 -1.958100 -0.998425 0
M  V30 7 C 3.139702 -0.665287 -1.213347 0
M  V30 8 N 4.497670 -0.781725 -0.800116 0
M  V30 9 C 2.425521 0.437390 -0.466076 0
M  V30 10 C 3.096987 1.635212 -0.331664 0
M  V30 11 C 2.446246 2.641810 0.349884 0
M  V30 12 C 1.184672 2.341459 0.827771 0
M  V30 13 S 0.008310 3.429324 1.785708 0
M  V30 14 C -1.263778 2.161086 1.905983 0
M  V30 15 C -2.494843 2.475173 2.599676 0
M  V30 16 C -2.692253 3.719052 3.157918 0
M  V30 17 C -3.919953 3.909411 3.803670 0
M  V30 18 N -4.838581 2.908949 3.858803 0
M  V30 19 C -4.613871 1.707404 3.303628 0
M  V30 20 N -5.642899 0.737557 3.421940 0
M  V30 21 N -3.438064 1.519482 2.683078 0
M  V30 22 C -0.759180 1.098499 1.271882 0
M  V30 23 C -1.656405 -0.087604 1.247456 0
M  V30 24 C 0.485093 1.148117 0.708198 0
M  V30 25 C 1.168020 0.165057 0.020405 0
M  V30 26 C 1.618585 -2.497052 -1.974137 0
M  V30 27 C 0.927904 -3.680398 -1.886237 0
M  V30 28 H 1.698282 -6.450330 0.880416 0
M  V30 29 H 0.043071 -7.229368 0.700151 0
M  V30 30 H 0.256950 -5.644755 1.535918 0
M  V30 31 H 2.020568 -4.454857 1.240153 0
M  V30 32 H 3.170333 -2.364828 0.946685 0
M  V30 33 H 3.046334 -0.407348 -2.284404 0
M  V30 34 H 4.633707 -1.682114 -0.294976 0
M  V30 35 H 5.174290 -0.798346 -1.606350 0
M  V30 36 H 4.080187 1.849548 -0.711495 0
M  V30 37 H 2.824015 3.625124 0.541415 0
M  V30 38 H -1.980197 4.507494 3.120038 0
M  V30 39 H -4.098743 4.885341 4.252834 0
M  V30 40 H -5.956028 0.329113 4.329815 0
M  V30 41 H -5.875264 0.395356 4.396348 0
M  V30 42 H -1.220465 -0.921179 0.657215 0
M  V30 43 H -1.857843 -0.474400 2.247174 0
M  V30 44 H -2.611056 0.182669 0.723458 0
M  V30 45 H 0.747445 -0.815497 -0.150021 0
M  V30 46 H 1.504926 -1.930373 -2.899146 0
M  V30 47 H 0.303051 -4.024319 -2.703384 0
M  V30 END ATOM
M  V30 BEGIN BOND
M  V30 1 1 1 2
M  V30 2 1 2 3
M  V30 3 2 3 4
M  V30 4 1 4 5
M  V30 5 2 5 6
M  V30 6 1 6 7
M  V30 7 1 7 8
M  V30 8 1 7 9
M  V30 9 2 9 10
M  V30 10 1 10 11
M  V30 11 2 11 12
M  V30 12 1 12 13
M  V30 13 1 13 14
M  V30 14 1 14 15
M  V30 15 2 15 16
M  V30 16 1 16 17
M  V30 17 2 17 18
M  V30 18 1 18 19
M  V30 19 1 19 20
M  V30 20 2 19 21
M  V30 21 2 14 22
M  V30 22 1 22 23
M  V30 23 1 22 24
M  V30 24 2 24 25
M  V30 25 1 6 26
M  V30 26 2 26 27
M  V30 27 1 27 3
M  V30 28 1 25 9
M  V30 29 1 24 12
M  V30 30 1 21 15
M  V30 31 1 1 28
M  V30 32 1 1 29
M  V30 33 1 1 30
M  V30 34 1 4 31
M  V30 35 1 5 32
M  V30 36 1 7 33
M  V30 37 1 8 34
M  V30 38 1 8 35
M  V30 39 1 10 36
M  V30 40 1 11 37
M  V30 41 1 16 38
M  V30 42 1 17 39
M  V30 43 1 20 40
M  V30 44 1 20 41
M  V30 45 1 23 42
M  V30 46 1 23 43
M  V30 47 1 23 44
M  V30 48 1 25 45
M  V30 49 1 26 46
M  V30 50 1 27 47
M  V30 END BOND
M  V30 END CTAB
M  END
>  <Dataset>  (668) 
ChEMBL_Kinases

>  <Ligand_Instance>  (668) 
nan

>  <PDB_ID>  (668) 
nan

>  <Standardized_SMILES>  (668) 
COc1ccc(C(N)c2ccc3sc(-c4ccnc(N)n4)c(C)c3c2)cc1

>  <Name>  (668) 
nan

>  <Pocket>  (668) 
nan

>  <ATP_Site>  (668) 
nan

>  <Peripheral>  (668) 
nan

>  <Num_H_Atoms_ProtBoundConf>  (668) 
nan

>  <Num_Resolved_Atoms>  (668) 
nan

>  <Num_Not_Resolved_Atoms>  (668) 
nan

$$$$
CHEMBL1087544
     RDKit          3D

  0  0  0  0  0  0  0  0  0  0999 V3000
M  V30 BEGIN CTAB
M  V30 COUNTS 33 35 0 0 0
M  V30 BEGIN ATOM
M  V30 1 C -0.765647 -2.950212 3.745524 0
M  V30 2 O 0.283090 -3.427297 2.926118 0
M  V30 3 C 0.776750 -2.801899 1.810891 0
M  V30 4 C 0.373724 -1.611960 1.261841 0
M  V30 5 C 0.870822 -0.999150 0.156430 0
M  V30 6 C 1.884067 -1.728138 -0.406761 0
M  V30 7 C 2.371710 -2.926756 0.049065 0
M  V30 8 C 1.821134 -3.492715 1.180037 0
M  V30 9 Cl 2.460097 -5.021627 1.743663 0
M  V30 10 C 2.531266 -1.185149 -1.630426 0
M  V30 11 C 1.817070 -0.001046 -2.172778 0
M  V30 12 N 0.793986 0.574530 -1.411322 0
M  V30 13 C 0.256155 0.221696 -0.314334 0
M  V30 14 C -0.819174 0.965569 0.266947 0
M  V30 15 C -1.533356 1.051036 1.407821 0
M  V30 16 C -2.651077 1.763233 1.738646 0
M  V30 17 C -3.171170 2.555531 0.744701 0
M  V30 18 Cl -4.599352 3.495266 1.085273 0
M  V30 19 C -2.571931 2.599125 -0.490420 0
M  V30 20 Cl -3.269020 3.617974 -1.717259 0
M  V30 21 C -1.452742 1.821063 -0.663737 0
M  V30 22 H -1.229108 -3.866156 4.189296 0
M  V30 23 H -0.367279 -2.298948 4.576247 0
M  V30 24 H -1.482004 -2.352388 3.176504 0
M  V30 25 H -0.443820 -1.237668 1.818558 0
M  V30 26 H 3.176746 -3.436733 -0.457871 0
M  V30 27 H 2.484672 -2.003191 -2.378341 0
M  V30 28 H 3.611038 -1.005002 -1.450372 0
M  V30 29 H 1.417701 -0.209811 -3.210173 0
M  V30 30 H 2.604597 0.785139 -2.376885 0
M  V30 31 H -1.098113 0.497946 2.203730 0
M  V30 32 H -3.062061 1.676847 2.725874 0
M  V30 33 H -1.077792 1.948820 -1.691380 0
M  V30 END ATOM
M  V30 BEGIN BOND
M  V30 1 1 1 2
M  V30 2 1 2 3
M  V30 3 2 3 4
M  V30 4 1 4 5
M  V30 5 2 5 6
M  V30 6 1 6 7
M  V30 7 2 7 8
M  V30 8 1 8 9
M  V30 9 1 6 10
M  V30 10 1 10 11
M  V30 11 1 11 12
M  V30 12 2 12 13
M  V30 13 1 13 14
M  V30 14 2 14 15
M  V30 15 1 15 16
M  V30 16 2 16 17
M  V30 17 1 17 18
M  V30 18 1 17 19
M  V30 19 1 19 20
M  V30 20 2 19 21
M  V30 21 1 8 3
M  V30 22 1 21 14
M  V30 23 1 13 5
M  V30 24 1 1 22
M  V30 25 1 1 23
M  V30 26 1 1 24
M  V30 27 1 4 25
M  V30 28 1 7 26
M  V30 29 1 10 27
M  V30 30 1 10 28
M  V30 31 1 11 29
M  V30 32 1 11 30
M  V30 33 1 15 31
M  V30 34 1 16 32
M  V30 35 1 21 33
M  V30 END BOND
M  V30 END CTAB
M  END
>  <Dataset>  (669) 
ChEMBL_Kinases

>  <Ligand_Instance>  (669) 
nan

>  <PDB_ID>  (669) 
nan

>  <Standardized_SMILES>  (669) 
COc1cc2c(cc1Cl)CCN=C2c1ccc(Cl)c(Cl)c1

>  <Name>  (669) 
nan

>  <Pocket>  (669) 
nan

>  <ATP_Site>  (669) 
nan

>  <Peripheral>  (669) 
nan

>  <Num_H_Atoms_ProtBoundConf>  (669) 
nan

>  <Num_Resolved_Atoms>  (669) 
nan

>  <Num_Not_Resolved_Atoms>  (669) 
nan

$$$$
CHEMBL1087499
     RDKit          3D

  0  0  0  0  0  0  0  0  0  0999 V3000
M  V30 BEGIN CTAB
M  V30 COUNTS 72 78 0 0 0
M  V30 BEGIN ATOM
M  V30 1 C 5.085956 -1.830275 1.649041 0
M  V30 2 N 3.663454 -1.803433 1.356319 0
M  V30 3 C 3.483340 -2.732146 0.229377 0
M  V30 4 C 2.603203 -1.100654 1.944993 0
M  V30 5 N 1.488990 -1.556296 2.526527 0
M  V30 6 C 0.618393 -0.672706 3.024431 0
M  V30 7 C 0.534263 0.691444 3.125437 0
M  V30 8 C 1.674631 1.172783 2.528160 0
M  V30 9 C 2.552265 0.258299 2.017927 0
M  V30 10 C 3.594127 1.023144 1.208040 0
M  V30 11 C 2.734164 1.665334 0.045109 0
M  V30 12 C 1.982073 0.543875 -0.616573 0
M  V30 13 N 1.044453 0.909430 -1.640361 0
M  V30 14 C -0.202619 1.486749 -1.153688 0
M  V30 15 C -1.264943 0.940151 -1.794647 0
M  V30 16 C -2.661682 1.069396 -1.368081 0
M  V30 17 C -3.406847 0.379637 -0.553647 0
M  V30 18 C -4.769528 0.962475 -0.490658 0
M  V30 19 O -5.853601 0.683153 0.133442 0
M  V30 20 N -4.852812 2.100531 -1.338697 0
M  V30 21 C -3.540967 2.157739 -1.877454 0
M  V30 22 O -3.218684 3.080823 -2.712236 0
M  V30 23 C -3.253053 -0.798626 0.311197 0
M  V30 24 C -3.171202 -0.629671 1.698482 0
M  V30 25 N -3.031760 -1.833141 2.334882 0
M  V30 26 C -3.025623 -2.765954 1.368484 0
M  V30 27 C -2.905243 -4.124520 1.571325 0
M  V30 28 C -2.923527 -4.905174 0.422159 0
M  V30 29 C -3.055658 -4.322760 -0.829677 0
M  V30 30 C -3.175239 -2.937621 -0.990782 0
M  V30 31 C -3.157559 -2.162477 0.142429 0
M  V30 32 C -2.910547 -1.671798 3.808044 0
M  V30 33 C -1.701207 -0.710111 4.009527 0
M  V30 34 C -0.566527 -1.471326 3.365705 0
M  V30 35 N -0.629848 0.265413 -2.909808 0
M  V30 36 C -1.023525 -0.827164 -3.717229 0
M  V30 37 C -0.158989 -1.272421 -4.630425 0
M  V30 38 C 1.136063 -0.610000 -4.756795 0
M  V30 39 C 1.529915 0.438634 -4.020477 0
M  V30 40 C 0.650214 1.000386 -3.021506 0
M  V30 41 H 5.285508 -1.060710 2.432089 0
M  V30 42 H 5.696810 -1.578909 0.750309 0
M  V30 43 H 5.392721 -2.811459 2.073841 0
M  V30 44 H 2.385582 -2.836999 -0.017811 0
M  V30 45 H 3.790649 -3.767205 0.497758 0
M  V30 46 H 4.067337 -2.435176 -0.649514 0
M  V30 47 H -0.246853 1.260828 3.576507 0
M  V30 48 H 1.721809 2.244363 2.547882 0
M  V30 49 H 4.265465 0.341841 0.724870 0
M  V30 50 H 3.992440 1.851271 1.792395 0
M  V30 51 H 2.113280 2.395798 0.559943 0
M  V30 52 H 3.455705 2.075405 -0.679312 0
M  V30 53 H 1.383253 0.058542 0.214341 0
M  V30 54 H 2.662209 -0.251198 -0.993295 0
M  V30 55 H -0.405507 2.249530 -0.394461 0
M  V30 56 H -5.627804 2.763944 -1.559061 0
M  V30 57 H -3.228916 0.386673 2.120107 0
M  V30 58 H -2.803087 -4.560627 2.552136 0
M  V30 59 H -2.831538 -5.983723 0.530301 0
M  V30 60 H -3.068456 -4.948673 -1.717923 0
M  V30 61 H -3.277753 -2.474406 -1.948294 0
M  V30 62 H -3.814387 -1.307883 4.273612 0
M  V30 63 H -2.604566 -2.639454 4.208671 0
M  V30 64 H -1.919710 0.263153 3.606973 0
M  V30 65 H -1.546999 -0.658682 5.088490 0
M  V30 66 H -0.917286 -1.988776 2.442112 0
M  V30 67 H -0.258068 -2.231853 4.140020 0
M  V30 68 H -1.997153 -1.249447 -3.561682 0
M  V30 69 H -0.426350 -2.107939 -5.257118 0
M  V30 70 H 1.849262 -0.983965 -5.502321 0
M  V30 71 H 2.497309 0.907136 -4.130525 0
M  V30 72 H 0.383047 2.069347 -3.248702 0
M  V30 END ATOM
M  V30 BEGIN BOND
M  V30 1 1 1 2
M  V30 2 1 2 3
M  V30 3 1 2 4
M  V30 4 1 4 5
M  V30 5 2 5 6
M  V30 6 1 6 7
M  V30 7 2 7 8
M  V30 8 1 8 9
M  V30 9 1 9 10
M  V30 10 1 10 11
M  V30 11 1 11 12
M  V30 12 1 12 13
M  V30 13 1 13 14
M  V30 14 2 14 15
M  V30 15 1 15 16
M  V30 16 2 16 17
M  V30 17 1 17 18
M  V30 18 2 18 19
M  V30 19 1 18 20
M  V30 20 1 20 21
M  V30 21 2 21 22
M  V30 22 1 17 23
M  V30 23 2 23 24
M  V30 24 1 24 25
M  V30 25 1 25 26
M  V30 26 2 26 27
M  V30 27 1 27 28
M  V30 28 2 28 29
M  V30 29 1 29 30
M  V30 30 2 30 31
M  V30 31 1 25 32
M  V30 32 1 32 33
M  V30 33 1 33 34
M  V30 34 1 15 35
M  V30 35 1 35 36
M  V30 36 2 36 37
M  V30 37 1 37 38
M  V30 38 2 38 39
M  V30 39 1 39 40
M  V30 40 2 9 4
M  V30 41 1 40 13
M  V30 42 1 34 6
M  V30 43 1 40 35
M  V30 44 1 21 16
M  V30 45 1 31 23
M  V30 46 1 31 26
M  V30 47 1 1 41
M  V30 48 1 1 42
M  V30 49 1 1 43
M  V30 50 1 3 44
M  V30 51 1 3 45
M  V30 52 1 3 46
M  V30 53 1 7 47
M  V30 54 1 8 48
M  V30 55 1 10 49
M  V30 56 1 10 50
M  V30 57 1 11 51
M  V30 58 1 11 52
M  V30 59 1 12 53
M  V30 60 1 12 54
M  V30 61 1 14 55
M  V30 62 1 20 56
M  V30 63 1 24 57
M  V30 64 1 27 58
M  V30 65 1 28 59
M  V30 66 1 29 60
M  V30 67 1 30 61
M  V30 68 1 32 62
M  V30 69 1 32 63
M  V30 70 1 33 64
M  V30 71 1 33 65
M  V30 72 1 34 66
M  V30 73 1 34 67
M  V30 74 1 36 68
M  V30 75 1 37 69
M  V30 76 1 38 70
M  V30 77 1 39 71
M  V30 78 1 40 72
M  V30 END BOND
M  V30 END CTAB
M  END
>  <Dataset>  (670) 
ChEMBL_Kinases

>  <Ligand_Instance>  (670) 
nan

>  <PDB_ID>  (670) 
nan

>  <Standardized_SMILES>  (670) 
CN(C)c1nc2ccc1CCCN1C=C(C3=C(C(=O)NC3=O)c3cn(c4ccccc34)CCC2)N2C=CC=CC12

>  <Name>  (670) 
nan

>  <Pocket>  (670) 
nan

>  <ATP_Site>  (670) 
nan

>  <Peripheral>  (670) 
nan

>  <Num_H_Atoms_ProtBoundConf>  (670) 
nan

>  <Num_Resolved_Atoms>  (670) 
nan

>  <Num_Not_Resolved_Atoms>  (670) 
nan

$$$$
CHEMBL1087386
     RDKit          3D

  0  0  0  0  0  0  0  0  0  0999 V3000
M  V30 BEGIN CTAB
M  V30 COUNTS 49 53 0 0 0
M  V30 BEGIN ATOM
M  V30 1 C -0.473090 0.599806 -2.050008 0
M  V30 2 C 0.674822 0.765118 -1.118477 0
M  V30 3 C 1.926094 0.557079 -1.653012 0
M  V30 4 C 3.061653 0.683892 -0.882469 0
M  V30 5 C 2.977604 1.024054 0.451913 0
M  V30 6 C 4.069242 1.210549 1.408354 0
M  V30 7 O 3.925536 1.429647 2.636795 0
M  V30 8 N 5.401570 1.143021 0.929055 0
M  V30 9 C 6.494869 1.322384 1.861178 0
M  V30 10 C 7.719634 0.424733 1.612062 0
M  V30 11 C 7.788139 1.884781 1.377832 0
M  V30 12 C 1.719075 1.230873 0.979412 0
M  V30 13 C 0.546799 1.109309 0.220944 0
M  V30 14 N -0.723551 1.337788 0.738387 0
M  V30 15 C -1.943609 0.689901 0.992838 0
M  V30 16 N -2.988407 1.418116 1.429657 0
M  V30 17 N -4.143106 0.842247 1.689471 0
M  V30 18 C -4.388355 -0.469574 1.552787 0
M  V30 19 C -3.344802 -1.269516 1.105370 0
M  V30 20 C -2.115587 -0.668838 0.826741 0
M  V30 21 C -1.325267 -1.689926 0.428517 0
M  V30 22 N -2.034322 -2.844805 0.462523 0
M  V30 23 N -3.271499 -2.607408 0.873975 0
M  V30 24 C -4.378771 -3.478436 1.074378 0
M  V30 25 C -4.954829 -3.565546 2.322323 0
M  V30 26 C -6.030158 -4.380976 2.608979 0
M  V30 27 C -6.574486 -5.167327 1.585871 0
M  V30 28 C -5.978188 -5.063404 0.337030 0
M  V30 29 F -6.530997 -5.835683 -0.625897 0
M  V30 30 C -4.892722 -4.241183 0.044330 0
M  V30 31 H -0.803677 -0.445117 -2.131053 0
M  V30 32 H -0.164220 0.878012 -3.101979 0
M  V30 33 H -1.272689 1.325045 -1.805523 0
M  V30 34 H 2.151896 0.281882 -2.690556 0
M  V30 35 H 4.071516 0.532971 -1.240293 0
M  V30 36 H 5.669530 0.970606 -0.062993 0
M  V30 37 H 6.224579 1.470136 2.925652 0
M  V30 38 H 8.269292 0.047636 2.498224 0
M  V30 39 H 7.728309 -0.227341 0.721127 0
M  V30 40 H 8.371919 2.499066 2.063383 0
M  V30 41 H 7.787766 2.227959 0.324000 0
M  V30 42 H 1.556571 1.505234 2.029331 0
M  V30 43 H -0.649106 2.364206 0.998085 0
M  V30 44 H -5.349102 -0.912578 1.773572 0
M  V30 45 H -0.292522 -1.592901 0.137044 0
M  V30 46 H -4.576880 -2.977371 3.166524 0
M  V30 47 H -6.458465 -4.422833 3.608000 0
M  V30 48 H -7.409666 -5.815419 1.764474 0
M  V30 49 H -4.475442 -4.207319 -0.952279 0
M  V30 END ATOM
M  V30 BEGIN BOND
M  V30 1 1 1 2
M  V30 2 2 2 3
M  V30 3 1 3 4
M  V30 4 2 4 5
M  V30 5 1 5 6
M  V30 6 2 6 7
M  V30 7 1 6 8
M  V30 8 1 8 9
M  V30 9 1 9 10
M  V30 10 1 10 11
M  V30 11 1 5 12
M  V30 12 2 12 13
M  V30 13 1 13 14
M  V30 14 1 14 15
M  V30 15 2 15 16
M  V30 16 1 16 17
M  V30 17 2 17 18
M  V30 18 1 18 19
M  V30 19 2 19 20
M  V30 20 1 20 21
M  V30 21 2 21 22
M  V30 22 1 22 23
M  V30 23 1 23 24
M  V30 24 2 24 25
M  V30 25 1 25 26
M  V30 26 2 26 27
M  V30 27 1 27 28
M  V30 28 1 28 29
M  V30 29 2 28 30
M  V30 30 1 13 2
M  V30 31 1 20 15
M  V30 32 1 30 24
M  V30 33 1 11 9
M  V30 34 1 23 19
M  V30 35 1 1 31
M  V30 36 1 1 32
M  V30 37 1 1 33
M  V30 38 1 3 34
M  V30 39 1 4 35
M  V30 40 1 8 36
M  V30 41 1 9 37
M  V30 42 1 10 38
M  V30 43 1 10 39
M  V30 44 1 11 40
M  V30 45 1 11 41
M  V30 46 1 12 42
M  V30 47 1 14 43
M  V30 48 1 18 44
M  V30 49 1 21 45
M  V30 50 1 25 46
M  V30 51 1 26 47
M  V30 52 1 27 48
M  V30 53 1 30 49
M  V30 END BOND
M  V30 END CTAB
M  END
>  <Dataset>  (671) 
ChEMBL_Kinases

>  <Ligand_Instance>  (671) 
nan

>  <PDB_ID>  (671) 
nan

>  <Standardized_SMILES>  (671) 
Cc1ccc(C(=O)NC2CC2)cc1Nc1nncc2c1cnn2-c1cccc(F)c1

>  <Name>  (671) 
nan

>  <Pocket>  (671) 
nan

>  <ATP_Site>  (671) 
nan

>  <Peripheral>  (671) 
nan

>  <Num_H_Atoms_ProtBoundConf>  (671) 
nan

>  <Num_Resolved_Atoms>  (671) 
nan

>  <Num_Not_Resolved_Atoms>  (671) 
nan

$$$$
CHEMBL1087380
     RDKit          3D

  0  0  0  0  0  0  0  0  0  0999 V3000
M  V30 BEGIN CTAB
M  V30 COUNTS 36 39 0 0 0
M  V30 BEGIN ATOM
M  V30 1 C -0.335472 -4.558839 1.893494 0
M  V30 2 N -0.111688 -3.327317 1.166478 0
M  V30 3 C 1.073788 -2.798088 0.819183 0
M  V30 4 C 0.876142 -1.592559 0.134930 0
M  V30 5 C 1.901570 -0.693775 -0.443730 0
M  V30 6 C 1.961802 0.630065 -0.200255 0
M  V30 7 C 1.190052 1.577590 0.591817 0
M  V30 8 C 0.845556 2.872548 0.349933 0
M  V30 9 C 0.105387 3.551625 1.292533 0
M  V30 10 C -0.313249 2.981176 2.490111 0
M  V30 11 N 0.024106 1.711048 2.729003 0
M  V30 12 C 0.744698 1.051101 1.810361 0
M  V30 13 C 3.096033 1.172544 -0.948848 0
M  V30 14 O 3.554307 2.360306 -1.039693 0
M  V30 15 N 3.749024 0.135851 -1.672424 0
M  V30 16 C 3.003062 -1.030585 -1.356817 0
M  V30 17 O 3.144406 -2.224628 -1.724156 0
M  V30 18 C -0.516072 -1.443132 0.098371 0
M  V30 19 C -1.292729 -0.433590 -0.467248 0
M  V30 20 C -2.679784 -0.501244 -0.391770 0
M  V30 21 C -3.202531 -1.599247 0.258370 0
M  V30 22 C -2.488317 -2.629204 0.837285 0
M  V30 23 C -1.108263 -2.529560 0.743350 0
M  V30 24 H 0.338495 -4.588152 2.796931 0
M  V30 25 H -1.377258 -4.591361 2.315564 0
M  V30 26 H -0.183018 -5.473767 1.325574 0
M  V30 27 H 2.037692 -3.213116 1.021086 0
M  V30 28 H 1.201330 3.243648 -0.592173 0
M  V30 29 H -0.152610 4.577295 1.073445 0
M  V30 30 H -0.891120 3.549616 3.201474 0
M  V30 31 H 0.960479 0.016975 2.120589 0
M  V30 32 H 4.595046 0.146514 -2.316217 0
M  V30 33 H -0.897799 0.422125 -0.981144 0
M  V30 34 H -3.369161 0.229078 -0.796492 0
M  V30 35 H -4.285325 -1.673818 0.327948 0
M  V30 36 H -2.984912 -3.453997 1.328121 0
M  V30 END ATOM
M  V30 BEGIN BOND
M  V30 1 1 1 2
M  V30 2 1 2 3
M  V30 3 2 3 4
M  V30 4 1 4 5
M  V30 5 2 5 6
M  V30 6 1 6 7
M  V30 7 2 7 8
M  V30 8 1 8 9
M  V30 9 2 9 10
M  V30 10 1 10 11
M  V30 11 2 11 12
M  V30 12 1 6 13
M  V30 13 2 13 14
M  V30 14 1 13 15
M  V30 15 1 15 16
M  V30 16 2 16 17
M  V30 17 1 4 18
M  V30 18 2 18 19
M  V30 19 1 19 20
M  V30 20 2 20 21
M  V30 21 1 21 22
M  V30 22 2 22 23
M  V30 23 1 23 2
M  V30 24 1 16 5
M  V30 25 1 23 18
M  V30 26 1 12 7
M  V30 27 1 1 24
M  V30 28 1 1 25
M  V30 29 1 1 26
M  V30 30 1 3 27
M  V30 31 1 8 28
M  V30 32 1 9 29
M  V30 33 1 10 30
M  V30 34 1 12 31
M  V30 35 1 15 32
M  V30 36 1 19 33
M  V30 37 1 20 34
M  V30 38 1 21 35
M  V30 39 1 22 36
M  V30 END BOND
M  V30 END CTAB
M  END
>  <Dataset>  (672) 
ChEMBL_Kinases

>  <Ligand_Instance>  (672) 
nan

>  <PDB_ID>  (672) 
nan

>  <Standardized_SMILES>  (672) 
Cn1cc(C2=C(c3cccnc3)C(=O)NC2=O)c2ccccc21

>  <Name>  (672) 
nan

>  <Pocket>  (672) 
nan

>  <ATP_Site>  (672) 
nan

>  <Peripheral>  (672) 
nan

>  <Num_H_Atoms_ProtBoundConf>  (672) 
nan

>  <Num_Resolved_Atoms>  (672) 
nan

>  <Num_Not_Resolved_Atoms>  (672) 
nan

$$$$
CHEMBL1087243
     RDKit          3D

  0  0  0  0  0  0  0  0  0  0999 V3000
M  V30 BEGIN CTAB
M  V30 COUNTS 45 48 0 0 0
M  V30 BEGIN ATOM
M  V30 1 C 1.725303 -5.985802 1.913907 0
M  V30 2 O 0.961746 -5.174735 1.051554 0
M  V30 3 C 1.199057 -3.854713 0.742227 0
M  V30 4 C 2.274079 -3.145822 1.255582 0
M  V30 5 C 2.504216 -1.820962 0.946062 0
M  V30 6 C 1.613791 -1.204965 0.089790 0
M  V30 7 O 1.817819 0.126888 -0.244051 0
M  V30 8 C 2.906266 0.856642 0.264851 0
M  V30 9 C 0.519712 -1.905213 -0.439850 0
M  V30 10 C -0.368371 -1.115047 -1.310121 0
M  V30 11 C -0.857347 0.122006 -1.089265 0
M  V30 12 C -0.737306 1.107660 -0.008730 0
M  V30 13 C -0.430285 2.462228 0.007601 0
M  V30 14 N -0.478117 2.924642 1.261636 0
M  V30 15 C -0.206342 4.297243 1.651905 0
M  V30 16 C -0.818650 1.876590 2.073435 0
M  V30 17 C -1.009764 1.812527 3.457831 0
M  V30 18 C -1.362992 0.629999 4.071933 0
M  V30 19 C -1.540847 -0.530391 3.346992 0
M  V30 20 C -1.338724 -0.409941 1.989453 0
M  V30 21 C -0.990512 0.712666 1.312543 0
M  V30 22 C -1.707358 0.499023 -2.240938 0
M  V30 23 O -2.364502 1.561219 -2.458848 0
M  V30 24 N -1.702131 -0.595007 -3.178653 0
M  V30 25 C -0.875840 -1.559433 -2.578176 0
M  V30 26 O -0.693994 -2.651009 -3.211631 0
M  V30 27 C 0.303351 -3.249176 -0.114916 0
M  V30 28 H 2.363860 -6.678752 1.336468 0
M  V30 29 H 1.036405 -6.627528 2.548244 0
M  V30 30 H 2.323098 -5.351240 2.614863 0
M  V30 31 H 2.988880 -3.588256 1.923207 0
M  V30 32 H 3.320672 -1.233401 1.319599 0
M  V30 33 H 2.846473 1.889699 -0.131322 0
M  V30 34 H 2.801089 0.935648 1.383211 0
M  V30 35 H 3.858372 0.337126 0.014578 0
M  V30 36 H -0.194423 2.980842 -0.926866 0
M  V30 37 H -0.210816 4.407185 2.765223 0
M  V30 38 H -0.962078 4.989992 1.215947 0
M  V30 39 H 0.815874 4.612535 1.270138 0
M  V30 40 H -0.888202 2.687773 4.102112 0
M  V30 41 H -1.503453 0.612284 5.151463 0
M  V30 42 H -1.820904 -1.480553 3.797669 0
M  V30 43 H -1.495853 -1.326269 1.437960 0
M  V30 44 H -2.225952 -0.602822 -4.098671 0
M  V30 45 H -0.566470 -3.724385 -0.565802 0
M  V30 END ATOM
M  V30 BEGIN BOND
M  V30 1 1 1 2
M  V30 2 1 2 3
M  V30 3 2 3 4
M  V30 4 1 4 5
M  V30 5 2 5 6
M  V30 6 1 6 7
M  V30 7 1 7 8
M  V30 8 1 6 9
M  V30 9 1 9 10
M  V30 10 2 10 11
M  V30 11 1 11 12
M  V30 12 2 12 13
M  V30 13 1 13 14
M  V30 14 1 14 15
M  V30 15 1 14 16
M  V30 16 2 16 17
M  V30 17 1 17 18
M  V30 18 2 18 19
M  V30 19 1 19 20
M  V30 20 2 20 21
M  V30 21 1 11 22
M  V30 22 2 22 23
M  V30 23 1 22 24
M  V30 24 1 24 25
M  V30 25 2 25 26
M  V30 26 2 9 27
M  V30 27 1 27 3
M  V30 28 1 25 10
M  V30 29 1 21 12
M  V30 30 1 21 16
M  V30 31 1 1 28
M  V30 32 1 1 29
M  V30 33 1 1 30
M  V30 34 1 4 31
M  V30 35 1 5 32
M  V30 36 1 8 33
M  V30 37 1 8 34
M  V30 38 1 8 35
M  V30 39 1 13 36
M  V30 40 1 15 37
M  V30 41 1 15 38
M  V30 42 1 15 39
M  V30 43 1 17 40
M  V30 44 1 18 41
M  V30 45 1 19 42
M  V30 46 1 20 43
M  V30 47 1 24 44
M  V30 48 1 27 45
M  V30 END BOND
M  V30 END CTAB
M  END
>  <Dataset>  (673) 
ChEMBL_Kinases

>  <Ligand_Instance>  (673) 
nan

>  <PDB_ID>  (673) 
nan

>  <Standardized_SMILES>  (673) 
COc1ccc(OC)c(C2=C(c3cn(C)c4ccccc34)C(=O)NC2=O)c1

>  <Name>  (673) 
nan

>  <Pocket>  (673) 
nan

>  <ATP_Site>  (673) 
nan

>  <Peripheral>  (673) 
nan

>  <Num_H_Atoms_ProtBoundConf>  (673) 
nan

>  <Num_Resolved_Atoms>  (673) 
nan

>  <Num_Not_Resolved_Atoms>  (673) 
nan

$$$$
CHEMBL1087242
     RDKit          3D

  0  0  0  0  0  0  0  0  0  0999 V3000
M  V30 BEGIN CTAB
M  V30 COUNTS 45 48 0 0 0
M  V30 BEGIN ATOM
M  V30 1 C -0.754734 -5.918607 3.134683 0
M  V30 2 O -0.739970 -4.905977 2.319846 0
M  V30 3 C -0.719275 -3.991421 1.450799 0
M  V30 4 C -0.641603 -4.185056 0.094458 0
M  V30 5 C -0.613749 -3.255652 -0.914861 0
M  V30 6 C -0.676047 -1.944122 -0.425250 0
M  V30 7 C -0.653893 -0.896072 -1.442895 0
M  V30 8 C -0.012582 0.284287 -1.399727 0
M  V30 9 C 0.828303 0.856546 -0.359701 0
M  V30 10 C 1.821469 0.158690 0.341440 0
M  V30 11 N 2.415238 0.963300 1.244812 0
M  V30 12 C 3.480191 0.614699 2.147566 0
M  V30 13 C 1.847870 2.179981 1.169482 0
M  V30 14 C 2.046743 3.371280 1.844566 0
M  V30 15 C 1.322061 4.531468 1.599309 0
M  V30 16 C 0.365588 4.415589 0.612771 0
M  V30 17 C 0.158632 3.235254 -0.065966 0
M  V30 18 C 0.882584 2.116913 0.194284 0
M  V30 19 C -0.275237 0.990205 -2.646473 0
M  V30 20 O 0.049141 2.092846 -3.152978 0
M  V30 21 N -1.114468 0.177849 -3.455488 0
M  V30 22 C -1.373549 -1.015068 -2.732600 0
M  V30 23 O -2.071629 -2.017218 -3.068637 0
M  V30 24 C -0.756612 -1.605566 0.904270 0
M  V30 25 C -0.776520 -2.640575 1.814739 0
M  V30 26 O -0.857477 -2.334578 3.165372 0
M  V30 27 C -0.918951 -0.971649 3.593164 0
M  V30 28 H -0.189281 -5.806448 4.113966 0
M  V30 29 H -1.782906 -6.240455 3.517174 0
M  V30 30 H -0.321792 -6.896332 2.743933 0
M  V30 31 H -0.596008 -5.238153 -0.225390 0
M  V30 32 H -0.551151 -3.486693 -1.955947 0
M  V30 33 H 2.106683 -0.895899 0.202760 0
M  V30 34 H 3.133894 -0.079122 2.928386 0
M  V30 35 H 3.903134 1.545418 2.626994 0
M  V30 36 H 4.341547 0.184495 1.590751 0
M  V30 37 H 2.811100 3.373287 2.598115 0
M  V30 38 H 1.520897 5.429322 2.155948 0
M  V30 39 H -0.223202 5.293733 0.386592 0
M  V30 40 H -0.608109 3.239440 -0.805871 0
M  V30 41 H -1.546988 0.282219 -4.412969 0
M  V30 42 H -0.807608 -0.590012 1.246035 0
M  V30 43 H -0.785657 -0.900480 4.695346 0
M  V30 44 H -1.802813 -0.442458 3.225361 0
M  V30 45 H -0.034434 -0.452213 3.121979 0
M  V30 END ATOM
M  V30 BEGIN BOND
M  V30 1 1 1 2
M  V30 2 1 2 3
M  V30 3 2 3 4
M  V30 4 1 4 5
M  V30 5 2 5 6
M  V30 6 1 6 7
M  V30 7 2 7 8
M  V30 8 1 8 9
M  V30 9 2 9 10
M  V30 10 1 10 11
M  V30 11 1 11 12
M  V30 12 1 11 13
M  V30 13 2 13 14
M  V30 14 1 14 15
M  V30 15 2 15 16
M  V30 16 1 16 17
M  V30 17 2 17 18
M  V30 18 1 8 19
M  V30 19 2 19 20
M  V30 20 1 19 21
M  V30 21 1 21 22
M  V30 22 2 22 23
M  V30 23 1 6 24
M  V30 24 2 24 25
M  V30 25 1 25 26
M  V30 26 1 26 27
M  V30 27 1 25 3
M  V30 28 1 22 7
M  V30 29 1 18 9
M  V30 30 1 18 13
M  V30 31 1 1 28
M  V30 32 1 1 29
M  V30 33 1 1 30
M  V30 34 1 4 31
M  V30 35 1 5 32
M  V30 36 1 10 33
M  V30 37 1 12 34
M  V30 38 1 12 35
M  V30 39 1 12 36
M  V30 40 1 14 37
M  V30 41 1 15 38
M  V30 42 1 16 39
M  V30 43 1 17 40
M  V30 44 1 21 41
M  V30 45 1 24 42
M  V30 46 1 27 43
M  V30 47 1 27 44
M  V30 48 1 27 45
M  V30 END BOND
M  V30 END CTAB
M  END
>  <Dataset>  (674) 
ChEMBL_Kinases

>  <Ligand_Instance>  (674) 
nan

>  <PDB_ID>  (674) 
nan

>  <Standardized_SMILES>  (674) 
COc1ccc(C2=C(c3cn(C)c4ccccc34)C(=O)NC2=O)cc1OC

>  <Name>  (674) 
nan

>  <Pocket>  (674) 
nan

>  <ATP_Site>  (674) 
nan

>  <Peripheral>  (674) 
nan

>  <Num_H_Atoms_ProtBoundConf>  (674) 
nan

>  <Num_Resolved_Atoms>  (674) 
nan

>  <Num_Not_Resolved_Atoms>  (674) 
nan

$$$$
CHEMBL1086782
     RDKit          3D

  0  0  0  0  0  0  0  0  0  0999 V3000
M  V30 BEGIN CTAB
M  V30 COUNTS 37 39 0 0 0
M  V30 BEGIN ATOM
M  V30 1 C 1.532483 -4.171002 4.364307 0
M  V30 2 C 0.755077 -4.942739 3.352916 0
M  V30 3 C 1.448342 -4.928356 1.984628 0
M  V30 4 C 1.517741 -3.472180 1.623116 0
M  V30 5 O 1.062288 -2.575971 2.384272 0
M  V30 6 N 2.103609 -2.994323 0.392624 0
M  V30 7 C 1.995106 -1.565662 0.388236 0
M  V30 8 N 2.989776 -0.795169 0.915169 0
M  V30 9 N 2.689911 0.485185 0.809234 0
M  V30 10 C 1.485294 0.579376 0.207009 0
M  V30 11 C 0.636335 1.613976 -0.183204 0
M  V30 12 C -0.582140 1.359657 -0.804353 0
M  V30 13 C -1.383234 2.539031 -1.165539 0
M  V30 14 C -2.173129 2.418671 -2.277550 0
M  V30 15 C -2.916828 3.554737 -2.590008 0
M  V30 16 N -2.883911 4.703025 -1.871652 0
M  V30 17 C -2.073216 4.729602 -0.787286 0
M  V30 18 C -1.288789 3.685650 -0.366906 0
M  V30 19 C -0.976136 0.054995 -1.048101 0
M  V30 20 C -0.172766 -1.008813 -0.681863 0
M  V30 21 C 1.024495 -0.694999 -0.069218 0
M  V30 22 H 2.568574 -3.927489 4.087464 0
M  V30 23 H 1.050787 -3.186979 4.639488 0
M  V30 24 H 1.604242 -4.744174 5.330436 0
M  V30 25 H 0.550229 -5.976752 3.680489 0
M  V30 26 H -0.229396 -4.433919 3.216069 0
M  V30 27 H 0.904314 -5.536157 1.270619 0
M  V30 28 H 2.483686 -5.276516 2.178267 0
M  V30 29 H 2.494258 -3.697807 -0.271247 0
M  V30 30 H 3.252156 1.317557 1.121209 0
M  V30 31 H 1.008361 2.616326 0.039021 0
M  V30 32 H -2.205832 1.520474 -2.848175 0
M  V30 33 H -3.568506 3.533060 -3.462085 0
M  V30 34 H -2.057951 5.662090 -0.218583 0
M  V30 35 H -0.652763 3.736958 0.501502 0
M  V30 36 H -1.929447 -0.103803 -1.532573 0
M  V30 37 H -0.465372 -2.033984 -0.864761 0
M  V30 END ATOM
M  V30 BEGIN BOND
M  V30 1 1 1 2
M  V30 2 1 2 3
M  V30 3 1 3 4
M  V30 4 2 4 5
M  V30 5 1 4 6
M  V30 6 1 6 7
M  V30 7 2 7 8
M  V30 8 1 8 9
M  V30 9 1 9 10
M  V30 10 2 10 11
M  V30 11 1 11 12
M  V30 12 1 12 13
M  V30 13 2 13 14
M  V30 14 1 14 15
M  V30 15 2 15 16
M  V30 16 1 16 17
M  V30 17 2 17 18
M  V30 18 2 12 19
M  V30 19 1 19 20
M  V30 20 2 20 21
M  V30 21 1 21 7
M  V30 22 1 21 10
M  V30 23 1 18 13
M  V30 24 1 1 22
M  V30 25 1 1 23
M  V30 26 1 1 24
M  V30 27 1 2 25
M  V30 28 1 2 26
M  V30 29 1 3 27
M  V30 30 1 3 28
M  V30 31 1 6 29
M  V30 32 1 9 30
M  V30 33 1 11 31
M  V30 34 1 14 32
M  V30 35 1 15 33
M  V30 36 1 17 34
M  V30 37 1 18 35
M  V30 38 1 19 36
M  V30 39 1 20 37
M  V30 END BOND
M  V30 END CTAB
M  END
>  <Dataset>  (675) 
ChEMBL_Kinases

>  <Ligand_Instance>  (675) 
nan

>  <PDB_ID>  (675) 
nan

>  <Standardized_SMILES>  (675) 
CCCC(=O)Nc1n[nH]c2cc(-c3ccncc3)ccc12

>  <Name>  (675) 
nan

>  <Pocket>  (675) 
nan

>  <ATP_Site>  (675) 
nan

>  <Peripheral>  (675) 
nan

>  <Num_H_Atoms_ProtBoundConf>  (675) 
nan

>  <Num_Resolved_Atoms>  (675) 
nan

>  <Num_Not_Resolved_Atoms>  (675) 
nan

$$$$
CHEMBL1086781
     RDKit          3D

  0  0  0  0  0  0  0  0  0  0999 V3000
M  V30 BEGIN CTAB
M  V30 COUNTS 35 37 0 0 0
M  V30 BEGIN ATOM
M  V30 1 C -0.358676 -3.570940 3.529344 0
M  V30 2 C 0.928082 -4.372674 3.376479 0
M  V30 3 C 1.271253 -4.538469 1.897490 0
M  V30 4 C 1.438381 -3.164094 1.351470 0
M  V30 5 O 1.250462 -2.317144 2.266194 0
M  V30 6 N 1.758990 -2.782156 0.020068 0
M  V30 7 C 1.813786 -1.357103 -0.036514 0
M  V30 8 N 2.971284 -0.679596 0.200183 0
M  V30 9 N 2.739985 0.626348 0.082325 0
M  V30 10 C 1.434732 0.816872 -0.231372 0
M  V30 11 C 0.636790 1.934769 -0.472467 0
M  V30 12 C -0.708746 1.812367 -0.780452 0
M  V30 13 C -1.515420 3.002839 -1.027134 0
M  V30 14 C -1.271515 4.225552 -0.390321 0
M  V30 15 C -2.228010 5.128744 -0.862089 0
M  V30 16 O -2.979741 4.499954 -1.708651 0
M  V30 17 C -2.603057 3.249907 -1.840820 0
M  V30 18 C -1.248682 0.525568 -0.843343 0
M  V30 19 C -0.510643 -0.618560 -0.614936 0
M  V30 20 C 0.824310 -0.431931 -0.312551 0
M  V30 21 H -0.206213 -2.612440 4.068623 0
M  V30 22 H -1.127593 -4.128429 4.118454 0
M  V30 23 H -0.822324 -3.364912 2.534013 0
M  V30 24 H 1.730972 -3.833677 3.895050 0
M  V30 25 H 0.717301 -5.387936 3.790114 0
M  V30 26 H 0.411602 -5.085690 1.442601 0
M  V30 27 H 2.180860 -5.152550 1.831318 0
M  V30 28 H 1.884328 -3.590817 -0.621420 0
M  V30 29 H 3.388052 1.452699 0.192921 0
M  V30 30 H 1.126564 2.895675 -0.405551 0
M  V30 31 H -0.485466 4.440694 0.337754 0
M  V30 32 H -2.308824 6.183044 -0.554741 0
M  V30 33 H -3.008016 2.472131 -2.452713 0
M  V30 34 H -2.288284 0.457515 -1.082755 0
M  V30 35 H -0.942362 -1.607010 -0.667282 0
M  V30 END ATOM
M  V30 BEGIN BOND
M  V30 1 1 1 2
M  V30 2 1 2 3
M  V30 3 1 3 4
M  V30 4 2 4 5
M  V30 5 1 4 6
M  V30 6 1 6 7
M  V30 7 2 7 8
M  V30 8 1 8 9
M  V30 9 1 9 10
M  V30 10 2 10 11
M  V30 11 1 11 12
M  V30 12 1 12 13
M  V30 13 1 13 14
M  V30 14 2 14 15
M  V30 15 1 15 16
M  V30 16 1 16 17
M  V30 17 2 12 18
M  V30 18 1 18 19
M  V30 19 2 19 20
M  V30 20 1 20 7
M  V30 21 1 20 10
M  V30 22 2 17 13
M  V30 23 1 1 21
M  V30 24 1 1 22
M  V30 25 1 1 23
M  V30 26 1 2 24
M  V30 27 1 2 25
M  V30 28 1 3 26
M  V30 29 1 3 27
M  V30 30 1 6 28
M  V30 31 1 9 29
M  V30 32 1 11 30
M  V30 33 1 14 31
M  V30 34 1 15 32
M  V30 35 1 17 33
M  V30 36 1 18 34
M  V30 37 1 19 35
M  V30 END BOND
M  V30 END CTAB
M  END
>  <Dataset>  (676) 
ChEMBL_Kinases

>  <Ligand_Instance>  (676) 
nan

>  <PDB_ID>  (676) 
nan

>  <Standardized_SMILES>  (676) 
CCCC(=O)Nc1n[nH]c2cc(-c3ccoc3)ccc12

>  <Name>  (676) 
nan

>  <Pocket>  (676) 
nan

>  <ATP_Site>  (676) 
nan

>  <Peripheral>  (676) 
nan

>  <Num_H_Atoms_ProtBoundConf>  (676) 
nan

>  <Num_Resolved_Atoms>  (676) 
nan

>  <Num_Not_Resolved_Atoms>  (676) 
nan

$$$$
CHEMBL1086780
     RDKit          3D

  0  0  0  0  0  0  0  0  0  0999 V3000
M  V30 BEGIN CTAB
M  V30 COUNTS 28 29 0 0 0
M  V30 BEGIN ATOM
M  V30 1 C -2.227873 -3.032428 2.805013 0
M  V30 2 C -1.335904 -2.250193 3.729885 0
M  V30 3 C 0.098122 -2.304972 3.244389 0
M  V30 4 C 0.175735 -1.724523 1.887644 0
M  V30 5 O -0.790601 -1.243900 1.203387 0
M  V30 6 N 1.409730 -1.647770 1.186794 0
M  V30 7 C 1.245303 -1.047228 -0.112681 0
M  V30 8 N 0.974321 -1.701696 -1.240074 0
M  V30 9 N 0.880845 -0.871805 -2.280106 0
M  V30 10 C 1.094135 0.385373 -1.850421 0
M  V30 11 C 1.135017 1.650608 -2.399811 0
M  V30 12 C 1.388684 2.788875 -1.668620 0
M  V30 13 Br 1.408405 4.461568 -2.588785 0
M  V30 14 C 1.619024 2.676868 -0.298088 0
M  V30 15 C 1.580990 1.400572 0.274212 0
M  V30 16 C 1.324448 0.280384 -0.484362 0
M  V30 17 H -1.676802 -3.913907 2.396604 0
M  V30 18 H -2.653825 -2.432508 1.970679 0
M  V30 19 H -3.085558 -3.391471 3.408099 0
M  V30 20 H -1.428706 -2.525635 4.780210 0
M  V30 21 H -1.646220 -1.173538 3.603587 0
M  V30 22 H 0.763105 -1.738466 3.903329 0
M  V30 23 H 0.457576 -3.351838 3.196502 0
M  V30 24 H 2.300120 -2.007510 1.627769 0
M  V30 25 H 0.678942 -1.089254 -3.286774 0
M  V30 26 H 0.942380 1.636347 -3.479525 0
M  V30 27 H 1.814656 3.588650 0.244881 0
M  V30 28 H 1.759554 1.326412 1.328872 0
M  V30 END ATOM
M  V30 BEGIN BOND
M  V30 1 1 1 2
M  V30 2 1 2 3
M  V30 3 1 3 4
M  V30 4 2 4 5
M  V30 5 1 4 6
M  V30 6 1 6 7
M  V30 7 2 7 8
M  V30 8 1 8 9
M  V30 9 1 9 10
M  V30 10 2 10 11
M  V30 11 1 11 12
M  V30 12 1 12 13
M  V30 13 2 12 14
M  V30 14 1 14 15
M  V30 15 2 15 16
M  V30 16 1 16 7
M  V30 17 1 16 10
M  V30 18 1 1 17
M  V30 19 1 1 18
M  V30 20 1 1 19
M  V30 21 1 2 20
M  V30 22 1 2 21
M  V30 23 1 3 22
M  V30 24 1 3 23
M  V30 25 1 6 24
M  V30 26 1 9 25
M  V30 27 1 11 26
M  V30 28 1 14 27
M  V30 29 1 15 28
M  V30 END BOND
M  V30 END CTAB
M  END
>  <Dataset>  (677) 
ChEMBL_Kinases

>  <Ligand_Instance>  (677) 
nan

>  <PDB_ID>  (677) 
nan

>  <Standardized_SMILES>  (677) 
CCCC(=O)Nc1n[nH]c2cc(Br)ccc12

>  <Name>  (677) 
nan

>  <Pocket>  (677) 
nan

>  <ATP_Site>  (677) 
nan

>  <Peripheral>  (677) 
nan

>  <Num_H_Atoms_ProtBoundConf>  (677) 
nan

>  <Num_Resolved_Atoms>  (677) 
nan

>  <Num_Not_Resolved_Atoms>  (677) 
nan

$$$$
CHEMBL1086734
     RDKit          3D

  0  0  0  0  0  0  0  0  0  0999 V3000
M  V30 BEGIN CTAB
M  V30 COUNTS 39 42 0 0 0
M  V30 BEGIN ATOM
M  V30 1 C -0.586857 -4.648595 1.782069 0
M  V30 2 N -0.270768 -3.231479 1.855515 0
M  V30 3 C 0.936060 -2.646295 1.754350 0
M  V30 4 C 0.831287 -1.281199 1.874156 0
M  V30 5 C 1.946650 -0.345541 1.820310 0
M  V30 6 C 2.110360 0.834275 1.236526 0
M  V30 7 N 1.262490 1.639879 0.439960 0
M  V30 8 C 0.709721 1.432628 -0.837755 0
M  V30 9 C 0.895601 0.278134 -1.552594 0
M  V30 10 C 0.339014 0.126656 -2.814637 0
M  V30 11 C -0.407853 1.159880 -3.342291 0
M  V30 12 C -0.606006 2.328217 -2.639624 0
M  V30 13 C -0.033973 2.430767 -1.391533 0
M  V30 14 C 3.482819 1.294447 1.552391 0
M  V30 15 O 4.040031 2.384609 1.181756 0
M  V30 16 N 4.177074 0.330387 2.373666 0
M  V30 17 C 3.205881 -0.678451 2.527568 0
M  V30 18 O 3.483094 -1.718616 3.217151 0
M  V30 19 C -0.503777 -1.076260 2.052533 0
M  V30 20 C -1.246634 0.069782 2.237105 0
M  V30 21 C -2.613469 0.068318 2.407819 0
M  V30 22 C -3.290490 -1.157948 2.394522 0
M  V30 23 C -2.561804 -2.324992 2.210191 0
M  V30 24 C -1.195836 -2.279525 2.042738 0
M  V30 25 H -1.052090 -5.016521 2.737133 0
M  V30 26 H -1.185035 -4.902287 0.887417 0
M  V30 27 H 0.354939 -5.260173 1.693113 0
M  V30 28 H 1.839421 -3.231877 1.598418 0
M  V30 29 H 1.055735 2.533240 0.975368 0
M  V30 30 H 1.476634 -0.489068 -1.105103 0
M  V30 31 H 0.473896 -0.778790 -3.395882 0
M  V30 32 H -0.862516 1.085437 -4.325430 0
M  V30 33 H -1.196043 3.133285 -3.072638 0
M  V30 34 H -0.229581 3.389169 -0.884803 0
M  V30 35 H 5.135462 0.407311 2.729542 0
M  V30 36 H -0.746831 1.005318 2.253861 0
M  V30 37 H -3.167027 0.989544 2.552729 0
M  V30 38 H -4.355059 -1.192814 2.526859 0
M  V30 39 H -3.057558 -3.301655 2.193637 0
M  V30 END ATOM
M  V30 BEGIN BOND
M  V30 1 1 1 2
M  V30 2 1 2 3
M  V30 3 2 3 4
M  V30 4 1 4 5
M  V30 5 2 5 6
M  V30 6 1 6 7
M  V30 7 1 7 8
M  V30 8 2 8 9
M  V30 9 1 9 10
M  V30 10 2 10 11
M  V30 11 1 11 12
M  V30 12 2 12 13
M  V30 13 1 6 14
M  V30 14 2 14 15
M  V30 15 1 14 16
M  V30 16 1 16 17
M  V30 17 2 17 18
M  V30 18 1 4 19
M  V30 19 2 19 20
M  V30 20 1 20 21
M  V30 21 2 21 22
M  V30 22 1 22 23
M  V30 23 2 23 24
M  V30 24 1 24 2
M  V30 25 1 17 5
M  V30 26 1 24 19
M  V30 27 1 13 8
M  V30 28 1 1 25
M  V30 29 1 1 26
M  V30 30 1 1 27
M  V30 31 1 3 28
M  V30 32 1 7 29
M  V30 33 1 9 30
M  V30 34 1 10 31
M  V30 35 1 11 32
M  V30 36 1 12 33
M  V30 37 1 13 34
M  V30 38 1 16 35
M  V30 39 1 20 36
M  V30 40 1 21 37
M  V30 41 1 22 38
M  V30 42 1 23 39
M  V30 END BOND
M  V30 END CTAB
M  END
>  <Dataset>  (678) 
ChEMBL_Kinases

>  <Ligand_Instance>  (678) 
nan

>  <PDB_ID>  (678) 
nan

>  <Standardized_SMILES>  (678) 
Cn1cc(C2=C(Nc3ccccc3)C(=O)NC2=O)c2ccccc21

>  <Name>  (678) 
nan

>  <Pocket>  (678) 
nan

>  <ATP_Site>  (678) 
nan

>  <Peripheral>  (678) 
nan

>  <Num_H_Atoms_ProtBoundConf>  (678) 
nan

>  <Num_Resolved_Atoms>  (678) 
nan

>  <Num_Not_Resolved_Atoms>  (678) 
nan

$$$$
CHEMBL1086733
     RDKit          3D

  0  0  0  0  0  0  0  0  0  0999 V3000
M  V30 BEGIN CTAB
M  V30 COUNTS 38 41 0 0 0
M  V30 BEGIN ATOM
M  V30 1 C -0.424480 -4.224536 2.157446 0
M  V30 2 N -0.227175 -2.771225 2.021194 0
M  V30 3 C 0.898161 -2.107529 2.340782 0
M  V30 4 C 0.683151 -0.758710 2.064995 0
M  V30 5 C 1.782725 0.149077 2.366627 0
M  V30 6 C 2.341395 0.982764 1.509039 0
M  V30 7 S 2.422138 1.657092 -0.128928 0
M  V30 8 C 1.277780 1.031202 -1.279818 0
M  V30 9 C 1.512689 -0.139552 -2.009408 0
M  V30 10 C 0.607636 -0.608854 -2.949525 0
M  V30 11 C -0.579950 0.069822 -3.207799 0
M  V30 12 C -0.846408 1.215627 -2.517347 0
M  V30 13 C 0.079972 1.663555 -1.579367 0
M  V30 14 C 3.408740 1.709188 2.244731 0
M  V30 15 O 4.332462 2.596833 2.170729 0
M  V30 16 N 3.442258 1.242072 3.613298 0
M  V30 17 C 2.404168 0.240990 3.706330 0
M  V30 18 O 2.005168 -0.485016 4.681374 0
M  V30 19 C -0.604230 -0.702966 1.581918 0
M  V30 20 C -1.228706 0.458549 1.195105 0
M  V30 21 C -2.541348 0.334566 0.739788 0
M  V30 22 C -3.130018 -0.903404 0.700678 0
M  V30 23 C -2.480964 -2.049180 1.094957 0
M  V30 24 C -1.182278 -1.950572 1.549374 0
M  V30 25 H -0.621156 -4.503291 3.202116 0
M  V30 26 H -1.265773 -4.546350 1.526342 0
M  V30 27 H 0.533006 -4.712644 1.883194 0
M  V30 28 H 1.774909 -2.637510 2.742491 0
M  V30 29 H 2.441994 -0.702470 -1.830171 0
M  V30 30 H 0.786874 -1.525642 -3.524256 0
M  V30 31 H -1.314112 -0.254357 -3.928059 0
M  V30 32 H -1.742772 1.828593 -2.636637 0
M  V30 33 H -0.096677 2.575431 -1.006884 0
M  V30 34 H 3.939694 1.376562 4.519581 0
M  V30 35 H -0.744135 1.445860 1.231291 0
M  V30 36 H -3.077486 1.228390 0.422478 0
M  V30 37 H -4.156039 -1.008947 0.345602 0
M  V30 38 H -2.936495 -3.034554 1.068921 0
M  V30 END ATOM
M  V30 BEGIN BOND
M  V30 1 1 1 2
M  V30 2 1 2 3
M  V30 3 2 3 4
M  V30 4 1 4 5
M  V30 5 2 5 6
M  V30 6 1 6 7
M  V30 7 1 7 8
M  V30 8 2 8 9
M  V30 9 1 9 10
M  V30 10 2 10 11
M  V30 11 1 11 12
M  V30 12 2 12 13
M  V30 13 1 6 14
M  V30 14 2 14 15
M  V30 15 1 14 16
M  V30 16 1 16 17
M  V30 17 2 17 18
M  V30 18 1 4 19
M  V30 19 2 19 20
M  V30 20 1 20 21
M  V30 21 2 21 22
M  V30 22 1 22 23
M  V30 23 2 23 24
M  V30 24 1 24 2
M  V30 25 1 17 5
M  V30 26 1 24 19
M  V30 27 1 13 8
M  V30 28 1 1 25
M  V30 29 1 1 26
M  V30 30 1 1 27
M  V30 31 1 3 28
M  V30 32 1 9 29
M  V30 33 1 10 30
M  V30 34 1 11 31
M  V30 35 1 12 32
M  V30 36 1 13 33
M  V30 37 1 16 34
M  V30 38 1 20 35
M  V30 39 1 21 36
M  V30 40 1 22 37
M  V30 41 1 23 38
M  V30 END BOND
M  V30 END CTAB
M  END
>  <Dataset>  (679) 
ChEMBL_Kinases

>  <Ligand_Instance>  (679) 
nan

>  <PDB_ID>  (679) 
nan

>  <Standardized_SMILES>  (679) 
Cn1cc(C2=C(Sc3ccccc3)C(=O)NC2=O)c2ccccc21

>  <Name>  (679) 
nan

>  <Pocket>  (679) 
nan

>  <ATP_Site>  (679) 
nan

>  <Peripheral>  (679) 
nan

>  <Num_H_Atoms_ProtBoundConf>  (679) 
nan

>  <Num_Resolved_Atoms>  (679) 
nan

>  <Num_Not_Resolved_Atoms>  (679) 
nan

$$$$
CHEMBL1086732
     RDKit          3D

  0  0  0  0  0  0  0  0  0  0999 V3000
M  V30 BEGIN CTAB
M  V30 COUNTS 47 51 0 0 0
M  V30 BEGIN ATOM
M  V30 1 C -4.300910 0.085716 0.391432 0
M  V30 2 N -3.362701 -0.830554 0.968945 0
M  V30 3 C -2.251309 -0.615382 1.696739 0
M  V30 4 C -1.615934 -1.795568 2.075765 0
M  V30 5 C -0.408996 -1.998940 2.821936 0
M  V30 6 C 0.826541 -1.573401 2.835690 0
M  V30 7 C 1.389939 -0.588700 1.903446 0
M  V30 8 C 2.372183 0.270277 2.353526 0
M  V30 9 C 2.932540 1.196550 1.503567 0
M  V30 10 C 2.563284 1.329047 0.183692 0
M  V30 11 C 3.135053 2.283985 -0.757392 0
M  V30 12 C 2.466174 2.865478 -1.800191 0
M  V30 13 C 3.045070 3.757086 -2.675557 0
M  V30 14 C 4.381171 4.098676 -2.507899 0
M  V30 15 C 5.109828 3.531487 -1.456539 0
M  V30 16 C 4.482958 2.629162 -0.589434 0
M  V30 17 C 1.564257 0.454596 -0.268300 0
M  V30 18 C 0.997918 -0.478417 0.579176 0
M  V30 19 C 1.644735 -2.173507 3.910234 0
M  V30 20 O 2.863588 -1.912986 4.117250 0
M  V30 21 N 0.754177 -3.072657 4.615521 0
M  V30 22 C -0.497826 -2.956097 3.940811 0
M  V30 23 O -1.356692 -3.724948 4.504930 0
M  V30 24 C -2.445167 -2.773099 1.508352 0
M  V30 25 C -2.366901 -4.144332 1.506407 0
M  V30 26 C -3.297875 -4.964282 0.864764 0
M  V30 27 C -4.337528 -4.334261 0.208581 0
M  V30 28 C -4.443720 -2.955750 0.192579 0
M  V30 29 C -3.491560 -2.164705 0.846616 0
M  V30 30 H -3.852826 1.076935 0.132037 0
M  V30 31 H -4.713572 -0.316631 -0.562181 0
M  V30 32 H -5.203602 0.210977 1.049668 0
M  V30 33 H -1.877478 0.379477 1.966942 0
M  V30 34 H 2.768907 0.292278 3.358800 0
M  V30 35 H 3.710626 1.895258 1.812376 0
M  V30 36 H 1.433429 2.554256 -1.867932 0
M  V30 37 H 2.411070 4.156457 -3.470636 0
M  V30 38 H 4.824381 4.798235 -3.199509 0
M  V30 39 H 6.137114 3.836778 -1.385147 0
M  V30 40 H 5.111639 2.217127 0.217655 0
M  V30 41 H 1.221193 0.496115 -1.289044 0
M  V30 42 H 0.231730 -1.149236 0.234756 0
M  V30 43 H 1.184734 -3.582444 5.417239 0
M  V30 44 H -1.579957 -4.701494 1.992765 0
M  V30 45 H -3.231526 -6.051808 0.865245 0
M  V30 46 H -5.065059 -4.974092 -0.291741 0
M  V30 47 H -5.273018 -2.526931 -0.334343 0
M  V30 END ATOM
M  V30 BEGIN BOND
M  V30 1 1 1 2
M  V30 2 1 2 3
M  V30 3 2 3 4
M  V30 4 1 4 5
M  V30 5 2 5 6
M  V30 6 1 6 7
M  V30 7 2 7 8
M  V30 8 1 8 9
M  V30 9 2 9 10
M  V30 10 1 10 11
M  V30 11 2 11 12
M  V30 12 1 12 13
M  V30 13 2 13 14
M  V30 14 1 14 15
M  V30 15 2 15 16
M  V30 16 1 10 17
M  V30 17 2 17 18
M  V30 18 1 6 19
M  V30 19 2 19 20
M  V30 20 1 19 21
M  V30 21 1 21 22
M  V30 22 2 22 23
M  V30 23 1 4 24
M  V30 24 2 24 25
M  V30 25 1 25 26
M  V30 26 2 26 27
M  V30 27 1 27 28
M  V30 28 2 28 29
M  V30 29 1 29 2
M  V30 30 1 22 5
M  V30 31 1 29 24
M  V30 32 1 18 7
M  V30 33 1 16 11
M  V30 34 1 1 30
M  V30 35 1 1 31
M  V30 36 1 1 32
M  V30 37 1 3 33
M  V30 38 1 8 34
M  V30 39 1 9 35
M  V30 40 1 12 36
M  V30 41 1 13 37
M  V30 42 1 14 38
M  V30 43 1 15 39
M  V30 44 1 16 40
M  V30 45 1 17 41
M  V30 46 1 18 42
M  V30 47 1 21 43
M  V30 48 1 25 44
M  V30 49 1 26 45
M  V30 50 1 27 46
M  V30 51 1 28 47
M  V30 END BOND
M  V30 END CTAB
M  END
>  <Dataset>  (680) 
ChEMBL_Kinases

>  <Ligand_Instance>  (680) 
nan

>  <PDB_ID>  (680) 
nan

>  <Standardized_SMILES>  (680) 
Cn1cc(C2=C(c3ccc(-c4ccccc4)cc3)C(=O)NC2=O)c2ccccc21

>  <Name>  (680) 
nan

>  <Pocket>  (680) 
nan

>  <ATP_Site>  (680) 
nan

>  <Peripheral>  (680) 
nan

>  <Num_H_Atoms_ProtBoundConf>  (680) 
nan

>  <Num_Resolved_Atoms>  (680) 
nan

>  <Num_Not_Resolved_Atoms>  (680) 
nan

$$$$
CHEMBL1086653
     RDKit          3D

  0  0  0  0  0  0  0  0  0  0999 V3000
M  V30 BEGIN CTAB
M  V30 COUNTS 37 39 0 0 0
M  V30 BEGIN ATOM
M  V30 1 C 1.417217 -5.226368 2.858272 0
M  V30 2 O 0.886551 -4.655639 1.678536 0
M  V30 3 C 0.738372 -3.286459 1.518965 0
M  V30 4 C 1.098063 -2.387181 2.499834 0
M  V30 5 C 0.931610 -1.037020 2.296539 0
M  V30 6 C 0.422496 -0.471945 1.166873 0
M  V30 7 C 0.079974 -1.393078 0.219970 0
M  V30 8 C 0.209181 -2.757226 0.336186 0
M  V30 9 O -0.141898 -3.691953 -0.628177 0
M  V30 10 C -0.685833 -3.167750 -1.846696 0
M  V30 11 C 0.319966 0.917848 0.836112 0
M  V30 12 C -0.197782 1.551260 -0.339677 0
M  V30 13 C 0.082228 2.905568 -0.437522 0
M  V30 14 C -0.329223 3.775909 -1.417633 0
M  V30 15 C -1.100568 3.291295 -2.422828 0
M  V30 16 Cl -1.651444 4.349170 -3.696928 0
M  V30 17 C -1.438611 1.975519 -2.427086 0
M  V30 18 Cl -2.425253 1.308794 -3.692799 0
M  V30 19 C -0.974309 1.213390 -1.405949 0
M  V30 20 N 0.799112 1.632951 1.755701 0
M  V30 21 C 1.386167 1.276261 2.986133 0
M  V30 22 C 1.317507 -0.137200 3.409737 0
M  V30 23 H 0.658079 -5.255685 3.673813 0
M  V30 24 H 2.277293 -4.634255 3.248830 0
M  V30 25 H 1.735906 -6.281631 2.673011 0
M  V30 26 H 1.511078 -2.754141 3.427832 0
M  V30 27 H -0.286172 -1.140258 -0.737260 0
M  V30 28 H -0.891140 -4.076752 -2.471042 0
M  V30 29 H -0.010092 -2.450435 -2.337699 0
M  V30 30 H -1.628984 -2.604532 -1.639313 0
M  V30 31 H 0.701068 3.428816 0.308987 0
M  V30 32 H -0.076541 4.811878 -1.435888 0
M  V30 33 H -1.322997 0.212538 -1.432648 0
M  V30 34 H 0.870492 1.877896 3.809743 0
M  V30 35 H 2.480431 1.622576 3.024652 0
M  V30 36 H 0.541989 -0.263357 4.223637 0
M  V30 37 H 2.293712 -0.435231 3.858755 0
M  V30 END ATOM
M  V30 BEGIN BOND
M  V30 1 1 1 2
M  V30 2 1 2 3
M  V30 3 2 3 4
M  V30 4 1 4 5
M  V30 5 2 5 6
M  V30 6 1 6 7
M  V30 7 2 7 8
M  V30 8 1 8 9
M  V30 9 1 9 10
M  V30 10 1 6 11
M  V30 11 1 11 12
M  V30 12 2 12 13
M  V30 13 1 13 14
M  V30 14 2 14 15
M  V30 15 1 15 16
M  V30 16 1 15 17
M  V30 17 1 17 18
M  V30 18 2 17 19
M  V30 19 2 11 20
M  V30 20 1 20 21
M  V30 21 1 21 22
M  V30 22 1 8 3
M  V30 23 1 19 12
M  V30 24 1 22 5
M  V30 25 1 1 23
M  V30 26 1 1 24
M  V30 27 1 1 25
M  V30 28 1 4 26
M  V30 29 1 7 27
M  V30 30 1 10 28
M  V30 31 1 10 29
M  V30 32 1 10 30
M  V30 33 1 13 31
M  V30 34 1 14 32
M  V30 35 1 19 33
M  V30 36 1 21 34
M  V30 37 1 21 35
M  V30 38 1 22 36
M  V30 39 1 22 37
M  V30 END BOND
M  V30 END CTAB
M  END
>  <Dataset>  (681) 
ChEMBL_Kinases

>  <Ligand_Instance>  (681) 
nan

>  <PDB_ID>  (681) 
nan

>  <Standardized_SMILES>  (681) 
COc1cc2c(cc1OC)C(c1ccc(Cl)c(Cl)c1)=NCC2

>  <Name>  (681) 
nan

>  <Pocket>  (681) 
nan

>  <ATP_Site>  (681) 
nan

>  <Peripheral>  (681) 
nan

>  <Num_H_Atoms_ProtBoundConf>  (681) 
nan

>  <Num_Resolved_Atoms>  (681) 
nan

>  <Num_Not_Resolved_Atoms>  (681) 
nan

$$$$
CHEMBL1086640
     RDKit          3D

  0  0  0  0  0  0  0  0  0  0999 V3000
M  V30 BEGIN CTAB
M  V30 COUNTS 31 32 0 0 0
M  V30 BEGIN ATOM
M  V30 1 C -1.679152 -2.452688 3.501346 0
M  V30 2 C -0.904517 -3.715635 3.329850 0
M  V30 3 C -0.659242 -4.038947 1.852671 0
M  V30 4 C 0.111529 -2.881135 1.312858 0
M  V30 5 O 0.402209 -1.923130 2.093004 0
M  V30 6 N 0.567871 -2.734350 -0.023201 0
M  V30 7 C 1.266278 -1.479444 -0.123997 0
M  V30 8 N 2.587925 -1.385337 0.103272 0
M  V30 9 N 3.014980 -0.150075 -0.044084 0
M  V30 10 C 1.942944 0.592267 -0.378454 0
M  V30 11 C 1.783537 1.935238 -0.654032 0
M  V30 12 C 0.525144 2.408933 -0.973624 0
M  V30 13 C 0.342853 3.857259 -1.272687 0
M  V30 14 F -0.486123 4.037325 -2.353140 0
M  V30 15 F -0.324277 4.401440 -0.166931 0
M  V30 16 F 1.567293 4.460391 -1.440742 0
M  V30 17 C -0.580952 1.563640 -1.023356 0
M  V30 18 C -0.455770 0.209279 -0.752029 0
M  V30 19 C 0.822362 -0.205687 -0.439542 0
M  V30 20 H -2.063454 -2.034639 2.548797 0
M  V30 21 H -1.006734 -1.688974 3.943536 0
M  V30 22 H -2.507774 -2.579212 4.252867 0
M  V30 23 H 0.032194 -3.689549 3.920070 0
M  V30 24 H -1.502236 -4.545635 3.791024 0
M  V30 25 H -1.641662 -4.181827 1.395864 0
M  V30 26 H -0.109242 -4.991062 1.790300 0
M  V30 27 H 0.329957 -3.529701 -0.683050 0
M  V30 28 H 4.006423 0.147291 0.084844 0
M  V30 29 H 2.619667 2.591663 -0.619647 0
M  V30 30 H -1.557361 1.955855 -1.275864 0
M  V30 31 H -1.290035 -0.477864 -0.780459 0
M  V30 END ATOM
M  V30 BEGIN BOND
M  V30 1 1 1 2
M  V30 2 1 2 3
M  V30 3 1 3 4
M  V30 4 2 4 5
M  V30 5 1 4 6
M  V30 6 1 6 7
M  V30 7 2 7 8
M  V30 8 1 8 9
M  V30 9 1 9 10
M  V30 10 2 10 11
M  V30 11 1 11 12
M  V30 12 1 12 13
M  V30 13 1 13 14
M  V30 14 1 13 15
M  V30 15 1 13 16
M  V30 16 2 12 17
M  V30 17 1 17 18
M  V30 18 2 18 19
M  V30 19 1 19 7
M  V30 20 1 19 10
M  V30 21 1 1 20
M  V30 22 1 1 21
M  V30 23 1 1 22
M  V30 24 1 2 23
M  V30 25 1 2 24
M  V30 26 1 3 25
M  V30 27 1 3 26
M  V30 28 1 6 27
M  V30 29 1 9 28
M  V30 30 1 11 29
M  V30 31 1 17 30
M  V30 32 1 18 31
M  V30 END BOND
M  V30 END CTAB
M  END
>  <Dataset>  (682) 
ChEMBL_Kinases

>  <Ligand_Instance>  (682) 
nan

>  <PDB_ID>  (682) 
nan

>  <Standardized_SMILES>  (682) 
CCCC(=O)Nc1n[nH]c2cc(C(F)(F)F)ccc12

>  <Name>  (682) 
nan

>  <Pocket>  (682) 
nan

>  <ATP_Site>  (682) 
nan

>  <Peripheral>  (682) 
nan

>  <Num_H_Atoms_ProtBoundConf>  (682) 
nan

>  <Num_Resolved_Atoms>  (682) 
nan

>  <Num_Not_Resolved_Atoms>  (682) 
nan

$$$$
CHEMBL1086639
     RDKit          3D

  0  0  0  0  0  0  0  0  0  0999 V3000
M  V30 BEGIN CTAB
M  V30 COUNTS 39 41 0 0 0
M  V30 BEGIN ATOM
M  V30 1 C -0.731451 -6.655201 1.041626 0
M  V30 2 C -0.429025 -6.026642 2.364387 0
M  V30 3 C -1.273754 -4.846498 2.683434 0
M  V30 4 C -1.163660 -3.742674 1.727708 0
M  V30 5 O -0.332361 -4.107877 0.830460 0
M  V30 6 N -1.909742 -2.546214 1.901969 0
M  V30 7 C -1.762881 -1.492855 0.931086 0
M  V30 8 N -2.501992 -1.340677 -0.182543 0
M  V30 9 N -2.082138 -0.251745 -0.844660 0
M  V30 10 C -1.065094 0.300918 -0.151672 0
M  V30 11 C -0.261164 1.417185 -0.352411 0
M  V30 12 C 0.730956 1.751490 0.549007 0
M  V30 13 C 1.542214 2.947293 0.270507 0
M  V30 14 C 2.067518 3.716424 1.278157 0
M  V30 15 C 2.825531 4.834082 0.987144 0
M  V30 16 C 3.055194 5.178263 -0.326627 0
M  V30 17 C 2.533931 4.415105 -1.344603 0
M  V30 18 O 2.748219 4.736695 -2.680472 0
M  V30 19 C 1.775898 3.297316 -1.046033 0
M  V30 20 C 0.960463 0.979548 1.692989 0
M  V30 21 C 0.161711 -0.132716 1.896007 0
M  V30 22 C -0.828307 -0.460575 0.990239 0
M  V30 23 H 0.031657 -6.459117 0.266471 0
M  V30 24 H -1.699740 -6.255405 0.677536 0
M  V30 25 H -0.813223 -7.776055 1.115336 0
M  V30 26 H -0.624145 -6.802085 3.153035 0
M  V30 27 H 0.648159 -5.772438 2.505413 0
M  V30 28 H -0.951189 -4.452469 3.672939 0
M  V30 29 H -2.355884 -5.146278 2.715023 0
M  V30 30 H -2.527506 -2.510250 2.739315 0
M  V30 31 H -2.481437 0.098930 -1.742238 0
M  V30 32 H -0.454802 1.998381 -1.239885 0
M  V30 33 H 1.879494 3.435096 2.295228 0
M  V30 34 H 3.233630 5.432205 1.766220 0
M  V30 35 H 3.632506 6.029857 -0.622127 0
M  V30 36 H 3.624841 4.406902 -3.085899 0
M  V30 37 H 1.363976 2.692809 -1.841256 0
M  V30 38 H 1.724512 1.238824 2.385132 0
M  V30 39 H 0.296047 -0.770358 2.770171 0
M  V30 END ATOM
M  V30 BEGIN BOND
M  V30 1 1 1 2
M  V30 2 1 2 3
M  V30 3 1 3 4
M  V30 4 2 4 5
M  V30 5 1 4 6
M  V30 6 1 6 7
M  V30 7 2 7 8
M  V30 8 1 8 9
M  V30 9 1 9 10
M  V30 10 2 10 11
M  V30 11 1 11 12
M  V30 12 1 12 13
M  V30 13 2 13 14
M  V30 14 1 14 15
M  V30 15 2 15 16
M  V30 16 1 16 17
M  V30 17 1 17 18
M  V30 18 2 17 19
M  V30 19 2 12 20
M  V30 20 1 20 21
M  V30 21 2 21 22
M  V30 22 1 22 7
M  V30 23 1 22 10
M  V30 24 1 19 13
M  V30 25 1 1 23
M  V30 26 1 1 24
M  V30 27 1 1 25
M  V30 28 1 2 26
M  V30 29 1 2 27
M  V30 30 1 3 28
M  V30 31 1 3 29
M  V30 32 1 6 30
M  V30 33 1 9 31
M  V30 34 1 11 32
M  V30 35 1 14 33
M  V30 36 1 15 34
M  V30 37 1 16 35
M  V30 38 1 18 36
M  V30 39 1 19 37
M  V30 40 1 20 38
M  V30 41 1 21 39
M  V30 END BOND
M  V30 END CTAB
M  END
>  <Dataset>  (683) 
ChEMBL_Kinases

>  <Ligand_Instance>  (683) 
nan

>  <PDB_ID>  (683) 
nan

>  <Standardized_SMILES>  (683) 
CCCC(=O)Nc1n[nH]c2cc(-c3cccc(O)c3)ccc12

>  <Name>  (683) 
nan

>  <Pocket>  (683) 
nan

>  <ATP_Site>  (683) 
nan

>  <Peripheral>  (683) 
nan

>  <Num_H_Atoms_ProtBoundConf>  (683) 
nan

>  <Num_Resolved_Atoms>  (683) 
nan

>  <Num_Not_Resolved_Atoms>  (683) 
nan

$$$$
CHEMBL1085927
     RDKit          3D

  0  0  0  0  0  0  0  0  0  0999 V3000
M  V30 BEGIN CTAB
M  V30 COUNTS 52 55 0 0 0
M  V30 BEGIN ATOM
M  V30 1 C 6.155235 -5.512036 3.426869 0
M  V30 2 C 6.478184 -4.731273 4.679117 0
M  V30 3 C 6.804716 -3.282209 4.357702 0
M  V30 4 C 5.671980 -2.640250 3.700402 0
M  V30 5 O 4.639233 -3.383740 3.520680 0
M  V30 6 N 5.190854 -1.528354 3.155602 0
M  V30 7 C 4.520906 -0.502676 2.561600 0
M  V30 8 N 4.818499 0.778427 2.303792 0
M  V30 9 N 3.813048 1.353308 1.695080 0
M  V30 10 C 2.799746 0.496460 1.514947 0
M  V30 11 C 1.591798 0.777356 0.904974 0
M  V30 12 C 0.697850 -0.270132 0.831665 0
M  V30 13 C -0.587366 -0.007692 0.191880 0
M  V30 14 C -1.101114 1.263195 0.319809 0
M  V30 15 C -2.311963 1.508442 -0.288244 0
M  V30 16 C -3.030207 0.566607 -1.008761 0
M  V30 17 O -4.235493 0.972015 -1.561193 0
M  V30 18 C -5.082165 0.153471 -2.316529 0
M  V30 19 C -6.264798 1.003590 -2.702235 0
M  V30 20 C -6.325919 1.761697 -3.838717 0
M  V30 21 C -7.466832 2.497725 -4.082689 0
M  V30 22 C -8.528517 2.476985 -3.206691 0
M  V30 23 C -8.478729 1.716080 -2.056281 0
M  V30 24 C -7.323421 0.970004 -1.807783 0
M  V30 25 C -2.468472 -0.707434 -1.110183 0
M  V30 26 C -1.254305 -0.989186 -0.512119 0
M  V30 27 C 1.024482 -1.506624 1.346367 0
M  V30 28 C 2.260127 -1.664141 1.931170 0
M  V30 29 C 3.227566 -0.693759 2.059501 0
M  V30 30 H 6.257781 -4.908555 2.513305 0
M  V30 31 H 6.723810 -6.458073 3.342202 0
M  V30 32 H 5.069653 -5.798780 3.506990 0
M  V30 33 H 7.433220 -5.148375 5.050588 0
M  V30 34 H 5.689839 -4.777061 5.449540 0
M  V30 35 H 7.655842 -3.242041 3.613758 0
M  V30 36 H 7.138075 -2.744161 5.258931 0
M  V30 37 H 6.155402 -1.048729 3.393662 0
M  V30 38 H 4.002481 2.352023 1.476474 0
M  V30 39 H 1.367911 1.750480 0.513825 0
M  V30 40 H -0.614010 2.065960 0.862829 0
M  V30 41 H -2.723246 2.524244 -0.185315 0
M  V30 42 H -4.522748 -0.054350 -3.269366 0
M  V30 43 H -5.389920 -0.780995 -1.845178 0
M  V30 44 H -5.462776 1.743107 -4.494992 0
M  V30 45 H -7.524518 3.090168 -4.967194 0
M  V30 46 H -9.451354 3.020469 -3.325538 0
M  V30 47 H -9.282068 1.663634 -1.336255 0
M  V30 48 H -7.293585 0.374041 -0.898686 0
M  V30 49 H -3.053597 -1.439793 -1.686425 0
M  V30 50 H -0.858596 -1.985170 -0.613551 0
M  V30 51 H 0.335192 -2.332117 1.295140 0
M  V30 52 H 2.476631 -2.638320 2.319213 0
M  V30 END ATOM
M  V30 BEGIN BOND
M  V30 1 1 1 2
M  V30 2 1 2 3
M  V30 3 1 3 4
M  V30 4 2 4 5
M  V30 5 1 4 6
M  V30 6 1 6 7
M  V30 7 2 7 8
M  V30 8 1 8 9
M  V30 9 1 9 10
M  V30 10 2 10 11
M  V30 11 1 11 12
M  V30 12 1 12 13
M  V30 13 2 13 14
M  V30 14 1 14 15
M  V30 15 2 15 16
M  V30 16 1 16 17
M  V30 17 1 17 18
M  V30 18 1 18 19
M  V30 19 2 19 20
M  V30 20 1 20 21
M  V30 21 2 21 22
M  V30 22 1 22 23
M  V30 23 2 23 24
M  V30 24 1 16 25
M  V30 25 2 25 26
M  V30 26 2 12 27
M  V30 27 1 27 28
M  V30 28 2 28 29
M  V30 29 1 29 7
M  V30 30 1 29 10
M  V30 31 1 26 13
M  V30 32 1 24 19
M  V30 33 1 1 30
M  V30 34 1 1 31
M  V30 35 1 1 32
M  V30 36 1 2 33
M  V30 37 1 2 34
M  V30 38 1 3 35
M  V30 39 1 3 36
M  V30 40 1 6 37
M  V30 41 1 9 38
M  V30 42 1 11 39
M  V30 43 1 14 40
M  V30 44 1 15 41
M  V30 45 1 18 42
M  V30 46 1 18 43
M  V30 47 1 20 44
M  V30 48 1 21 45
M  V30 49 1 22 46
M  V30 50 1 23 47
M  V30 51 1 24 48
M  V30 52 1 25 49
M  V30 53 1 26 50
M  V30 54 1 27 51
M  V30 55 1 28 52
M  V30 END BOND
M  V30 END CTAB
M  END
>  <Dataset>  (684) 
ChEMBL_Kinases

>  <Ligand_Instance>  (684) 
nan

>  <PDB_ID>  (684) 
nan

>  <Standardized_SMILES>  (684) 
CCCC(=O)Nc1n[nH]c2cc(-c3ccc(OCc4ccccc4)cc3)ccc12

>  <Name>  (684) 
nan

>  <Pocket>  (684) 
nan

>  <ATP_Site>  (684) 
nan

>  <Peripheral>  (684) 
nan

>  <Num_H_Atoms_ProtBoundConf>  (684) 
nan

>  <Num_Resolved_Atoms>  (684) 
nan

>  <Num_Not_Resolved_Atoms>  (684) 
nan

$$$$
CHEMBL1085935
     RDKit          3D

  0  0  0  0  0  0  0  0  0  0999 V3000
M  V30 BEGIN CTAB
M  V30 COUNTS 42 44 0 0 0
M  V30 BEGIN ATOM
M  V30 1 C 0.317641 -2.605492 1.839641 0
M  V30 2 C 0.448900 -1.899877 0.512377 0
M  V30 3 C 0.943977 -2.541903 -0.542550 0
M  V30 4 C 1.466330 -3.894010 -0.849503 0
M  V30 5 C 1.569535 -4.933251 0.005794 0
M  V30 6 C 2.054062 -6.188779 -0.276046 0
M  V30 7 N 2.462199 -6.378035 -1.543301 0
M  V30 8 C 2.393799 -5.399563 -2.453778 0
M  V30 9 N 2.804989 -5.518146 -3.816006 0
M  V30 10 N 1.906433 -4.216521 -2.075562 0
M  V30 11 S 0.926250 -1.387130 -1.856580 0
M  V30 12 C 0.207108 0.006583 -0.875100 0
M  V30 13 C -0.091761 1.286727 -1.304640 0
M  V30 14 C -0.621325 2.106578 -0.335426 0
M  V30 15 C -0.798354 1.591644 0.931135 0
M  V30 16 C -1.378014 2.479986 1.993836 0
M  V30 17 N -2.364022 1.820429 2.802633 0
M  V30 18 C -0.355682 3.123419 2.860347 0
M  V30 19 C 0.491019 2.126002 3.589304 0
M  V30 20 C 0.518619 4.112510 2.124165 0
M  V30 21 C -0.469341 0.300830 1.262230 0
M  V30 22 C 0.067847 -0.602227 0.364522 0
M  V30 23 H -0.400705 -3.421847 1.758149 0
M  V30 24 H 1.331505 -2.840432 2.168274 0
M  V30 25 H -0.093083 -1.933519 2.633253 0
M  V30 26 H 1.261292 -4.840072 1.020958 0
M  V30 27 H 2.115481 -6.988033 0.447363 0
M  V30 28 H 3.861471 -5.611229 -3.886065 0
M  V30 29 H 2.258809 -5.527530 -4.712082 0
M  V30 30 H 0.100750 1.540767 -2.316526 0
M  V30 31 H -0.875409 3.115569 -0.605841 0
M  V30 32 H -1.948554 3.278349 1.432237 0
M  V30 33 H -3.062887 2.464297 3.185720 0
M  V30 34 H -2.028837 1.063663 3.404114 0
M  V30 35 H -0.895943 3.714385 3.628289 0
M  V30 36 H 1.203002 2.648777 4.294004 0
M  V30 37 H -0.179262 1.456339 4.161996 0
M  V30 38 H 1.087955 1.564696 2.827989 0
M  V30 39 H 0.846813 3.787293 1.140634 0
M  V30 40 H 0.017322 5.086462 2.036046 0
M  V30 41 H 1.429110 4.242006 2.745669 0
M  V30 42 H -0.664148 0.017738 2.310042 0
M  V30 END ATOM
M  V30 BEGIN BOND
M  V30 1 1 1 2
M  V30 2 2 2 3
M  V30 3 1 3 4
M  V30 4 2 4 5
M  V30 5 1 5 6
M  V30 6 2 6 7
M  V30 7 1 7 8
M  V30 8 1 8 9
M  V30 9 2 8 10
M  V30 10 1 3 11
M  V30 11 1 11 12
M  V30 12 2 12 13
M  V30 13 1 13 14
M  V30 14 2 14 15
M  V30 15 1 15 16
M  V30 16 1 16 17
M  V30 17 1 16 18
M  V30 18 1 18 19
M  V30 19 1 18 20
M  V30 20 1 15 21
M  V30 21 2 21 22
M  V30 22 1 22 2
M  V30 23 1 10 4
M  V30 24 1 22 12
M  V30 25 1 1 23
M  V30 26 1 1 24
M  V30 27 1 1 25
M  V30 28 1 5 26
M  V30 29 1 6 27
M  V30 30 1 9 28
M  V30 31 1 9 29
M  V30 32 1 13 30
M  V30 33 1 14 31
M  V30 34 1 16 32
M  V30 35 1 17 33
M  V30 36 1 17 34
M  V30 37 1 18 35
M  V30 38 1 19 36
M  V30 39 1 19 37
M  V30 40 1 19 38
M  V30 41 1 20 39
M  V30 42 1 20 40
M  V30 43 1 20 41
M  V30 44 1 21 42
M  V30 END BOND
M  V30 END CTAB
M  END
>  <Dataset>  (685) 
ChEMBL_Kinases

>  <Ligand_Instance>  (685) 
nan

>  <PDB_ID>  (685) 
nan

>  <Standardized_SMILES>  (685) 
Cc1c(-c2ccnc(N)n2)sc2ccc(C(N)C(C)C)cc12

>  <Name>  (685) 
nan

>  <Pocket>  (685) 
nan

>  <ATP_Site>  (685) 
nan

>  <Peripheral>  (685) 
nan

>  <Num_H_Atoms_ProtBoundConf>  (685) 
nan

>  <Num_Resolved_Atoms>  (685) 
nan

>  <Num_Not_Resolved_Atoms>  (685) 
nan

$$$$
CHEMBL1086174
     RDKit          3D

  0  0  0  0  0  0  0  0  0  0999 V3000
M  V30 BEGIN CTAB
M  V30 COUNTS 38 40 0 0 0
M  V30 BEGIN ATOM
M  V30 1 C -1.995166 -5.208035 2.842869 0
M  V30 2 C -0.703683 -5.962459 2.674061 0
M  V30 3 C 0.503736 -5.016036 2.620472 0
M  V30 4 C 0.374459 -4.077780 1.481114 0
M  V30 5 O -0.591738 -4.077862 0.688564 0
M  V30 6 N 1.469181 -3.178375 1.388741 0
M  V30 7 C 1.595932 -2.174290 0.386821 0
M  V30 8 N 2.190710 -2.321998 -0.805190 0
M  V30 9 N 2.139362 -1.199946 -1.503802 0
M  V30 10 C 1.498114 -0.247239 -0.791971 0
M  V30 11 C 1.187318 1.071005 -1.065699 0
M  V30 12 C 0.509420 1.826808 -0.131387 0
M  V30 13 C 0.127388 3.224057 -0.307007 0
M  V30 14 C -1.015074 3.746980 0.280584 0
M  V30 15 C -1.262325 5.084582 0.035200 0
M  V30 16 C -0.447803 5.884272 -0.740408 0
M  V30 17 C 0.678066 5.338581 -1.310235 0
M  V30 18 C 0.971790 4.007443 -1.097225 0
M  V30 19 C 0.172424 1.187145 1.066752 0
M  V30 20 C 0.476905 -0.135605 1.357515 0
M  V30 21 C 1.158651 -0.864571 0.395357 0
M  V30 22 H -2.682042 -5.461836 2.014040 0
M  V30 23 H -1.782519 -4.122855 2.751801 0
M  V30 24 H -2.446644 -5.452219 3.835497 0
M  V30 25 H -0.548898 -6.728572 3.449702 0
M  V30 26 H -0.717607 -6.477331 1.703959 0
M  V30 27 H 1.403750 -5.626134 2.525415 0
M  V30 28 H 0.501891 -4.503600 3.594241 0
M  V30 29 H 2.292499 -3.145571 2.028231 0
M  V30 30 H 2.528014 -1.026123 -2.478103 0
M  V30 31 H 1.456782 1.552254 -2.002012 0
M  V30 32 H -1.643271 3.112779 0.884089 0
M  V30 33 H -2.158640 5.483430 0.499597 0
M  V30 34 H -0.772332 6.913049 -0.841311 0
M  V30 35 H 1.305134 5.966642 -1.911014 0
M  V30 36 H 1.867064 3.635372 -1.568991 0
M  V30 37 H -0.365347 1.733457 1.846502 0
M  V30 38 H 0.199219 -0.580552 2.285413 0
M  V30 END ATOM
M  V30 BEGIN BOND
M  V30 1 1 1 2
M  V30 2 1 2 3
M  V30 3 1 3 4
M  V30 4 2 4 5
M  V30 5 1 4 6
M  V30 6 1 6 7
M  V30 7 2 7 8
M  V30 8 1 8 9
M  V30 9 1 9 10
M  V30 10 2 10 11
M  V30 11 1 11 12
M  V30 12 1 12 13
M  V30 13 2 13 14
M  V30 14 1 14 15
M  V30 15 2 15 16
M  V30 16 1 16 17
M  V30 17 2 17 18
M  V30 18 2 12 19
M  V30 19 1 19 20
M  V30 20 2 20 21
M  V30 21 1 21 7
M  V30 22 1 21 10
M  V30 23 1 18 13
M  V30 24 1 1 22
M  V30 25 1 1 23
M  V30 26 1 1 24
M  V30 27 1 2 25
M  V30 28 1 2 26
M  V30 29 1 3 27
M  V30 30 1 3 28
M  V30 31 1 6 29
M  V30 32 1 9 30
M  V30 33 1 11 31
M  V30 34 1 14 32
M  V30 35 1 15 33
M  V30 36 1 16 34
M  V30 37 1 17 35
M  V30 38 1 18 36
M  V30 39 1 19 37
M  V30 40 1 20 38
M  V30 END BOND
M  V30 END CTAB
M  END
>  <Dataset>  (686) 
ChEMBL_Kinases

>  <Ligand_Instance>  (686) 
nan

>  <PDB_ID>  (686) 
nan

>  <Standardized_SMILES>  (686) 
CCCC(=O)Nc1n[nH]c2cc(-c3ccccc3)ccc12

>  <Name>  (686) 
nan

>  <Pocket>  (686) 
nan

>  <ATP_Site>  (686) 
nan

>  <Peripheral>  (686) 
nan

>  <Num_H_Atoms_ProtBoundConf>  (686) 
nan

>  <Num_Resolved_Atoms>  (686) 
nan

>  <Num_Not_Resolved_Atoms>  (686) 
nan

$$$$
CHEMBL1086175
     RDKit          3D

  0  0  0  0  0  0  0  0  0  0999 V3000
M  V30 BEGIN CTAB
M  V30 COUNTS 38 40 0 0 0
M  V30 BEGIN ATOM
M  V30 1 C -1.808669 -6.452572 1.786401 0
M  V30 2 C -0.323664 -6.564435 1.977642 0
M  V30 3 C 0.203154 -5.224628 2.436453 0
M  V30 4 C -0.141199 -4.244652 1.348606 0
M  V30 5 O -0.750143 -4.484701 0.262612 0
M  V30 6 N 0.246147 -2.899417 1.533072 0
M  V30 7 C -0.048978 -1.921503 0.542164 0
M  V30 8 N -0.687281 -2.118943 -0.619000 0
M  V30 9 N -0.803304 -1.002619 -1.319333 0
M  V30 10 C -0.214320 -0.047315 -0.576185 0
M  V30 11 C -0.056760 1.299611 -0.840850 0
M  V30 12 C 0.583515 2.100746 0.067781 0
M  V30 13 C 0.847665 3.540242 -0.028267 0
M  V30 14 C 0.609397 4.360170 1.078318 0
M  V30 15 C 0.845983 5.718846 1.025704 0
M  V30 16 C 1.325263 6.188416 -0.180023 0
M  V30 17 C 1.589682 5.461772 -1.319816 0
M  V30 18 C 1.333489 4.096296 -1.211900 0
M  V30 19 Cl 1.641812 3.090111 -2.617416 0
M  V30 20 C 1.080783 1.568542 1.263698 0
M  V30 21 C 0.929146 0.219497 1.540816 0
M  V30 22 C 0.276195 -0.579749 0.606653 0
M  V30 23 H -2.089140 -6.690968 0.740708 0
M  V30 24 H -2.157955 -5.430343 2.030810 0
M  V30 25 H -2.384019 -7.124314 2.470154 0
M  V30 26 H -0.100776 -7.368065 2.724786 0
M  V30 27 H 0.191116 -6.788720 1.002419 0
M  V30 28 H 1.278849 -5.241186 2.655040 0
M  V30 29 H -0.316720 -4.973563 3.380037 0
M  V30 30 H 0.749926 -2.627164 2.400216 0
M  V30 31 H -1.259742 -0.890710 -2.257141 0
M  V30 32 H -0.387881 1.817533 -1.706631 0
M  V30 33 H 0.232709 3.935934 1.999366 0
M  V30 34 H 0.680152 6.401941 1.850012 0
M  V30 35 H 1.516880 7.269645 -0.231903 0
M  V30 36 H 1.964241 5.940014 -2.208532 0
M  V30 37 H 1.591732 2.104244 2.032803 0
M  V30 38 H 1.287432 -0.259126 2.442903 0
M  V30 END ATOM
M  V30 BEGIN BOND
M  V30 1 1 1 2
M  V30 2 1 2 3
M  V30 3 1 3 4
M  V30 4 2 4 5
M  V30 5 1 4 6
M  V30 6 1 6 7
M  V30 7 2 7 8
M  V30 8 1 8 9
M  V30 9 1 9 10
M  V30 10 2 10 11
M  V30 11 1 11 12
M  V30 12 1 12 13
M  V30 13 2 13 14
M  V30 14 1 14 15
M  V30 15 2 15 16
M  V30 16 1 16 17
M  V30 17 2 17 18
M  V30 18 1 18 19
M  V30 19 2 12 20
M  V30 20 1 20 21
M  V30 21 2 21 22
M  V30 22 1 22 7
M  V30 23 1 22 10
M  V30 24 1 18 13
M  V30 25 1 1 23
M  V30 26 1 1 24
M  V30 27 1 1 25
M  V30 28 1 2 26
M  V30 29 1 2 27
M  V30 30 1 3 28
M  V30 31 1 3 29
M  V30 32 1 6 30
M  V30 33 1 9 31
M  V30 34 1 11 32
M  V30 35 1 14 33
M  V30 36 1 15 34
M  V30 37 1 16 35
M  V30 38 1 17 36
M  V30 39 1 20 37
M  V30 40 1 21 38
M  V30 END BOND
M  V30 END CTAB
M  END
>  <Dataset>  (687) 
ChEMBL_Kinases

>  <Ligand_Instance>  (687) 
nan

>  <PDB_ID>  (687) 
nan

>  <Standardized_SMILES>  (687) 
CCCC(=O)Nc1n[nH]c2cc(-c3ccccc3Cl)ccc12

>  <Name>  (687) 
nan

>  <Pocket>  (687) 
nan

>  <ATP_Site>  (687) 
nan

>  <Peripheral>  (687) 
nan

>  <Num_H_Atoms_ProtBoundConf>  (687) 
nan

>  <Num_Resolved_Atoms>  (687) 
nan

>  <Num_Not_Resolved_Atoms>  (687) 
nan

$$$$
CHEMBL1086176
     RDKit          3D

  0  0  0  0  0  0  0  0  0  0999 V3000
M  V30 BEGIN CTAB
M  V30 COUNTS 35 36 0 0 0
M  V30 BEGIN ATOM
M  V30 1 C -3.256946 -5.218395 3.743980 0
M  V30 2 C -2.399903 -4.033297 3.444925 0
M  V30 3 C -1.656299 -3.912722 2.368976 0
M  V30 4 C -0.798237 -2.787510 2.014430 0
M  V30 5 C -0.051323 -2.775557 0.835582 0
M  V30 6 C 0.747562 -1.688934 0.540454 0
M  V30 7 C 0.854376 -0.586474 1.361823 0
M  V30 8 C 1.556010 0.600907 1.312173 0
M  V30 9 N 2.439756 1.012001 0.274337 0
M  V30 10 C 1.675160 1.721906 -0.692670 0
M  V30 11 O 0.449350 2.052260 -0.829275 0
M  V30 12 C 2.180524 2.344309 -1.963985 0
M  V30 13 C 0.937529 2.966501 -2.605034 0
M  V30 14 C 1.272714 3.638137 -3.901189 0
M  V30 15 N 1.239118 1.281594 2.429048 0
M  V30 16 N 0.384136 0.583576 3.163029 0
M  V30 17 C 0.123651 -0.577772 2.533471 0
M  V30 18 C -0.671407 -1.672057 2.815614 0
M  V30 19 H -3.204409 -5.543486 4.796754 0
M  V30 20 H -3.032906 -6.068896 3.103909 0
M  V30 21 H -4.343474 -4.969361 3.567296 0
M  V30 22 H -2.373985 -3.214502 4.140207 0
M  V30 23 H -1.690186 -4.747202 1.672315 0
M  V30 24 H -0.094363 -3.612770 0.151152 0
M  V30 25 H 1.315706 -1.709527 -0.382984 0
M  V30 26 H 3.440336 0.931538 0.054721 0
M  V30 27 H 2.504129 1.538640 -2.652638 0
M  V30 28 H 2.973594 3.083420 -1.779296 0
M  V30 29 H 0.428067 3.668866 -1.895428 0
M  V30 30 H 0.227676 2.106364 -2.758406 0
M  V30 31 H 0.618326 4.535077 -4.003014 0
M  V30 32 H 1.003661 2.981294 -4.750206 0
M  V30 33 H 2.338743 3.927743 -3.905882 0
M  V30 34 H -0.031463 0.865520 4.078523 0
M  V30 35 H -1.211061 -1.592643 3.746579 0
M  V30 END ATOM
M  V30 BEGIN BOND
M  V30 1 1 1 2
M  V30 2 2 2 3
M  V30 3 1 3 4
M  V30 4 2 4 5
M  V30 5 1 5 6
M  V30 6 2 6 7
M  V30 7 1 7 8
M  V30 8 1 8 9
M  V30 9 1 9 10
M  V30 10 2 10 11
M  V30 11 1 10 12
M  V30 12 1 12 13
M  V30 13 1 13 14
M  V30 14 2 8 15
M  V30 15 1 15 16
M  V30 16 1 16 17
M  V30 17 2 17 18
M  V30 18 1 18 4
M  V30 19 1 17 7
M  V30 20 1 1 19
M  V30 21 1 1 20
M  V30 22 1 1 21
M  V30 23 1 2 22
M  V30 24 1 3 23
M  V30 25 1 5 24
M  V30 26 1 6 25
M  V30 27 1 9 26
M  V30 28 1 12 27
M  V30 29 1 12 28
M  V30 30 1 13 29
M  V30 31 1 13 30
M  V30 32 1 14 31
M  V30 33 1 14 32
M  V30 34 1 14 33
M  V30 35 1 16 34
M  V30 36 1 18 35
M  V30 END BOND
M  V30 END CTAB
M  END
>  <Dataset>  (688) 
ChEMBL_Kinases

>  <Ligand_Instance>  (688) 
nan

>  <PDB_ID>  (688) 
nan

>  <Standardized_SMILES>  (688) 
C/C=C/c1ccc2c(NC(=O)CCC)n[nH]c2c1

>  <Name>  (688) 
nan

>  <Pocket>  (688) 
nan

>  <ATP_Site>  (688) 
nan

>  <Peripheral>  (688) 
nan

>  <Num_H_Atoms_ProtBoundConf>  (688) 
nan

>  <Num_Resolved_Atoms>  (688) 
nan

>  <Num_Not_Resolved_Atoms>  (688) 
nan

$$$$
CHEMBL1086219
     RDKit          3D

  0  0  0  0  0  0  0  0  0  0999 V3000
M  V30 BEGIN CTAB
M  V30 COUNTS 41 44 0 0 0
M  V30 BEGIN ATOM
M  V30 1 O -0.340433 -1.599544 3.753279 0
M  V30 2 C -0.688384 -2.235579 2.729803 0
M  V30 3 C -0.161372 -2.713710 1.409828 0
M  V30 4 N 1.218220 -2.266013 1.337965 0
M  V30 5 C 1.794001 -2.684147 0.103416 0
M  V30 6 C 1.491059 -1.730835 -1.064885 0
M  V30 7 N 1.817925 -0.356115 -0.737537 0
M  V30 8 C 1.632239 0.763806 -1.566482 0
M  V30 9 C 1.106404 0.647370 -2.832295 0
M  V30 10 Br 0.584947 -0.996510 -3.611055 0
M  V30 11 C 0.901905 1.710869 -3.675650 0
M  V30 12 N 1.232849 2.961540 -3.251906 0
M  V30 13 C 1.744225 3.096146 -2.027708 0
M  V30 14 N 2.123906 4.248116 -1.449158 0
M  V30 15 C 2.571837 3.918968 -0.233289 0
M  V30 16 N 2.458785 2.597600 -0.096557 0
M  V30 17 C 1.952196 2.033111 -1.175843 0
M  V30 18 C 2.373243 -0.340654 0.596490 0
M  V30 19 C 1.260159 -0.827015 1.524944 0
M  V30 20 N -2.039360 -2.652861 2.842199 0
M  V30 21 C -2.818919 -2.316203 4.056826 0
M  V30 22 N -3.537507 -1.465674 4.508977 0
M  V30 23 C -4.067165 -1.546418 5.716591 0
M  V30 24 C -3.765049 -2.699547 6.509427 0
M  V30 25 S -2.649555 -3.610158 5.301332 0
M  V30 26 H -0.757831 -2.288423 0.577645 0
M  V30 27 H -0.158304 -3.812604 1.442508 0
M  V30 28 H 1.254145 -3.641836 -0.177896 0
M  V30 29 H 2.850893 -2.991033 0.134383 0
M  V30 30 H 2.106408 -2.139978 -1.880043 0
M  V30 31 H 0.390478 -1.851062 -1.195728 0
M  V30 32 H 0.492084 1.670171 -4.677945 0
M  V30 33 H 2.094031 5.221726 -1.830874 0
M  V30 34 H 2.958044 4.597181 0.511176 0
M  V30 35 H 2.815569 0.585281 0.931340 0
M  V30 36 H 3.220348 -1.091891 0.660792 0
M  V30 37 H 1.448885 -0.511380 2.549978 0
M  V30 38 H 0.324085 -0.356638 1.165724 0
M  V30 39 H -2.650738 -3.191819 2.195917 0
M  V30 40 H -4.688037 -0.653163 5.911562 0
M  V30 41 H -4.343383 -2.577128 7.567830 0
M  V30 END ATOM
M  V30 BEGIN BOND
M  V30 1 2 1 2
M  V30 2 1 2 3
M  V30 3 1 3 4
M  V30 4 1 4 5
M  V30 5 1 5 6
M  V30 6 1 6 7
M  V30 7 1 7 8
M  V30 8 2 8 9
M  V30 9 1 9 10
M  V30 10 1 9 11
M  V30 11 2 11 12
M  V30 12 1 12 13
M  V30 13 1 13 14
M  V30 14 1 14 15
M  V30 15 2 15 16
M  V30 16 1 16 17
M  V30 17 1 7 18
M  V30 18 1 18 19
M  V30 19 1 2 20
M  V30 20 1 20 21
M  V30 21 2 21 22
M  V30 22 1 22 23
M  V30 23 2 23 24
M  V30 24 1 24 25
M  V30 25 1 19 4
M  V30 26 1 25 21
M  V30 27 1 17 8
M  V30 28 2 17 13
M  V30 29 1 3 26
M  V30 30 1 3 27
M  V30 31 1 5 28
M  V30 32 1 5 29
M  V30 33 1 6 30
M  V30 34 1 6 31
M  V30 35 1 11 32
M  V30 36 1 14 33
M  V30 37 1 15 34
M  V30 38 1 18 35
M  V30 39 1 18 36
M  V30 40 1 19 37
M  V30 41 1 19 38
M  V30 42 1 20 39
M  V30 43 1 23 40
M  V30 44 1 24 41
M  V30 END BOND
M  V30 END CTAB
M  END
>  <Dataset>  (689) 
ChEMBL_Kinases

>  <Ligand_Instance>  (689) 
nan

>  <PDB_ID>  (689) 
nan

>  <Standardized_SMILES>  (689) 
O=C(CN1CCN(c2c(Br)cnc3[nH]cnc23)CC1)Nc1nccs1

>  <Name>  (689) 
nan

>  <Pocket>  (689) 
nan

>  <ATP_Site>  (689) 
nan

>  <Peripheral>  (689) 
nan

>  <Num_H_Atoms_ProtBoundConf>  (689) 
nan

>  <Num_Resolved_Atoms>  (689) 
nan

>  <Num_Not_Resolved_Atoms>  (689) 
nan

$$$$
CHEMBL1086221
     RDKit          3D

  0  0  0  0  0  0  0  0  0  0999 V3000
M  V30 BEGIN CTAB
M  V30 COUNTS 70 75 0 0 0
M  V30 BEGIN ATOM
M  V30 1 C -3.253205 -2.870328 5.256842 0
M  V30 2 C -2.391862 -2.972183 4.073612 0
M  V30 3 C -2.460986 -4.183961 3.418489 0
M  V30 4 C -1.708707 -4.412233 2.294450 0
M  V30 5 C -0.905715 -3.408529 1.862022 0
M  V30 6 N -0.116903 -3.620851 0.700860 0
M  V30 7 C -0.438439 -3.372020 -0.641686 0
M  V30 8 O -1.592677 -2.896551 -0.792847 0
M  V30 9 N 0.469874 -3.640639 -1.702352 0
M  V30 10 C -0.099331 -3.297887 -2.986514 0
M  V30 11 C 0.172059 -1.972834 -3.346697 0
M  V30 12 C -0.300288 -1.474617 -4.551839 0
M  V30 13 N -0.046987 -0.133539 -4.955389 0
M  V30 14 C 0.723235 0.693283 -4.051723 0
M  V30 15 C 0.605500 2.146079 -4.494743 0
M  V30 16 O 0.841172 2.251089 -5.863530 0
M  V30 17 C -0.342845 1.768848 -6.467517 0
M  V30 18 C -0.568766 0.310357 -6.225156 0
M  V30 19 C -1.038293 -2.348588 -5.355271 0
M  V30 20 C -1.288560 -3.648998 -4.971769 0
M  V30 21 C -2.078273 -4.570439 -5.839834 0
M  V30 22 F -2.126601 -4.059761 -7.132358 0
M  V30 23 F -3.375807 -4.616112 -5.361666 0
M  V30 24 F -1.553589 -5.840706 -5.817796 0
M  V30 25 C -0.830058 -4.146330 -3.793039 0
M  V30 26 C -0.870335 -2.222543 2.545453 0
M  V30 27 C -1.599978 -1.931075 3.678904 0
M  V30 28 C -1.476516 -0.640790 4.320004 0
M  V30 29 N -0.670748 0.290430 3.803671 0
M  V30 30 C -0.674137 1.414935 4.508317 0
M  V30 31 C -1.528301 1.216478 5.546733 0
M  V30 32 C -1.505018 2.395551 6.249190 0
M  V30 33 N -0.658236 3.225985 5.614138 0
M  V30 34 N -0.140949 2.645320 4.548957 0
M  V30 35 C 0.814026 3.177639 3.581269 0
M  V30 36 C 2.199477 2.882846 4.015821 0
M  V30 37 C 2.933866 3.734313 4.814661 0
M  V30 38 C 4.217622 3.401735 5.183457 0
M  V30 39 C 4.776300 2.197680 4.746199 0
M  V30 40 C 4.048956 1.331433 3.942075 0
M  V30 41 C 2.762309 1.683825 3.583210 0
M  V30 42 N -1.964732 -0.020652 5.370432 0
M  V30 43 H -2.620550 -2.673899 6.141310 0
M  V30 44 H -3.862253 -3.796652 5.419474 0
M  V30 45 H -3.933269 -2.011889 5.114345 0
M  V30 46 H -3.095655 -4.993510 3.750452 0
M  V30 47 H -1.752403 -5.354341 1.771895 0
M  V30 48 H 0.826931 -4.023187 0.973200 0
M  V30 49 H 1.403134 -4.035674 -1.461440 0
M  V30 50 H 0.737639 -1.287844 -2.740970 0
M  V30 51 H 1.777932 0.373384 -3.975858 0
M  V30 52 H 0.313490 0.689711 -3.007109 0
M  V30 53 H 1.291538 2.801838 -3.940420 0
M  V30 54 H -0.442484 2.439895 -4.277175 0
M  V30 55 H -0.317122 1.988622 -7.546205 0
M  V30 56 H -1.172544 2.324381 -5.944663 0
M  V30 57 H -1.667427 0.137936 -6.185148 0
M  V30 58 H -0.112911 -0.261928 -7.038718 0
M  V30 59 H -1.418365 -1.973312 -6.308427 0
M  V30 60 H -0.978190 -5.146292 -3.415407 0
M  V30 61 H -0.183273 -1.482297 2.102240 0
M  V30 62 H -2.094388 2.562424 7.155033 0
M  V30 63 H 0.659394 2.723029 2.586098 0
M  V30 64 H 0.669006 4.285906 3.503796 0
M  V30 65 H 2.507472 4.658512 5.151298 0
M  V30 66 H 4.845541 4.034145 5.812273 0
M  V30 67 H 5.788109 1.937609 5.038128 0
M  V30 68 H 4.549843 0.420983 3.645333 0
M  V30 69 H 2.234831 0.979594 2.957358 0
M  V30 70 H -2.629809 -0.417131 6.030769 0
M  V30 END ATOM
M  V30 BEGIN BOND
M  V30 1 1 1 2
M  V30 2 2 2 3
M  V30 3 1 3 4
M  V30 4 2 4 5
M  V30 5 1 5 6
M  V30 6 1 6 7
M  V30 7 2 7 8
M  V30 8 1 7 9
M  V30 9 1 9 10
M  V30 10 2 10 11
M  V30 11 1 11 12
M  V30 12 1 12 13
M  V30 13 1 13 14
M  V30 14 1 14 15
M  V30 15 1 15 16
M  V30 16 1 16 17
M  V30 17 1 17 18
M  V30 18 2 12 19
M  V30 19 1 19 20
M  V30 20 1 20 21
M  V30 21 1 21 22
M  V30 22 1 21 23
M  V30 23 1 21 24
M  V30 24 2 20 25
M  V30 25 1 5 26
M  V30 26 2 26 27
M  V30 27 1 27 28
M  V30 28 2 28 29
M  V30 29 1 29 30
M  V30 30 2 30 31
M  V30 31 1 31 32
M  V30 32 2 32 33
M  V30 33 1 33 34
M  V30 34 1 34 35
M  V30 35 1 35 36
M  V30 36 2 36 37
M  V30 37 1 37 38
M  V30 38 2 38 39
M  V30 39 1 39 40
M  V30 40 2 40 41
M  V30 41 1 31 42
M  V30 42 1 27 2
M  V30 43 1 42 28
M  V30 44 1 25 10
M  V30 45 1 34 30
M  V30 46 1 41 36
M  V30 47 1 18 13
M  V30 48 1 1 43
M  V30 49 1 1 44
M  V30 50 1 1 45
M  V30 51 1 3 46
M  V30 52 1 4 47
M  V30 53 1 6 48
M  V30 54 1 9 49
M  V30 55 1 11 50
M  V30 56 1 14 51
M  V30 57 1 14 52
M  V30 58 1 15 53
M  V30 59 1 15 54
M  V30 60 1 17 55
M  V30 61 1 17 56
M  V30 62 1 18 57
M  V30 63 1 18 58
M  V30 64 1 19 59
M  V30 65 1 25 60
M  V30 66 1 26 61
M  V30 67 1 32 62
M  V30 68 1 35 63
M  V30 69 1 35 64
M  V30 70 1 37 65
M  V30 71 1 38 66
M  V30 72 1 39 67
M  V30 73 1 40 68
M  V30 74 1 41 69
M  V30 75 1 42 70
M  V30 END BOND
M  V30 END CTAB
M  END
>  <Dataset>  (690) 
ChEMBL_Kinases

>  <Ligand_Instance>  (690) 
nan

>  <PDB_ID>  (690) 
nan

>  <Standardized_SMILES>  (690) 
Cc1ccc(NC(=O)Nc2cc(N3CCOCC3)cc(C(F)(F)F)c2)cc1-c1nc2c(cnn2Cc2ccccc2)[nH]1

>  <Name>  (690) 
nan

>  <Pocket>  (690) 
nan

>  <ATP_Site>  (690) 
nan

>  <Peripheral>  (690) 
nan

>  <Num_H_Atoms_ProtBoundConf>  (690) 
nan

>  <Num_Resolved_Atoms>  (690) 
nan

>  <Num_Not_Resolved_Atoms>  (690) 
nan

$$$$
CHEMBL1086309
     RDKit          3D

  0  0  0  0  0  0  0  0  0  0999 V3000
M  V30 BEGIN CTAB
M  V30 COUNTS 59 63 0 0 0
M  V30 BEGIN ATOM
M  V30 1 C 6.732838 -0.215209 3.562242 0
M  V30 2 N 5.294140 0.019298 3.650079 0
M  V30 3 C 4.685097 0.370578 4.914684 0
M  V30 4 C 4.539015 -0.109114 2.462290 0
M  V30 5 C 5.206000 -0.447126 1.280188 0
M  V30 6 C 4.410140 -0.553518 0.158549 0
M  V30 7 C 3.048241 -0.363732 0.092639 0
M  V30 8 C 2.332574 -0.506019 -1.162361 0
M  V30 9 N 1.036045 -0.354849 -1.368392 0
M  V30 10 C 0.654039 -0.543186 -2.627725 0
M  V30 11 C -0.470895 -0.528473 -3.417181 0
M  V30 12 N -1.707336 -0.232725 -2.794954 0
M  V30 13 C -1.630875 -0.005666 -1.371603 0
M  V30 14 C -2.914419 0.349708 -0.699673 0
M  V30 15 N -3.995261 -0.583296 -0.916102 0
M  V30 16 C -3.930820 -1.732184 -0.045033 0
M  V30 17 C -4.186572 -1.338704 1.342697 0
M  V30 18 O -4.443596 -0.283504 1.970205 0
M  V30 19 N -4.120803 -2.489940 2.206137 0
M  V30 20 C -4.341352 -2.377412 3.669531 0
M  V30 21 N -3.692385 -2.175779 4.726645 0
M  V30 22 C -4.349223 -2.159104 5.869797 0
M  V30 23 C -5.852613 -2.384362 5.853951 0
M  V30 24 S -6.043451 -2.600038 3.976249 0
M  V30 25 C -4.021450 -0.940743 -2.309682 0
M  V30 26 C -3.090547 -0.067280 -3.134182 0
M  V30 27 C -0.313939 -0.807868 -4.752513 0
M  V30 28 Br -1.765079 -0.828680 -5.958218 0
M  V30 29 C 0.882903 -1.104181 -5.371939 0
M  V30 30 N 1.972987 -1.109909 -4.561100 0
M  V30 31 C 1.860876 -0.841680 -3.249943 0
M  V30 32 N 2.859944 -0.815466 -2.354875 0
M  V30 33 C 2.448139 -0.033399 1.285155 0
M  V30 34 C 3.155486 0.097377 2.461044 0
M  V30 35 H 6.964269 -1.266712 3.285291 0
M  V30 36 H 7.193788 0.429973 2.764670 0
M  V30 37 H 7.221337 0.034188 4.509542 0
M  V30 38 H 4.615578 1.478771 4.965958 0
M  V30 39 H 5.369148 0.001271 5.714520 0
M  V30 40 H 3.673406 -0.060398 5.046956 0
M  V30 41 H 6.265759 -0.619309 1.216183 0
M  V30 42 H 4.928064 -0.817625 -0.766918 0
M  V30 43 H -1.145469 -0.898929 -0.875231 0
M  V30 44 H -0.938373 0.877122 -1.233289 0
M  V30 45 H -3.289456 1.355655 -0.957597 0
M  V30 46 H -2.666055 0.424461 0.388387 0
M  V30 47 H -2.950901 -2.225003 -0.181102 0
M  V30 48 H -4.699890 -2.452642 -0.392487 0
M  V30 49 H -3.926223 -3.479860 1.955475 0
M  V30 50 H -3.578111 -1.967385 6.637570 0
M  V30 51 H -6.056248 -2.289953 7.106827 0
M  V30 52 H -3.689024 -1.987593 -2.416613 0
M  V30 53 H -5.037200 -0.860859 -2.725318 0
M  V30 54 H -3.346110 -0.171947 -4.189496 0
M  V30 55 H -3.356035 1.015948 -2.906212 0
M  V30 56 H 1.027268 -1.324047 -6.412366 0
M  V30 57 H 3.859440 -0.992439 -2.510784 0
M  V30 58 H 1.359547 0.122031 1.248858 0
M  V30 59 H 2.622511 0.356533 3.350121 0
M  V30 END ATOM
M  V30 BEGIN BOND
M  V30 1 1 1 2
M  V30 2 1 2 3
M  V30 3 1 2 4
M  V30 4 2 4 5
M  V30 5 1 5 6
M  V30 6 2 6 7
M  V30 7 1 7 8
M  V30 8 2 8 9
M  V30 9 1 9 10
M  V30 10 2 10 11
M  V30 11 1 11 12
M  V30 12 1 12 13
M  V30 13 1 13 14
M  V30 14 1 14 15
M  V30 15 1 15 16
M  V30 16 1 16 17
M  V30 17 2 17 18
M  V30 18 1 17 19
M  V30 19 1 19 20
M  V30 20 2 20 21
M  V30 21 1 21 22
M  V30 22 2 22 23
M  V30 23 1 23 24
M  V30 24 1 15 25
M  V30 25 1 25 26
M  V30 26 1 11 27
M  V30 27 1 27 28
M  V30 28 2 27 29
M  V30 29 1 29 30
M  V30 30 2 30 31
M  V30 31 1 31 32
M  V30 32 1 7 33
M  V30 33 2 33 34
M  V30 34 1 34 4
M  V30 35 1 32 8
M  V30 36 1 31 10
M  V30 37 1 26 12
M  V30 38 1 24 20
M  V30 39 1 1 35
M  V30 40 1 1 36
M  V30 41 1 1 37
M  V30 42 1 3 38
M  V30 43 1 3 39
M  V30 44 1 3 40
M  V30 45 1 5 41
M  V30 46 1 6 42
M  V30 47 1 13 43
M  V30 48 1 13 44
M  V30 49 1 14 45
M  V30 50 1 14 46
M  V30 51 1 16 47
M  V30 52 1 16 48
M  V30 53 1 19 49
M  V30 54 1 22 50
M  V30 55 1 23 51
M  V30 56 1 25 52
M  V30 57 1 25 53
M  V30 58 1 26 54
M  V30 59 1 26 55
M  V30 60 1 29 56
M  V30 61 1 32 57
M  V30 62 1 33 58
M  V30 63 1 34 59
M  V30 END BOND
M  V30 END CTAB
M  END
>  <Dataset>  (691) 
ChEMBL_Kinases

>  <Ligand_Instance>  (691) 
nan

>  <PDB_ID>  (691) 
nan

>  <Standardized_SMILES>  (691) 
CN(C)c1ccc(-c2nc3c(N4CCN(CC(=O)Nc5nccs5)CC4)c(Br)cnc3[nH]2)cc1

>  <Name>  (691) 
nan

>  <Pocket>  (691) 
nan

>  <ATP_Site>  (691) 
nan

>  <Peripheral>  (691) 
nan

>  <Num_H_Atoms_ProtBoundConf>  (691) 
nan

>  <Num_Resolved_Atoms>  (691) 
nan

>  <Num_Not_Resolved_Atoms>  (691) 
nan

$$$$
CHEMBL1086638
     RDKit          3D

  0  0  0  0  0  0  0  0  0  0999 V3000
M  V30 BEGIN CTAB
M  V30 COUNTS 40 42 0 0 0
M  V30 BEGIN ATOM
M  V30 1 C 1.605547 -5.873776 3.068503 0
M  V30 2 C 0.484258 -6.055681 2.062795 0
M  V30 3 C 0.952505 -5.579991 0.725521 0
M  V30 4 C 1.340316 -4.148981 0.732889 0
M  V30 5 O 1.280743 -3.405343 1.771083 0
M  V30 6 N 1.818149 -3.453458 -0.409946 0
M  V30 7 C 2.093027 -2.086731 -0.024865 0
M  V30 8 N 3.278324 -1.657261 0.436931 0
M  V30 9 N 3.235173 -0.362577 0.709422 0
M  V30 10 C 1.982886 0.072049 0.417743 0
M  V30 11 C 1.340751 1.315801 0.494005 0
M  V30 12 C 0.019099 1.421895 0.108722 0
M  V30 13 C -0.653150 2.729346 0.189184 0
M  V30 14 C 0.001474 3.944252 0.003044 0
M  V30 15 C -0.729688 5.130252 0.101792 0
M  V30 16 C -2.079663 5.048716 0.381574 0
M  V30 17 N -2.842985 6.250084 0.486520 0
M  V30 18 C -2.768581 3.865028 0.573399 0
M  V30 19 C -2.019556 2.703294 0.469952 0
M  V30 20 C -0.694849 0.328907 -0.353641 0
M  V30 21 C -0.089476 -0.917118 -0.441804 0
M  V30 22 C 1.243746 -0.998071 -0.047369 0
M  V30 23 H 1.321806 -5.143538 3.849555 0
M  V30 24 H 2.558098 -5.576081 2.600269 0
M  V30 25 H 1.816532 -6.852529 3.582997 0
M  V30 26 H 0.223654 -7.126886 1.959149 0
M  V30 27 H -0.408080 -5.513250 2.431974 0
M  V30 28 H 0.252375 -5.755694 -0.096395 0
M  V30 29 H 1.879658 -6.177492 0.492816 0
M  V30 30 H 1.905473 -3.972036 -1.314889 0
M  V30 31 H 4.021887 0.243195 1.087062 0
M  V30 32 H 1.900894 2.152274 0.852168 0
M  V30 33 H 1.060558 3.888626 -0.211245 0
M  V30 34 H -0.202966 6.057078 -0.045798 0
M  V30 35 H -3.779920 6.470547 0.049578 0
M  V30 36 H -2.440483 7.010771 1.060156 0
M  V30 37 H -3.815240 3.825272 0.789796 0
M  V30 38 H -2.555322 1.763571 0.619997 0
M  V30 39 H -1.734505 0.403287 -0.658537 0
M  V30 40 H -0.598990 -1.816198 -0.798280 0
M  V30 END ATOM
M  V30 BEGIN BOND
M  V30 1 1 1 2
M  V30 2 1 2 3
M  V30 3 1 3 4
M  V30 4 2 4 5
M  V30 5 1 4 6
M  V30 6 1 6 7
M  V30 7 2 7 8
M  V30 8 1 8 9
M  V30 9 1 9 10
M  V30 10 2 10 11
M  V30 11 1 11 12
M  V30 12 1 12 13
M  V30 13 2 13 14
M  V30 14 1 14 15
M  V30 15 2 15 16
M  V30 16 1 16 17
M  V30 17 1 16 18
M  V30 18 2 18 19
M  V30 19 2 12 20
M  V30 20 1 20 21
M  V30 21 2 21 22
M  V30 22 1 22 7
M  V30 23 1 22 10
M  V30 24 1 19 13
M  V30 25 1 1 23
M  V30 26 1 1 24
M  V30 27 1 1 25
M  V30 28 1 2 26
M  V30 29 1 2 27
M  V30 30 1 3 28
M  V30 31 1 3 29
M  V30 32 1 6 30
M  V30 33 1 9 31
M  V30 34 1 11 32
M  V30 35 1 14 33
M  V30 36 1 15 34
M  V30 37 1 17 35
M  V30 38 1 17 36
M  V30 39 1 18 37
M  V30 40 1 19 38
M  V30 41 1 20 39
M  V30 42 1 21 40
M  V30 END BOND
M  V30 END CTAB
M  END
>  <Dataset>  (692) 
ChEMBL_Kinases

>  <Ligand_Instance>  (692) 
nan

>  <PDB_ID>  (692) 
nan

>  <Standardized_SMILES>  (692) 
CCCC(=O)Nc1n[nH]c2cc(-c3ccc(N)cc3)ccc12

>  <Name>  (692) 
nan

>  <Pocket>  (692) 
nan

>  <ATP_Site>  (692) 
nan

>  <Peripheral>  (692) 
nan

>  <Num_H_Atoms_ProtBoundConf>  (692) 
nan

>  <Num_Resolved_Atoms>  (692) 
nan

>  <Num_Not_Resolved_Atoms>  (692) 
nan

$$$$
CHEMBL1086444
     RDKit          3D

  0  0  0  0  0  0  0  0  0  0999 V3000
M  V30 BEGIN CTAB
M  V30 COUNTS 46 49 0 0 0
M  V30 BEGIN ATOM
M  V30 1 C 3.157873 -3.656647 5.386070 0
M  V30 2 N 1.708534 -3.658803 5.368170 0
M  V30 3 C 0.925257 -4.347924 6.379189 0
M  V30 4 C 1.037082 -2.961052 4.323153 0
M  V30 5 C 1.769400 -2.301128 3.354588 0
M  V30 6 C 1.151860 -1.606268 2.314711 0
M  V30 7 C -0.229066 -1.578110 2.253008 0
M  V30 8 C -0.996201 -0.881798 1.208723 0
M  V30 9 N -0.438274 -0.182532 0.178520 0
M  V30 10 C -1.413927 0.329533 -0.595284 0
M  V30 11 C -1.451722 1.101414 -1.741653 0
M  V30 12 N -0.238029 1.524383 -2.352610 0
M  V30 13 C 0.461807 0.767380 -3.372071 0
M  V30 14 C 1.301926 1.780047 -4.148616 0
M  V30 15 N 2.337197 2.338513 -3.321546 0
M  V30 16 C 1.876347 2.580348 -1.962706 0
M  V30 17 C 0.372449 2.800722 -1.951052 0
M  V30 18 C -2.694816 1.425378 -2.239997 0
M  V30 19 Br -2.736272 2.494240 -3.827504 0
M  V30 20 C -3.896085 1.038970 -1.683221 0
M  V30 21 N -3.796815 0.283859 -0.560892 0
M  V30 22 C -2.607880 -0.062668 -0.029817 0
M  V30 23 N -2.354173 -0.809921 1.082993 0
M  V30 24 C -0.952467 -2.245376 3.232590 0
M  V30 25 C -0.344961 -2.938117 4.269171 0
M  V30 26 H 3.474748 -4.374529 6.189640 0
M  V30 27 H 3.616343 -3.899350 4.410913 0
M  V30 28 H 3.529856 -2.663512 5.749921 0
M  V30 29 H 1.547687 -4.736581 7.183498 0
M  V30 30 H 0.130773 -3.652126 6.769813 0
M  V30 31 H 0.352753 -5.125403 5.820101 0
M  V30 32 H 2.853882 -2.309417 3.382563 0
M  V30 33 H 1.692153 -1.077617 1.538176 0
M  V30 34 H -0.284442 0.289407 -4.033625 0
M  V30 35 H 1.104114 0.016938 -2.871732 0
M  V30 36 H 0.623777 2.609150 -4.426715 0
M  V30 37 H 1.706547 1.306684 -5.043396 0
M  V30 38 H 2.680759 3.212044 -3.750447 0
M  V30 39 H 2.419134 3.474738 -1.597875 0
M  V30 40 H 2.163605 1.706744 -1.354098 0
M  V30 41 H 0.077680 3.613580 -2.611459 0
M  V30 42 H 0.080154 2.963124 -0.895587 0
M  V30 43 H -4.819585 1.343687 -2.148511 0
M  V30 44 H -3.049782 -1.254273 1.732850 0
M  V30 45 H -2.040330 -2.270695 3.254420 0
M  V30 46 H -0.920571 -3.453506 5.025532 0
M  V30 END ATOM
M  V30 BEGIN BOND
M  V30 1 1 1 2
M  V30 2 1 2 3
M  V30 3 1 2 4
M  V30 4 2 4 5
M  V30 5 1 5 6
M  V30 6 2 6 7
M  V30 7 1 7 8
M  V30 8 2 8 9
M  V30 9 1 9 10
M  V30 10 2 10 11
M  V30 11 1 11 12
M  V30 12 1 12 13
M  V30 13 1 13 14
M  V30 14 1 14 15
M  V30 15 1 15 16
M  V30 16 1 16 17
M  V30 17 1 11 18
M  V30 18 1 18 19
M  V30 19 2 18 20
M  V30 20 1 20 21
M  V30 21 2 21 22
M  V30 22 1 22 23
M  V30 23 1 7 24
M  V30 24 2 24 25
M  V30 25 1 25 4
M  V30 26 1 23 8
M  V30 27 1 22 10
M  V30 28 1 17 12
M  V30 29 1 1 26
M  V30 30 1 1 27
M  V30 31 1 1 28
M  V30 32 1 3 29
M  V30 33 1 3 30
M  V30 34 1 3 31
M  V30 35 1 5 32
M  V30 36 1 6 33
M  V30 37 1 13 34
M  V30 38 1 13 35
M  V30 39 1 14 36
M  V30 40 1 14 37
M  V30 41 1 15 38
M  V30 42 1 16 39
M  V30 43 1 16 40
M  V30 44 1 17 41
M  V30 45 1 17 42
M  V30 46 1 20 43
M  V30 47 1 23 44
M  V30 48 1 24 45
M  V30 49 1 25 46
M  V30 END BOND
M  V30 END CTAB
M  END
>  <Dataset>  (693) 
ChEMBL_Kinases

>  <Ligand_Instance>  (693) 
nan

>  <PDB_ID>  (693) 
nan

>  <Standardized_SMILES>  (693) 
CN(C)c1ccc(-c2nc3c(N4CCNCC4)c(Br)cnc3[nH]2)cc1

>  <Name>  (693) 
nan

>  <Pocket>  (693) 
nan

>  <ATP_Site>  (693) 
nan

>  <Peripheral>  (693) 
nan

>  <Num_H_Atoms_ProtBoundConf>  (693) 
nan

>  <Num_Resolved_Atoms>  (693) 
nan

>  <Num_Not_Resolved_Atoms>  (693) 
nan

$$$$
CHEMBL1086486
     RDKit          3D

  0  0  0  0  0  0  0  0  0  0999 V3000
M  V30 BEGIN CTAB
M  V30 COUNTS 54 58 0 0 0
M  V30 BEGIN ATOM
M  V30 1 O -0.586074 -3.846842 -0.926300 0
M  V30 2 C 0.115311 -4.836415 -0.552150 0
M  V30 3 N 1.409164 -4.521264 0.001111 0
M  V30 4 C 1.728215 -3.114185 0.052512 0
M  V30 5 C 1.309820 -2.565331 1.255954 0
M  V30 6 C 1.526123 -1.214569 1.501450 0
M  V30 7 C 2.157251 -0.446047 0.533564 0
M  V30 8 C 2.404680 0.986546 0.754606 0
M  V30 9 N 2.057274 1.664529 1.871731 0
M  V30 10 C 2.433212 2.963731 1.741830 0
M  V30 11 C 3.035076 3.082216 0.492774 0
M  V30 12 C 3.394170 4.418924 0.419496 0
M  V30 13 N 3.010544 5.025476 1.577661 0
M  V30 14 N 2.432532 4.165727 2.381286 0
M  V30 15 C 1.882547 4.397526 3.703154 0
M  V30 16 C 0.450174 4.782515 3.627800 0
M  V30 17 C -0.522782 3.784352 3.666255 0
M  V30 18 C -1.902832 3.973425 3.606600 0
M  V30 19 C -2.330021 5.285433 3.498938 0
M  V30 20 C -1.401760 6.308859 3.457188 0
M  V30 21 C -0.028995 6.091133 3.518638 0
M  V30 22 N 3.000720 1.857945 -0.082134 0
M  V30 23 C 2.563852 -1.014920 -0.654794 0
M  V30 24 C 2.356319 -2.355380 -0.913935 0
M  V30 25 N -0.469921 -6.137653 -0.728278 0
M  V30 26 C -1.776574 -6.175517 -1.304969 0
M  V30 27 C -2.789197 -6.116063 -0.370024 0
M  V30 28 C -4.119229 -6.142385 -0.766821 0
M  V30 29 Cl -5.448235 -6.069645 0.377979 0
M  V30 30 C -4.408494 -6.229962 -2.126867 0
M  V30 31 C -3.396262 -6.288975 -3.054931 0
M  V30 32 C -3.715045 -6.382150 -4.501657 0
M  V30 33 F -4.495398 -7.502252 -4.737841 0
M  V30 34 F -4.411662 -5.228840 -4.881418 0
M  V30 35 F -2.566079 -6.380935 -5.238905 0
M  V30 36 C -2.083918 -6.261950 -2.647024 0
M  V30 37 H 1.942746 -5.385543 0.292842 0
M  V30 38 H 0.815181 -3.074973 2.063711 0
M  V30 39 H 1.219471 -0.735547 2.424235 0
M  V30 40 H 3.888963 4.871971 -0.418606 0
M  V30 41 H 1.933716 3.442751 4.259774 0
M  V30 42 H 2.488906 5.164972 4.233378 0
M  V30 43 H -0.161312 2.749496 3.752003 0
M  V30 44 H -2.533718 3.102576 3.647447 0
M  V30 45 H -3.395060 5.448091 3.451708 0
M  V30 46 H -1.749849 7.333475 3.372625 0
M  V30 47 H 0.713253 6.850678 3.489438 0
M  V30 48 H 3.386826 1.652116 -1.033015 0
M  V30 49 H 3.054987 -0.465685 -1.433900 0
M  V30 50 H 2.628127 -2.910774 -1.801289 0
M  V30 51 H 0.166114 -6.922283 -0.396183 0
M  V30 52 H -2.624441 -6.047004 0.703057 0
M  V30 53 H -5.459337 -6.250216 -2.431937 0
M  V30 54 H -1.238119 -6.304611 -3.319070 0
M  V30 END ATOM
M  V30 BEGIN BOND
M  V30 1 2 1 2
M  V30 2 1 2 3
M  V30 3 1 3 4
M  V30 4 2 4 5
M  V30 5 1 5 6
M  V30 6 2 6 7
M  V30 7 1 7 8
M  V30 8 2 8 9
M  V30 9 1 9 10
M  V30 10 2 10 11
M  V30 11 1 11 12
M  V30 12 2 12 13
M  V30 13 1 13 14
M  V30 14 1 14 15
M  V30 15 1 15 16
M  V30 16 2 16 17
M  V30 17 1 17 18
M  V30 18 2 18 19
M  V30 19 1 19 20
M  V30 20 2 20 21
M  V30 21 1 11 22
M  V30 22 1 7 23
M  V30 23 2 23 24
M  V30 24 1 2 25
M  V30 25 1 25 26
M  V30 26 2 26 27
M  V30 27 1 27 28
M  V30 28 1 28 29
M  V30 29 2 28 30
M  V30 30 1 30 31
M  V30 31 1 31 32
M  V30 32 1 32 33
M  V30 33 1 32 34
M  V30 34 1 32 35
M  V30 35 2 31 36
M  V30 36 1 24 4
M  V30 37 1 36 26
M  V30 38 1 22 8
M  V30 39 1 14 10
M  V30 40 1 21 16
M  V30 41 1 3 37
M  V30 42 1 5 38
M  V30 43 1 6 39
M  V30 44 1 12 40
M  V30 45 1 15 41
M  V30 46 1 15 42
M  V30 47 1 17 43
M  V30 48 1 18 44
M  V30 49 1 19 45
M  V30 50 1 20 46
M  V30 51 1 21 47
M  V30 52 1 22 48
M  V30 53 1 23 49
M  V30 54 1 24 50
M  V30 55 1 25 51
M  V30 56 1 27 52
M  V30 57 1 30 53
M  V30 58 1 36 54
M  V30 END BOND
M  V30 END CTAB
M  END
>  <Dataset>  (694) 
ChEMBL_Kinases

>  <Ligand_Instance>  (694) 
nan

>  <PDB_ID>  (694) 
nan

>  <Standardized_SMILES>  (694) 
O=C(Nc1ccc(-c2nc3c(cnn3Cc3ccccc3)[nH]2)cc1)Nc1cc(Cl)cc(C(F)(F)F)c1

>  <Name>  (694) 
nan

>  <Pocket>  (694) 
nan

>  <ATP_Site>  (694) 
nan

>  <Peripheral>  (694) 
nan

>  <Num_H_Atoms_ProtBoundConf>  (694) 
nan

>  <Num_Resolved_Atoms>  (694) 
nan

>  <Num_Not_Resolved_Atoms>  (694) 
nan

$$$$
CHEMBL1086556
     RDKit          3D

  0  0  0  0  0  0  0  0  0  0999 V3000
M  V30 BEGIN CTAB
M  V30 COUNTS 62 66 0 0 0
M  V30 BEGIN ATOM
M  V30 1 C 1.961946 1.470218 6.967883 0
M  V30 2 N 3.198878 1.631064 6.205779 0
M  V30 3 C 4.403827 2.007527 6.918085 0
M  V30 4 C 3.204265 1.418880 4.799706 0
M  V30 5 C 4.349407 1.555435 4.005762 0
M  V30 6 C 4.327836 1.342629 2.639672 0
M  V30 7 C 3.141027 0.983149 2.030450 0
M  V30 8 C 3.095233 0.752186 0.587969 0
M  V30 9 N 1.999416 0.394283 -0.107354 0
M  V30 10 C 2.301760 0.262225 -1.413629 0
M  V30 11 C 1.548409 -0.082788 -2.528938 0
M  V30 12 N 0.167579 -0.358297 -2.276582 0
M  V30 13 C -0.294158 -1.675405 -1.956235 0
M  V30 14 C -1.379540 -1.669014 -0.898838 0
M  V30 15 N -2.452899 -0.846422 -1.342957 0
M  V30 16 C -3.323520 -1.433399 -2.307363 0
M  V30 17 C -4.100746 -2.534770 -1.656970 0
M  V30 18 O -4.037417 -2.923504 -0.455143 0
M  V30 19 N -5.060257 -3.318256 -2.365437 0
M  V30 20 C -5.604931 -4.272967 -1.430710 0
M  V30 21 C -6.721282 -3.942045 -0.691460 0
M  V30 22 C -7.254815 -4.842705 0.208607 0
M  V30 23 C -6.631674 -6.075927 0.337286 0
M  V30 24 N -5.540917 -6.388850 -0.390501 0
M  V30 25 C -5.029058 -5.508145 -1.262654 0
M  V30 26 C -2.048090 0.493438 -1.575395 0
M  V30 27 C -0.795226 0.698584 -2.342580 0
M  V30 28 C 2.200783 -0.121557 -3.744429 0
M  V30 29 Br 1.134196 -0.596874 -5.236857 0
M  V30 30 C 3.529522 0.168111 -3.838427 0
M  V30 31 N 4.226938 0.500199 -2.723539 0
M  V30 32 C 3.660358 0.558931 -1.505405 0
M  V30 33 N 4.129640 0.858387 -0.257925 0
M  V30 34 C 2.002799 0.844144 2.798033 0
M  V30 35 C 2.033034 1.058938 4.164870 0
M  V30 36 H 1.744012 0.373067 6.914820 0
M  V30 37 H 2.100878 1.823467 8.006955 0
M  V30 38 H 1.116138 1.969350 6.499714 0
M  V30 39 H 4.369767 1.717249 7.987036 0
M  V30 40 H 5.270518 1.458394 6.496636 0
M  V30 41 H 4.623274 3.086827 6.886691 0
M  V30 42 H 5.287660 1.840032 4.493632 0
M  V30 43 H 5.242493 1.457649 2.047660 0
M  V30 44 H 0.564509 -2.228761 -1.490498 0
M  V30 45 H -0.603924 -2.289127 -2.819640 0
M  V30 46 H -1.743067 -2.695065 -0.734711 0
M  V30 47 H -1.014780 -1.294119 0.065738 0
M  V30 48 H -2.649149 -1.909759 -3.081104 0
M  V30 49 H -3.954370 -0.664201 -2.756572 0
M  V30 50 H -5.242413 -3.129775 -3.385009 0
M  V30 51 H -7.167414 -2.958199 -0.836447 0
M  V30 52 H -8.135351 -4.565790 0.783954 0
M  V30 53 H -7.035985 -6.797060 1.039617 0
M  V30 54 H -4.155243 -5.732158 -1.859892 0
M  V30 55 H -1.915042 0.971861 -0.564767 0
M  V30 56 H -2.885094 1.084113 -2.047768 0
M  V30 57 H -0.247985 1.635307 -2.029509 0
M  V30 58 H -1.021909 0.880867 -3.430074 0
M  V30 59 H 3.989122 0.125918 -4.794243 0
M  V30 60 H 5.115781 1.121980 -0.009033 0
M  V30 61 H 1.105783 0.562679 2.275946 0
M  V30 62 H 1.098286 0.925615 4.669800 0
M  V30 END ATOM
M  V30 BEGIN BOND
M  V30 1 1 1 2
M  V30 2 1 2 3
M  V30 3 1 2 4
M  V30 4 2 4 5
M  V30 5 1 5 6
M  V30 6 2 6 7
M  V30 7 1 7 8
M  V30 8 2 8 9
M  V30 9 1 9 10
M  V30 10 2 10 11
M  V30 11 1 11 12
M  V30 12 1 12 13
M  V30 13 1 13 14
M  V30 14 1 14 15
M  V30 15 1 15 16
M  V30 16 1 16 17
M  V30 17 2 17 18
M  V30 18 1 17 19
M  V30 19 1 19 20
M  V30 20 2 20 21
M  V30 21 1 21 22
M  V30 22 2 22 23
M  V30 23 1 23 24
M  V30 24 2 24 25
M  V30 25 1 15 26
M  V30 26 1 26 27
M  V30 27 1 11 28
M  V30 28 1 28 29
M  V30 29 2 28 30
M  V30 30 1 30 31
M  V30 31 2 31 32
M  V30 32 1 32 33
M  V30 33 1 7 34
M  V30 34 2 34 35
M  V30 35 1 35 4
M  V30 36 1 33 8
M  V30 37 1 32 10
M  V30 38 1 27 12
M  V30 39 1 25 20
M  V30 40 1 1 36
M  V30 41 1 1 37
M  V30 42 1 1 38
M  V30 43 1 3 39
M  V30 44 1 3 40
M  V30 45 1 3 41
M  V30 46 1 5 42
M  V30 47 1 6 43
M  V30 48 1 13 44
M  V30 49 1 13 45
M  V30 50 1 14 46
M  V30 51 1 14 47
M  V30 52 1 16 48
M  V30 53 1 16 49
M  V30 54 1 19 50
M  V30 55 1 21 51
M  V30 56 1 22 52
M  V30 57 1 23 53
M  V30 58 1 25 54
M  V30 59 1 26 55
M  V30 60 1 26 56
M  V30 61 1 27 57
M  V30 62 1 27 58
M  V30 63 1 30 59
M  V30 64 1 33 60
M  V30 65 1 34 61
M  V30 66 1 35 62
M  V30 END BOND
M  V30 END CTAB
M  END
>  <Dataset>  (695) 
ChEMBL_Kinases

>  <Ligand_Instance>  (695) 
nan

>  <PDB_ID>  (695) 
nan

>  <Standardized_SMILES>  (695) 
CN(C)c1ccc(-c2nc3c(N4CCN(CC(=O)Nc5cccnc5)CC4)c(Br)cnc3[nH]2)cc1

>  <Name>  (695) 
nan

>  <Pocket>  (695) 
nan

>  <ATP_Site>  (695) 
nan

>  <Peripheral>  (695) 
nan

>  <Num_H_Atoms_ProtBoundConf>  (695) 
nan

>  <Num_Resolved_Atoms>  (695) 
nan

>  <Num_Not_Resolved_Atoms>  (695) 
nan

$$$$
CHEMBL1086557
     RDKit          3D

  0  0  0  0  0  0  0  0  0  0999 V3000
M  V30 BEGIN CTAB
M  V30 COUNTS 63 67 0 0 0
M  V30 BEGIN ATOM
M  V30 1 C 5.881470 0.389623 5.728909 0
M  V30 2 N 5.975185 1.305764 4.639270 0
M  V30 3 C 7.234549 2.035444 4.546506 0
M  V30 4 C 4.954664 1.521715 3.684915 0
M  V30 5 C 3.754928 0.848561 3.722311 0
M  V30 6 C 2.727247 1.011253 2.816375 0
M  V30 7 C 2.906684 1.929591 1.773366 0
M  V30 8 C 1.905363 2.198129 0.736494 0
M  V30 9 N 0.727791 1.562505 0.741177 0
M  V30 10 C -0.069578 1.900866 -0.273806 0
M  V30 11 C -1.319983 1.557930 -0.731202 0
M  V30 12 N -2.138457 0.634669 -0.038304 0
M  V30 13 C -1.795463 0.057397 1.240277 0
M  V30 14 C -1.362153 -1.351333 1.007344 0
M  V30 15 N -2.386753 -2.122306 0.261337 0
M  V30 16 C -1.855668 -2.311840 -1.050837 0
M  V30 17 C -2.527188 -3.239872 -1.935011 0
M  V30 18 O -2.026860 -3.327025 -3.108332 0
M  V30 19 N -3.635390 -4.062121 -1.712528 0
M  V30 20 C -4.467528 -5.013566 -2.340393 0
M  V30 21 C -5.623805 -4.838873 -3.062065 0
M  V30 22 C -6.290616 -5.916601 -3.591994 0
M  V30 23 C -5.799972 -7.175663 -3.400103 0
M  V30 24 C -4.633017 -7.436433 -2.679366 0
M  V30 25 Cl -4.038092 -9.061092 -2.455303 0
M  V30 26 C -3.980529 -6.312555 -2.154281 0
M  V30 27 C -3.578321 -1.284617 0.267030 0
M  V30 28 C -3.383345 0.056274 -0.415496 0
M  V30 29 C -1.717100 2.190624 -1.870099 0
M  V30 30 Cl -3.262311 1.948040 -2.625151 0
M  V30 31 C -0.958773 3.131544 -2.577263 0
M  V30 32 N 0.273489 3.436311 -2.081647 0
M  V30 33 C 0.695873 2.840048 -0.972891 0
M  V30 34 N 1.871880 2.997101 -0.343653 0
M  V30 35 C 4.094786 2.629417 1.695245 0
M  V30 36 C 5.103021 2.418603 2.648951 0
M  V30 37 H 6.528535 -0.516007 5.530866 0
M  V30 38 H 6.381117 0.858183 6.620320 0
M  V30 39 H 4.898286 -0.010592 5.958162 0
M  V30 40 H 7.491171 2.018847 3.450597 0
M  V30 41 H 7.148323 3.075621 4.878074 0
M  V30 42 H 8.062741 1.483487 5.032746 0
M  V30 43 H 3.529912 0.127713 4.478648 0
M  V30 44 H 1.787304 0.478569 2.854778 0
M  V30 45 H -2.653869 0.146993 1.983141 0
M  V30 46 H -0.982674 0.581930 1.781872 0
M  V30 47 H -0.398024 -1.332455 0.467708 0
M  V30 48 H -1.164156 -1.905617 1.957157 0
M  V30 49 H -0.776277 -2.635095 -0.968322 0
M  V30 50 H -1.804579 -1.299460 -1.516547 0
M  V30 51 H -4.070881 -4.052146 -0.768566 0
M  V30 52 H -5.917639 -3.816639 -3.152932 0
M  V30 53 H -7.203938 -5.722404 -4.156680 0
M  V30 54 H -6.309134 -8.045651 -3.807426 0
M  V30 55 H -3.084139 -6.577865 -1.608134 0
M  V30 56 H -4.421850 -1.845317 -0.232985 0
M  V30 57 H -3.912281 -1.202649 1.315726 0
M  V30 58 H -4.241881 0.679036 -0.036234 0
M  V30 59 H -3.492350 -0.174220 -1.499584 0
M  V30 60 H -1.248471 3.642443 -3.475824 0
M  V30 61 H 2.691682 3.600697 -0.557021 0
M  V30 62 H 4.257212 3.354855 0.885985 0
M  V30 63 H 5.994368 3.007664 2.514988 0
M  V30 END ATOM
M  V30 BEGIN BOND
M  V30 1 1 1 2
M  V30 2 1 2 3
M  V30 3 1 2 4
M  V30 4 2 4 5
M  V30 5 1 5 6
M  V30 6 2 6 7
M  V30 7 1 7 8
M  V30 8 2 8 9
M  V30 9 1 9 10
M  V30 10 2 10 11
M  V30 11 1 11 12
M  V30 12 1 12 13
M  V30 13 1 13 14
M  V30 14 1 14 15
M  V30 15 1 15 16
M  V30 16 1 16 17
M  V30 17 2 17 18
M  V30 18 1 17 19
M  V30 19 1 19 20
M  V30 20 2 20 21
M  V30 21 1 21 22
M  V30 22 2 22 23
M  V30 23 1 23 24
M  V30 24 1 24 25
M  V30 25 2 24 26
M  V30 26 1 15 27
M  V30 27 1 27 28
M  V30 28 1 11 29
M  V30 29 1 29 30
M  V30 30 2 29 31
M  V30 31 1 31 32
M  V30 32 2 32 33
M  V30 33 1 33 34
M  V30 34 1 7 35
M  V30 35 2 35 36
M  V30 36 1 36 4
M  V30 37 1 34 8
M  V30 38 1 33 10
M  V30 39 1 28 12
M  V30 40 1 26 20
M  V30 41 1 1 37
M  V30 42 1 1 38
M  V30 43 1 1 39
M  V30 44 1 3 40
M  V30 45 1 3 41
M  V30 46 1 3 42
M  V30 47 1 5 43
M  V30 48 1 6 44
M  V30 49 1 13 45
M  V30 50 1 13 46
M  V30 51 1 14 47
M  V30 52 1 14 48
M  V30 53 1 16 49
M  V30 54 1 16 50
M  V30 55 1 19 51
M  V30 56 1 21 52
M  V30 57 1 22 53
M  V30 58 1 23 54
M  V30 59 1 26 55
M  V30 60 1 27 56
M  V30 61 1 27 57
M  V30 62 1 28 58
M  V30 63 1 28 59
M  V30 64 1 31 60
M  V30 65 1 34 61
M  V30 66 1 35 62
M  V30 67 1 36 63
M  V30 END BOND
M  V30 END CTAB
M  END
>  <Dataset>  (696) 
ChEMBL_Kinases

>  <Ligand_Instance>  (696) 
nan

>  <PDB_ID>  (696) 
nan

>  <Standardized_SMILES>  (696) 
CN(C)c1ccc(-c2nc3c(N4CCN(CC(=O)Nc5cccc(Cl)c5)CC4)c(Cl)cnc3[nH]2)cc1

>  <Name>  (696) 
nan

>  <Pocket>  (696) 
nan

>  <ATP_Site>  (696) 
nan

>  <Peripheral>  (696) 
nan

>  <Num_H_Atoms_ProtBoundConf>  (696) 
nan

>  <Num_Resolved_Atoms>  (696) 
nan

>  <Num_Not_Resolved_Atoms>  (696) 
nan

$$$$
CHEMBL1086581
     RDKit          3D

  0  0  0  0  0  0  0  0  0  0999 V3000
M  V30 BEGIN CTAB
M  V30 COUNTS 61 65 0 0 0
M  V30 BEGIN ATOM
M  V30 1 C 2.303860 -0.500286 0.502365 0
M  V30 2 C 2.460289 -0.227306 1.985562 0
M  V30 3 C 3.870267 -0.202918 2.433567 0
M  V30 4 C 4.488043 -1.400602 2.833968 0
M  V30 5 C 5.780948 -1.539210 3.274425 0
M  V30 6 N 6.543770 -0.435421 3.335184 0
M  V30 7 C 6.029484 0.762866 2.968179 0
M  V30 8 C 4.728074 0.870762 2.530103 0
M  V30 9 N 1.628143 0.810778 2.472360 0
M  V30 10 C 1.741086 2.023216 1.765718 0
M  V30 11 C 0.494748 2.586862 1.165518 0
M  V30 12 N -0.697617 2.193537 1.874341 0
M  V30 13 C -1.960477 2.426636 1.213866 0
M  V30 14 C -2.718830 3.576202 1.316237 0
M  V30 15 Br -2.044629 4.955073 2.410223 0
M  V30 16 C -3.907491 3.631409 0.613712 0
M  V30 17 N -4.332108 2.594923 -0.159112 0
M  V30 18 C -3.585585 1.462724 -0.260346 0
M  V30 19 N -3.772231 0.314229 -0.942079 0
M  V30 20 C -2.718352 -0.479894 -0.687005 0
M  V30 21 C -2.532384 -1.833345 -1.238930 0
M  V30 22 C -3.485776 -2.365888 -2.083276 0
M  V30 23 C -3.246723 -3.656459 -2.572272 0
M  V30 24 C -2.124524 -4.399122 -2.252104 0
M  V30 25 N -1.946527 -5.704973 -2.784995 0
M  V30 26 C -2.957829 -6.252171 -3.669677 0
M  V30 27 C -0.758778 -6.458916 -2.431610 0
M  V30 28 C -1.184309 -3.846776 -1.406220 0
M  V30 29 C -1.408883 -2.566310 -0.913368 0
M  V30 30 N -1.856635 0.132728 0.144680 0
M  V30 31 C -2.375221 1.362798 0.433544 0
M  V30 32 C -0.580909 1.591119 3.190105 0
M  V30 33 C 0.380077 0.422550 2.998254 0
M  V30 34 H 1.228788 -0.456959 0.283463 0
M  V30 35 H 2.916731 0.137996 -0.141510 0
M  V30 36 H 2.635262 -1.547097 0.320736 0
M  V30 37 H 2.016879 -1.181904 2.453144 0
M  V30 38 H 3.886081 -2.308093 2.792209 0
M  V30 39 H 6.148499 -2.515719 3.556677 0
M  V30 40 H 6.645339 1.635773 3.019654 0
M  V30 41 H 4.349714 1.832588 2.247903 0
M  V30 42 H 2.425758 1.831049 0.889920 0
M  V30 43 H 2.177097 2.784555 2.470889 0
M  V30 44 H 0.414426 2.407423 0.072179 0
M  V30 45 H 0.540222 3.701674 1.256599 0
M  V30 46 H -4.483624 4.543005 0.710276 0
M  V30 47 H -4.598403 0.092353 -1.558711 0
M  V30 48 H -4.366551 -1.808575 -2.347238 0
M  V30 49 H -3.977731 -4.084158 -3.229122 0
M  V30 50 H -2.578322 -7.208488 -4.074665 0
M  V30 51 H -3.233339 -5.588564 -4.499113 0
M  V30 52 H -3.892579 -6.515758 -3.094071 0
M  V30 53 H 0.131416 -5.791312 -2.570361 0
M  V30 54 H -0.594760 -7.310412 -3.107041 0
M  V30 55 H -0.743716 -6.754837 -1.349929 0
M  V30 56 H -0.288081 -4.400900 -1.131372 0
M  V30 57 H -0.668232 -2.144422 -0.253770 0
M  V30 58 H -1.544534 1.196632 3.528829 0
M  V30 59 H -0.137496 2.339129 3.864840 0
M  V30 60 H 0.424418 -0.114837 3.967028 0
M  V30 61 H -0.114047 -0.279572 2.297068 0
M  V30 END ATOM
M  V30 BEGIN BOND
M  V30 1 1 1 2
M  V30 2 1 2 3
M  V30 3 2 3 4
M  V30 4 1 4 5
M  V30 5 2 5 6
M  V30 6 1 6 7
M  V30 7 2 7 8
M  V30 8 1 2 9
M  V30 9 1 9 10
M  V30 10 1 10 11
M  V30 11 1 11 12
M  V30 12 1 12 13
M  V30 13 2 13 14
M  V30 14 1 14 15
M  V30 15 1 14 16
M  V30 16 2 16 17
M  V30 17 1 17 18
M  V30 18 1 18 19
M  V30 19 1 19 20
M  V30 20 1 20 21
M  V30 21 2 21 22
M  V30 22 1 22 23
M  V30 23 2 23 24
M  V30 24 1 24 25
M  V30 25 1 25 26
M  V30 26 1 25 27
M  V30 27 1 24 28
M  V30 28 2 28 29
M  V30 29 2 20 30
M  V30 30 1 30 31
M  V30 31 1 12 32
M  V30 32 1 32 33
M  V30 33 1 8 3
M  V30 34 1 33 9
M  V30 35 1 31 13
M  V30 36 2 31 18
M  V30 37 1 29 21
M  V30 38 1 1 34
M  V30 39 1 1 35
M  V30 40 1 1 36
M  V30 41 1 2 37
M  V30 42 1 4 38
M  V30 43 1 5 39
M  V30 44 1 7 40
M  V30 45 1 8 41
M  V30 46 1 10 42
M  V30 47 1 10 43
M  V30 48 1 11 44
M  V30 49 1 11 45
M  V30 50 1 16 46
M  V30 51 1 19 47
M  V30 52 1 22 48
M  V30 53 1 23 49
M  V30 54 1 26 50
M  V30 55 1 26 51
M  V30 56 1 26 52
M  V30 57 1 27 53
M  V30 58 1 27 54
M  V30 59 1 27 55
M  V30 60 1 28 56
M  V30 61 1 29 57
M  V30 62 1 32 58
M  V30 63 1 32 59
M  V30 64 1 33 60
M  V30 65 1 33 61
M  V30 END BOND
M  V30 END CTAB
M  END
>  <Dataset>  (697) 
ChEMBL_Kinases

>  <Ligand_Instance>  (697) 
nan

>  <PDB_ID>  (697) 
nan

>  <Standardized_SMILES>  (697) 
CC(c1ccncc1)N1CCN(c2c(Br)cnc3[nH]c(-c4ccc(N(C)C)cc4)nc23)CC1

>  <Name>  (697) 
nan

>  <Pocket>  (697) 
nan

>  <ATP_Site>  (697) 
nan

>  <Peripheral>  (697) 
nan

>  <Num_H_Atoms_ProtBoundConf>  (697) 
nan

>  <Num_Resolved_Atoms>  (697) 
nan

>  <Num_Not_Resolved_Atoms>  (697) 
nan

$$$$
CHEMBL1086582
     RDKit          3D

  0  0  0  0  0  0  0  0  0  0999 V3000
M  V30 BEGIN CTAB
M  V30 COUNTS 57 61 0 0 0
M  V30 BEGIN ATOM
M  V30 1 C 0.099445 -0.793520 5.364674 0
M  V30 2 C 0.656944 -1.537705 4.204589 0
M  V30 3 C 1.980755 -1.647532 3.829338 0
M  V30 4 C 2.092178 -2.434786 2.681122 0
M  V30 5 C 3.315010 -2.794752 1.962374 0
M  V30 6 N 3.740861 -1.922849 0.937343 0
M  V30 7 C 4.037263 -0.571716 1.343585 0
M  V30 8 C 3.807352 0.344113 0.145990 0
M  V30 9 N 2.426943 0.454201 -0.188497 0
M  V30 10 C 1.415841 1.445599 -0.314003 0
M  V30 11 C 1.657895 2.778744 -0.062254 0
M  V30 12 Cl 3.205173 3.410634 0.437056 0
M  V30 13 C 0.726387 3.790911 -0.167149 0
M  V30 14 N -0.529123 3.444786 -0.549298 0
M  V30 15 C -0.779662 2.156905 -0.797021 0
M  V30 16 N -1.943956 1.614424 -1.186394 0
M  V30 17 C -1.760327 0.293893 -1.325855 0
M  V30 18 N -2.735175 -0.658713 -1.722319 0
M  V30 19 C -4.098774 -0.334201 -2.018190 0
M  V30 20 C -5.083379 -1.249751 -1.319177 0
M  V30 21 N -4.634236 -2.607203 -1.280955 0
M  V30 22 C -4.148069 -3.015515 0.022984 0
M  V30 23 C -3.636759 -2.799161 -2.307496 0
M  V30 24 C -2.383960 -2.069835 -1.859142 0
M  V30 25 N -0.494442 0.011575 -1.027244 0
M  V30 26 C 0.131576 1.136005 -0.698823 0
M  V30 27 C 1.991260 -0.870001 -0.460258 0
M  V30 28 C 3.014845 -1.965955 -0.303060 0
M  V30 29 N 0.807178 -2.746803 2.445394 0
M  V30 30 O 0.008472 -2.230176 3.317980 0
M  V30 31 H -0.102600 0.263030 5.076805 0
M  V30 32 H -0.858270 -1.237043 5.694879 0
M  V30 33 H 0.826834 -0.787947 6.219928 0
M  V30 34 H 2.796044 -1.172424 4.377458 0
M  V30 35 H 4.168423 -2.919309 2.687200 0
M  V30 36 H 3.186884 -3.809315 1.505922 0
M  V30 37 H 5.082822 -0.537893 1.692114 0
M  V30 38 H 3.360223 -0.267180 2.135459 0
M  V30 39 H 4.417878 -0.037053 -0.709082 0
M  V30 40 H 4.263151 1.300756 0.429610 0
M  V30 41 H 0.876758 4.830977 0.019072 0
M  V30 42 H -2.837712 2.084371 -1.358015 0
M  V30 43 H -4.228257 -0.303446 -3.109912 0
M  V30 44 H -4.322589 0.698164 -1.638217 0
M  V30 45 H -5.359498 -0.855268 -0.310423 0
M  V30 46 H -6.026914 -1.212201 -1.902241 0
M  V30 47 H -3.462330 -3.880565 -0.162796 0
M  V30 48 H -4.989120 -3.332007 0.646742 0
M  V30 49 H -3.574151 -2.246187 0.557221 0
M  V30 50 H -3.448897 -3.877868 -2.474308 0
M  V30 51 H -3.994033 -2.326931 -3.242497 0
M  V30 52 H -1.638614 -2.165237 -2.679731 0
M  V30 53 H -1.971304 -2.507285 -0.942810 0
M  V30 54 H 1.115991 -1.128261 0.187624 0
M  V30 55 H 1.612155 -0.877814 -1.517220 0
M  V30 56 H 2.540485 -2.971946 -0.468120 0
M  V30 57 H 3.741137 -1.869481 -1.128865 0
M  V30 END ATOM
M  V30 BEGIN BOND
M  V30 1 1 1 2
M  V30 2 2 2 3
M  V30 3 1 3 4
M  V30 4 1 4 5
M  V30 5 1 5 6
M  V30 6 1 6 7
M  V30 7 1 7 8
M  V30 8 1 8 9
M  V30 9 1 9 10
M  V30 10 2 10 11
M  V30 11 1 11 12
M  V30 12 1 11 13
M  V30 13 2 13 14
M  V30 14 1 14 15
M  V30 15 1 15 16
M  V30 16 1 16 17
M  V30 17 1 17 18
M  V30 18 1 18 19
M  V30 19 1 19 20
M  V30 20 1 20 21
M  V30 21 1 21 22
M  V30 22 1 21 23
M  V30 23 1 23 24
M  V30 24 2 17 25
M  V30 25 1 25 26
M  V30 26 1 9 27
M  V30 27 1 27 28
M  V30 28 2 4 29
M  V30 29 1 29 30
M  V30 30 1 30 2
M  V30 31 1 28 6
M  V30 32 1 26 10
M  V30 33 2 26 15
M  V30 34 1 24 18
M  V30 35 1 1 31
M  V30 36 1 1 32
M  V30 37 1 1 33
M  V30 38 1 3 34
M  V30 39 1 5 35
M  V30 40 1 5 36
M  V30 41 1 7 37
M  V30 42 1 7 38
M  V30 43 1 8 39
M  V30 44 1 8 40
M  V30 45 1 13 41
M  V30 46 1 16 42
M  V30 47 1 19 43
M  V30 48 1 19 44
M  V30 49 1 20 45
M  V30 50 1 20 46
M  V30 51 1 22 47
M  V30 52 1 22 48
M  V30 53 1 22 49
M  V30 54 1 23 50
M  V30 55 1 23 51
M  V30 56 1 24 52
M  V30 57 1 24 53
M  V30 58 1 27 54
M  V30 59 1 27 55
M  V30 60 1 28 56
M  V30 61 1 28 57
M  V30 END BOND
M  V30 END CTAB
M  END
>  <Dataset>  (698) 
ChEMBL_Kinases

>  <Ligand_Instance>  (698) 
nan

>  <PDB_ID>  (698) 
nan

>  <Standardized_SMILES>  (698) 
Cc1cc(CN2CCN(c3c(Cl)cnc4[nH]c(N5CCN(C)CC5)nc34)CC2)no1

>  <Name>  (698) 
nan

>  <Pocket>  (698) 
nan

>  <ATP_Site>  (698) 
nan

>  <Peripheral>  (698) 
nan

>  <Num_H_Atoms_ProtBoundConf>  (698) 
nan

>  <Num_Resolved_Atoms>  (698) 
nan

>  <Num_Not_Resolved_Atoms>  (698) 
nan

$$$$
CHEMBL1086583
     RDKit          3D

  0  0  0  0  0  0  0  0  0  0999 V3000
M  V30 BEGIN CTAB
M  V30 COUNTS 64 69 0 0 0
M  V30 BEGIN ATOM
M  V30 1 C 4.358681 -2.063660 4.422537 0
M  V30 2 C 4.604019 -1.404403 3.117451 0
M  V30 3 C 3.907934 -0.345048 2.550980 0
M  V30 4 C 4.487899 -0.058384 1.319045 0
M  V30 5 C 4.096614 0.988051 0.341878 0
M  V30 6 N 3.137144 0.572781 -0.628433 0
M  V30 7 C 2.865310 1.689657 -1.502113 0
M  V30 8 C 1.884678 2.692151 -0.897597 0
M  V30 9 N 0.684585 2.028377 -0.435179 0
M  V30 10 C -0.374940 2.635507 0.270515 0
M  V30 11 C -0.395622 3.956741 0.581198 0
M  V30 12 Br 0.980001 5.173062 0.089797 0
M  V30 13 C -1.399632 4.596432 1.277930 0
M  V30 14 N -2.466739 3.847684 1.694511 0
M  V30 15 C -2.481558 2.531387 1.404258 0
M  V30 16 N -3.437109 1.670062 1.735803 0
M  V30 17 C -3.050529 0.487680 1.256622 0
M  V30 18 N -3.554991 -0.837183 1.235718 0
M  V30 19 C -4.414837 -1.393084 0.208706 0
M  V30 20 C -3.666086 -2.471510 -0.491054 0
M  V30 21 N -2.830728 -3.299646 0.267348 0
M  V30 22 C -2.760376 -4.671571 -0.153822 0
M  V30 23 N -2.255078 -4.670863 -1.534510 0
M  V30 24 C -0.988285 -4.729470 -1.997789 0
M  V30 25 C -0.999383 -4.701182 -3.373313 0
M  V30 26 C -2.334619 -4.622205 -3.739071 0
M  V30 27 N -3.037201 -4.607651 -2.590529 0
M  V30 28 C -2.688033 -3.098299 1.658659 0
M  V30 29 C -3.307164 -1.863940 2.221459 0
M  V30 30 N -1.874735 0.664318 0.649562 0
M  V30 31 C -1.463208 1.915437 0.705140 0
M  V30 32 C 0.743595 0.639320 -0.823010 0
M  V30 33 C 1.921709 0.042599 -0.037944 0
M  V30 34 N 5.494290 -0.948927 1.203913 0
M  V30 35 O 5.546279 -1.707594 2.236441 0
M  V30 36 H 3.345484 -2.487347 4.523210 0
M  V30 37 H 5.169970 -2.791611 4.599886 0
M  V30 38 H 4.426997 -1.295943 5.243630 0
M  V30 39 H 3.063760 0.160980 2.999084 0
M  V30 40 H 5.036940 1.227480 -0.231272 0
M  V30 41 H 3.856635 1.921894 0.884275 0
M  V30 42 H 2.647534 1.429588 -2.545700 0
M  V30 43 H 3.846618 2.257255 -1.568583 0
M  V30 44 H 2.474247 3.108852 -0.026217 0
M  V30 45 H 1.708002 3.451090 -1.679012 0
M  V30 46 H -1.451741 5.642693 1.543853 0
M  V30 47 H -4.333343 1.739030 2.244492 0
M  V30 48 H -4.675747 -0.614328 -0.552162 0
M  V30 49 H -5.338503 -1.802924 0.679201 0
M  V30 50 H -3.112585 -2.037985 -1.374783 0
M  V30 51 H -4.449232 -3.132220 -0.968761 0
M  V30 52 H -3.720855 -5.196699 -0.152720 0
M  V30 53 H -1.961692 -5.188786 0.427654 0
M  V30 54 H -0.122426 -4.788748 -1.354353 0
M  V30 55 H -0.170167 -4.731777 -4.064575 0
M  V30 56 H -2.770504 -4.578606 -4.740852 0
M  V30 57 H -3.114366 -3.975635 2.190630 0
M  V30 58 H -1.598866 -3.099605 1.887547 0
M  V30 59 H -2.655621 -1.419160 3.006751 0
M  V30 60 H -4.280440 -2.074994 2.715837 0
M  V30 61 H -0.158294 0.057702 -0.699657 0
M  V30 62 H 0.949846 0.581817 -1.937737 0
M  V30 63 H 1.854507 -1.038661 -0.136333 0
M  V30 64 H 1.812423 0.454638 0.975272 0
M  V30 END ATOM
M  V30 BEGIN BOND
M  V30 1 1 1 2
M  V30 2 2 2 3
M  V30 3 1 3 4
M  V30 4 1 4 5
M  V30 5 1 5 6
M  V30 6 1 6 7
M  V30 7 1 7 8
M  V30 8 1 8 9
M  V30 9 1 9 10
M  V30 10 2 10 11
M  V30 11 1 11 12
M  V30 12 1 11 13
M  V30 13 2 13 14
M  V30 14 1 14 15
M  V30 15 1 15 16
M  V30 16 1 16 17
M  V30 17 1 17 18
M  V30 18 1 18 19
M  V30 19 1 19 20
M  V30 20 1 20 21
M  V30 21 1 21 22
M  V30 22 1 22 23
M  V30 23 1 23 24
M  V30 24 2 24 25
M  V30 25 1 25 26
M  V30 26 2 26 27
M  V30 27 1 21 28
M  V30 28 1 28 29
M  V30 29 2 17 30
M  V30 30 1 30 31
M  V30 31 1 9 32
M  V30 32 1 32 33
M  V30 33 2 4 34
M  V30 34 1 34 35
M  V30 35 1 35 2
M  V30 36 1 33 6
M  V30 37 1 31 10
M  V30 38 2 31 15
M  V30 39 1 29 18
M  V30 40 1 27 23
M  V30 41 1 1 36
M  V30 42 1 1 37
M  V30 43 1 1 38
M  V30 44 1 3 39
M  V30 45 1 5 40
M  V30 46 1 5 41
M  V30 47 1 7 42
M  V30 48 1 7 43
M  V30 49 1 8 44
M  V30 50 1 8 45
M  V30 51 1 13 46
M  V30 52 1 16 47
M  V30 53 1 19 48
M  V30 54 1 19 49
M  V30 55 1 20 50
M  V30 56 1 20 51
M  V30 57 1 22 52
M  V30 58 1 22 53
M  V30 59 1 24 54
M  V30 60 1 25 55
M  V30 61 1 26 56
M  V30 62 1 28 57
M  V30 63 1 28 58
M  V30 64 1 29 59
M  V30 65 1 29 60
M  V30 66 1 32 61
M  V30 67 1 32 62
M  V30 68 1 33 63
M  V30 69 1 33 64
M  V30 END BOND
M  V30 END CTAB
M  END
>  <Dataset>  (699) 
ChEMBL_Kinases

>  <Ligand_Instance>  (699) 
nan

>  <PDB_ID>  (699) 
nan

>  <Standardized_SMILES>  (699) 
Cc1cc(CN2CCN(c3c(Br)cnc4[nH]c(N5CCN(Cn6cccn6)CC5)nc34)CC2)no1

>  <Name>  (699) 
nan

>  <Pocket>  (699) 
nan

>  <ATP_Site>  (699) 
nan

>  <Peripheral>  (699) 
nan

>  <Num_H_Atoms_ProtBoundConf>  (699) 
nan

>  <Num_Resolved_Atoms>  (699) 
nan

>  <Num_Not_Resolved_Atoms>  (699) 
nan

$$$$
CHEMBL1086584
     RDKit          3D

  0  0  0  0  0  0  0  0  0  0999 V3000
M  V30 BEGIN CTAB
M  V30 COUNTS 64 69 0 0 0
M  V30 BEGIN ATOM
M  V30 1 C 5.482354 -3.078218 3.751168 0
M  V30 2 C 4.838448 -1.906530 3.123008 0
M  V30 3 C 5.050134 -1.225509 1.949755 0
M  V30 4 C 4.155597 -0.191797 1.845877 0
M  V30 5 C 4.009219 0.800273 0.763996 0
M  V30 6 N 3.100278 0.382869 -0.268560 0
M  V30 7 C 3.017402 1.413941 -1.258654 0
M  V30 8 C 2.025023 2.519610 -0.858846 0
M  V30 9 N 0.751679 1.953502 -0.449072 0
M  V30 10 C -0.316142 2.688979 0.105839 0
M  V30 11 C -0.250763 4.046944 0.294268 0
M  V30 12 Cl 1.135742 5.011767 -0.149874 0
M  V30 13 C -1.265566 4.796806 0.845492 0
M  V30 14 N -2.414468 4.172579 1.234621 0
M  V30 15 C -2.499733 2.830990 1.056928 0
M  V30 16 N -3.543258 2.068206 1.380094 0
M  V30 17 C -3.211893 0.810523 1.039098 0
M  V30 18 N -3.823621 -0.473303 1.101741 0
M  V30 19 C -4.721128 -1.114705 0.161671 0
M  V30 20 C -4.024245 -2.278844 -0.436848 0
M  V30 21 N -3.103190 -2.983524 0.359586 0
M  V30 22 C -2.858481 -4.336676 -0.010286 0
M  V30 23 N -2.336276 -4.420871 -1.381678 0
M  V30 24 C -1.107211 -4.402386 -1.900882 0
M  V30 25 C -1.158084 -4.514218 -3.264251 0
M  V30 26 C -2.511014 -4.604562 -3.566244 0
M  V30 27 N -3.176977 -4.544012 -2.404794 0
M  V30 28 C -2.995114 -2.693998 1.738811 0
M  V30 29 C -3.630294 -1.413750 2.185211 0
M  V30 30 N -1.975466 0.870967 0.521947 0
M  V30 31 C -1.477688 2.093607 0.504701 0
M  V30 32 C 0.767347 0.534227 -0.707219 0
M  V30 33 C 1.824057 -0.048579 0.238592 0
M  V30 34 N 3.418162 -0.284271 2.982074 0
M  V30 35 O 3.825433 -1.266281 3.691026 0
M  V30 36 H 4.797774 -3.950781 3.868153 0
M  V30 37 H 6.350261 -3.435821 3.160078 0
M  V30 38 H 5.832672 -2.806782 4.763469 0
M  V30 39 H 5.820474 -1.507023 1.251402 0
M  V30 40 H 4.987039 1.032695 0.307385 0
M  V30 41 H 3.648048 1.741827 1.243762 0
M  V30 42 H 2.894956 1.083080 -2.295324 0
M  V30 43 H 4.024577 1.935545 -1.262872 0
M  V30 44 H 2.534578 2.963931 0.049789 0
M  V30 45 H 1.970233 3.213238 -1.695884 0
M  V30 46 H -1.241601 5.865076 1.005017 0
M  V30 47 H -4.473744 2.235932 1.803063 0
M  V30 48 H -4.955630 -0.407169 -0.687352 0
M  V30 49 H -5.674414 -1.410284 0.654120 0
M  V30 50 H -3.545322 -2.013610 -1.416234 0
M  V30 51 H -4.828316 -3.012546 -0.739313 0
M  V30 52 H -3.697341 -5.023171 0.092632 0
M  V30 53 H -2.007403 -4.709141 0.626322 0
M  V30 54 H -0.234962 -4.308646 -1.267829 0
M  V30 55 H -0.341183 -4.529776 -3.953210 0
M  V30 56 H -2.862356 -4.703762 -4.590338 0
M  V30 57 H -3.452864 -3.518307 2.324214 0
M  V30 58 H -1.918173 -2.675852 2.017283 0
M  V30 59 H -3.002201 -0.910583 2.952984 0
M  V30 60 H -4.612384 -1.576170 2.673656 0
M  V30 61 H 1.090658 0.360573 -1.779956 0
M  V30 62 H -0.176362 0.011960 -0.638137 0
M  V30 63 H 1.670509 -1.144593 0.216862 0
M  V30 64 H 1.612678 0.401024 1.231677 0
M  V30 END ATOM
M  V30 BEGIN BOND
M  V30 1 1 1 2
M  V30 2 2 2 3
M  V30 3 1 3 4
M  V30 4 1 4 5
M  V30 5 1 5 6
M  V30 6 1 6 7
M  V30 7 1 7 8
M  V30 8 1 8 9
M  V30 9 1 9 10
M  V30 10 2 10 11
M  V30 11 1 11 12
M  V30 12 1 11 13
M  V30 13 2 13 14
M  V30 14 1 14 15
M  V30 15 1 15 16
M  V30 16 1 16 17
M  V30 17 1 17 18
M  V30 18 1 18 19
M  V30 19 1 19 20
M  V30 20 1 20 21
M  V30 21 1 21 22
M  V30 22 1 22 23
M  V30 23 1 23 24
M  V30 24 2 24 25
M  V30 25 1 25 26
M  V30 26 2 26 27
M  V30 27 1 21 28
M  V30 28 1 28 29
M  V30 29 2 17 30
M  V30 30 1 30 31
M  V30 31 1 9 32
M  V30 32 1 32 33
M  V30 33 2 4 34
M  V30 34 1 34 35
M  V30 35 1 35 2
M  V30 36 1 33 6
M  V30 37 1 31 10
M  V30 38 2 31 15
M  V30 39 1 29 18
M  V30 40 1 27 23
M  V30 41 1 1 36
M  V30 42 1 1 37
M  V30 43 1 1 38
M  V30 44 1 3 39
M  V30 45 1 5 40
M  V30 46 1 5 41
M  V30 47 1 7 42
M  V30 48 1 7 43
M  V30 49 1 8 44
M  V30 50 1 8 45
M  V30 51 1 13 46
M  V30 52 1 16 47
M  V30 53 1 19 48
M  V30 54 1 19 49
M  V30 55 1 20 50
M  V30 56 1 20 51
M  V30 57 1 22 52
M  V30 58 1 22 53
M  V30 59 1 24 54
M  V30 60 1 25 55
M  V30 61 1 26 56
M  V30 62 1 28 57
M  V30 63 1 28 58
M  V30 64 1 29 59
M  V30 65 1 29 60
M  V30 66 1 32 61
M  V30 67 1 32 62
M  V30 68 1 33 63
M  V30 69 1 33 64
M  V30 END BOND
M  V30 END CTAB
M  END
>  <Dataset>  (700) 
ChEMBL_Kinases

>  <Ligand_Instance>  (700) 
nan

>  <PDB_ID>  (700) 
nan

>  <Standardized_SMILES>  (700) 
Cc1cc(CN2CCN(c3c(Cl)cnc4[nH]c(N5CCN(Cn6cccn6)CC5)nc34)CC2)no1

>  <Name>  (700) 
nan

>  <Pocket>  (700) 
nan

>  <ATP_Site>  (700) 
nan

>  <Peripheral>  (700) 
nan

>  <Num_H_Atoms_ProtBoundConf>  (700) 
nan

>  <Num_Resolved_Atoms>  (700) 
nan

>  <Num_Not_Resolved_Atoms>  (700) 
nan

$$$$
CHEMBL1086427
     RDKit          3D

  0  0  0  0  0  0  0  0  0  0999 V3000
M  V30 BEGIN CTAB
M  V30 COUNTS 38 40 0 0 0
M  V30 BEGIN ATOM
M  V30 1 C 3.113369 -6.121230 2.290377 0
M  V30 2 C 3.661895 -4.780290 1.786701 0
M  V30 3 C 2.470290 -3.877353 1.599231 0
M  V30 4 C 2.850929 -2.513770 1.104255 0
M  V30 5 O 3.989499 -2.046882 0.836977 0
M  V30 6 N 1.719574 -1.663447 0.928353 0
M  V30 7 C 1.975700 -0.325320 0.454015 0
M  V30 8 N 3.158801 0.238285 0.149996 0
M  V30 9 N 2.989237 1.482947 -0.251650 0
M  V30 10 C 1.685794 1.814941 -0.236801 0
M  V30 11 C 0.978221 2.942709 -0.547023 0
M  V30 12 F 1.694210 4.002833 -0.972533 0
M  V30 13 C -0.394485 2.959159 -0.419461 0
M  V30 14 Cl -1.261524 4.411577 -0.823244 0
M  V30 15 C -1.073857 1.853280 0.017873 0
M  V30 16 C -2.524456 1.815631 0.171171 0
M  V30 17 C -3.390693 2.314970 -0.783176 0
M  V30 18 C -4.775399 2.278581 -0.635949 0
M  V30 19 C -5.269717 1.713325 0.523514 0
M  V30 20 C -4.475542 1.192486 1.524823 0
M  V30 21 C -3.114143 1.270802 1.294809 0
M  V30 22 C -0.343069 0.702345 0.333622 0
M  V30 23 C 1.050105 0.669558 0.209568 0
M  V30 24 H 2.375001 -5.969993 3.091622 0
M  V30 25 H 3.927222 -6.757074 2.710375 0
M  V30 26 H 2.643309 -6.700601 1.470893 0
M  V30 27 H 4.210919 -4.924180 0.856272 0
M  V30 28 H 4.311078 -4.378647 2.575078 0
M  V30 29 H 1.949155 -3.731555 2.556955 0
M  V30 30 H 1.764045 -4.382040 0.908523 0
M  V30 31 H 0.741041 -1.923830 1.110733 0
M  V30 32 H 3.775150 2.120038 -0.541849 0
M  V30 33 H -3.000081 2.757076 -1.690261 0
M  V30 34 H -5.453067 2.672159 -1.388440 0
M  V30 35 H -6.348717 1.651229 0.705873 0
M  V30 36 H -4.885423 0.756592 2.420476 0
M  V30 37 H -2.433398 0.875334 2.050903 0
M  V30 38 H -0.816252 -0.220781 0.689579 0
M  V30 END ATOM
M  V30 BEGIN BOND
M  V30 1 1 1 2
M  V30 2 1 2 3
M  V30 3 1 3 4
M  V30 4 2 4 5
M  V30 5 1 4 6
M  V30 6 1 6 7
M  V30 7 2 7 8
M  V30 8 1 8 9
M  V30 9 1 9 10
M  V30 10 2 10 11
M  V30 11 1 11 12
M  V30 12 1 11 13
M  V30 13 1 13 14
M  V30 14 2 13 15
M  V30 15 1 15 16
M  V30 16 2 16 17
M  V30 17 1 17 18
M  V30 18 2 18 19
M  V30 19 1 19 20
M  V30 20 2 20 21
M  V30 21 1 15 22
M  V30 22 2 22 23
M  V30 23 1 23 7
M  V30 24 1 23 10
M  V30 25 1 21 16
M  V30 26 1 1 24
M  V30 27 1 1 25
M  V30 28 1 1 26
M  V30 29 1 2 27
M  V30 30 1 2 28
M  V30 31 1 3 29
M  V30 32 1 3 30
M  V30 33 1 6 31
M  V30 34 1 9 32
M  V30 35 1 17 33
M  V30 36 1 18 34
M  V30 37 1 19 35
M  V30 38 1 20 36
M  V30 39 1 21 37
M  V30 40 1 22 38
M  V30 END BOND
M  V30 END CTAB
M  END
>  <Dataset>  (701) 
ChEMBL_Kinases

>  <Ligand_Instance>  (701) 
nan

>  <PDB_ID>  (701) 
nan

>  <Standardized_SMILES>  (701) 
CCCC(=O)Nc1n[nH]c2c(F)c(Cl)c(-c3ccccc3)cc12

>  <Name>  (701) 
nan

>  <Pocket>  (701) 
nan

>  <ATP_Site>  (701) 
nan

>  <Peripheral>  (701) 
nan

>  <Num_H_Atoms_ProtBoundConf>  (701) 
nan

>  <Num_Resolved_Atoms>  (701) 
nan

>  <Num_Not_Resolved_Atoms>  (701) 
nan

$$$$
CHEMBL1313565
     RDKit          3D

  0  0  0  0  0  0  0  0  0  0999 V3000
M  V30 BEGIN CTAB
M  V30 COUNTS 47 50 0 0 0
M  V30 BEGIN ATOM
M  V30 1 C 5.390427 1.962556 -4.829432 0
M  V30 2 C 5.970450 1.538720 -3.508473 0
M  V30 3 C 5.128744 1.969502 -2.372254 0
M  V30 4 O 4.031389 2.622479 -2.404770 0
M  V30 5 O 5.496395 1.673645 -1.083793 0
M  V30 6 C 4.624557 2.130225 -0.078554 0
M  V30 7 C 4.758078 3.361790 0.506829 0
M  V30 8 C 3.907371 3.820619 1.495264 0
M  V30 9 C 2.862265 3.003095 1.924959 0
M  V30 10 C 2.698461 1.758440 1.358049 0
M  V30 11 C 1.650504 0.807199 1.714223 0
M  V30 12 O 1.519952 -0.339930 1.174047 0
M  V30 13 N 0.670216 1.079118 2.707596 0
M  V30 14 C -0.231477 -0.016976 2.856300 0
M  V30 15 C -0.097455 -1.095290 3.714724 0
M  V30 16 C -1.072905 -2.075076 3.729508 0
M  V30 17 C -2.163822 -1.963064 2.889243 0
M  V30 18 C -3.196090 -2.998472 2.903896 0
M  V30 19 N -3.201203 -4.113133 3.691085 0
M  V30 20 N -4.274586 -4.799779 3.429652 0
M  V30 21 C -4.958516 -4.145766 2.488732 0
M  V30 22 C -6.241269 -4.625808 1.934725 0
M  V30 23 C -6.931094 -5.788986 2.278811 0
M  V30 24 C -8.086777 -5.886809 1.542280 0
M  V30 25 C -8.052084 -4.755030 0.763605 0
M  V30 26 O -6.975754 -4.052268 1.015664 0
M  V30 27 O -4.295630 -3.071114 2.188639 0
M  V30 28 C -2.334854 -0.904226 2.018822 0
M  V30 29 C -1.345415 0.074768 2.014356 0
M  V30 30 C 3.580003 1.346383 0.369802 0
M  V30 31 H 4.366282 1.537869 -4.875330 0
M  V30 32 H 6.000257 1.533072 -5.641231 0
M  V30 33 H 5.365819 3.066447 -4.858967 0
M  V30 34 H 6.981061 2.022679 -3.401937 0
M  V30 35 H 6.134858 0.452434 -3.468862 0
M  V30 36 H 5.583955 3.973449 0.147748 0
M  V30 37 H 4.026788 4.796002 1.947182 0
M  V30 38 H 2.169486 3.301580 2.687201 0
M  V30 39 H 0.678377 1.989563 3.218001 0
M  V30 40 H 0.790990 -1.085978 4.327710 0
M  V30 41 H -0.934768 -2.899299 4.410554 0
M  V30 42 H -6.569499 -6.495740 3.032330 0
M  V30 43 H -8.824654 -6.660773 1.576759 0
M  V30 44 H -8.789500 -4.438684 0.024950 0
M  V30 45 H -3.195909 -0.811886 1.352818 0
M  V30 46 H -1.507812 0.897420 1.317510 0
M  V30 47 H 3.484473 0.360763 -0.108376 0
M  V30 END ATOM
M  V30 BEGIN BOND
M  V30 1 1 1 2
M  V30 2 1 2 3
M  V30 3 2 3 4
M  V30 4 1 3 5
M  V30 5 1 5 6
M  V30 6 2 6 7
M  V30 7 1 7 8
M  V30 8 2 8 9
M  V30 9 1 9 10
M  V30 10 1 10 11
M  V30 11 2 11 12
M  V30 12 1 11 13
M  V30 13 1 13 14
M  V30 14 2 14 15
M  V30 15 1 15 16
M  V30 16 2 16 17
M  V30 17 1 17 18
M  V30 18 2 18 19
M  V30 19 1 19 20
M  V30 20 2 20 21
M  V30 21 1 21 22
M  V30 22 2 22 23
M  V30 23 1 23 24
M  V30 24 2 24 25
M  V30 25 1 25 26
M  V30 26 1 21 27
M  V30 27 1 17 28
M  V30 28 2 28 29
M  V30 29 2 10 30
M  V30 30 1 30 6
M  V30 31 1 29 14
M  V30 32 1 27 18
M  V30 33 1 26 22
M  V30 34 1 1 31
M  V30 35 1 1 32
M  V30 36 1 1 33
M  V30 37 1 2 34
M  V30 38 1 2 35
M  V30 39 1 7 36
M  V30 40 1 8 37
M  V30 41 1 9 38
M  V30 42 1 13 39
M  V30 43 1 15 40
M  V30 44 1 16 41
M  V30 45 1 23 42
M  V30 46 1 24 43
M  V30 47 1 25 44
M  V30 48 1 28 45
M  V30 49 1 29 46
M  V30 50 1 30 47
M  V30 END BOND
M  V30 END CTAB
M  END
>  <Dataset>  (702) 
ChEMBL_Kinases

>  <Ligand_Instance>  (702) 
nan

>  <PDB_ID>  (702) 
nan

>  <Standardized_SMILES>  (702) 
CCC(=O)Oc1cccc(C(=O)Nc2ccc(-c3nnc(-c4ccco4)o3)cc2)c1

>  <Name>  (702) 
nan

>  <Pocket>  (702) 
nan

>  <ATP_Site>  (702) 
nan

>  <Peripheral>  (702) 
nan

>  <Num_H_Atoms_ProtBoundConf>  (702) 
nan

>  <Num_Resolved_Atoms>  (702) 
nan

>  <Num_Not_Resolved_Atoms>  (702) 
nan

$$$$
CHEMBL1313537
     RDKit          3D

  0  0  0  0  0  0  0  0  0  0999 V3000
M  V30 BEGIN CTAB
M  V30 COUNTS 49 52 0 0 0
M  V30 BEGIN ATOM
M  V30 1 C -0.464192 -4.041795 2.221030 0
M  V30 2 N -0.722255 -3.013098 1.238253 0
M  V30 3 C -0.243255 -3.365060 -0.075046 0
M  V30 4 C 0.504876 -2.276793 -0.762099 0
M  V30 5 N 0.009015 -0.958718 -0.536956 0
M  V30 6 C 0.722506 0.058658 -1.204842 0
M  V30 7 C 2.149148 0.166284 -0.878757 0
M  V30 8 C 3.162902 -0.340588 -1.704860 0
M  V30 9 N 4.389352 -0.124759 -1.158549 0
M  V30 10 N 4.183671 0.501814 -0.014616 0
M  V30 11 C 2.858721 0.688924 0.176438 0
M  V30 12 C 2.244794 1.339844 1.318439 0
M  V30 13 C 1.426181 2.443140 1.107453 0
M  V30 14 C 0.780156 3.175572 2.110543 0
M  V30 15 C 0.993826 2.740380 3.408178 0
M  V30 16 F 0.378908 3.429909 4.408670 0
M  V30 17 C 1.791222 1.658578 3.676529 0
M  V30 18 C 2.413825 0.959494 2.653074 0
M  V30 19 F 3.210783 -0.119554 2.878332 0
M  V30 20 C -0.613900 -0.704136 0.690298 0 CFG=1
M  V30 21 C -2.101578 -0.800215 0.501177 0
M  V30 22 C -2.705162 -0.242845 -0.603251 0
M  V30 23 C -4.069386 -0.311658 -0.808017 0
M  V30 24 C -4.869633 -0.948802 0.100474 0
M  V30 25 C -4.307278 -1.513949 1.209493 0
M  V30 26 C -2.951882 -1.425853 1.379489 0
M  V30 27 C -0.148742 -1.758985 1.688196 0
M  V30 28 H 0.410557 -4.656561 1.956274 0
M  V30 29 H -1.381314 -4.663868 2.405199 0
M  V30 30 H -0.271466 -3.533437 3.192649 0
M  V30 31 H -1.111041 -3.735045 -0.668046 0
M  V30 32 H 0.436460 -4.234024 0.045389 0
M  V30 33 H 1.566169 -2.288190 -0.441183 0
M  V30 34 H 0.494411 -2.475507 -1.850682 0
M  V30 35 H 0.581106 -0.120095 -2.309829 0
M  V30 36 H 0.146237 1.017618 -1.047006 0
M  V30 37 H 3.002077 -0.837438 -2.652220 0
M  V30 38 H 5.286001 -0.425891 -1.613347 0
M  V30 39 H 1.249953 2.798863 0.098652 0
M  V30 40 H 0.161091 4.021921 1.847536 0
M  V30 41 H 1.939322 1.339487 4.708651 0
M  V30 42 H -0.443370 0.266236 1.155538 0
M  V30 43 H -2.118617 0.268673 -1.349689 0
M  V30 44 H -4.532902 0.132550 -1.684956 0
M  V30 45 H -5.948743 -0.984598 -0.091721 0
M  V30 46 H -4.898319 -2.015118 1.939374 0
M  V30 47 H -2.528426 -1.881012 2.271482 0
M  V30 48 H -0.432073 -1.551252 2.717901 0
M  V30 49 H 0.963167 -1.766553 1.596561 0
M  V30 END ATOM
M  V30 BEGIN BOND
M  V30 1 1 1 2
M  V30 2 1 2 3
M  V30 3 1 3 4
M  V30 4 1 4 5
M  V30 5 1 5 6
M  V30 6 1 6 7
M  V30 7 2 7 8
M  V30 8 1 8 9
M  V30 9 1 9 10
M  V30 10 2 10 11
M  V30 11 1 11 12
M  V30 12 2 12 13
M  V30 13 1 13 14
M  V30 14 2 14 15
M  V30 15 1 15 16
M  V30 16 1 15 17
M  V30 17 2 17 18
M  V30 18 1 18 19
M  V30 19 1 5 20
M  V30 20 1 20 21
M  V30 21 2 21 22
M  V30 22 1 22 23
M  V30 23 2 23 24
M  V30 24 1 24 25
M  V30 25 2 25 26
M  V30 26 1 20 27
M  V30 27 1 27 2
M  V30 28 1 11 7
M  V30 29 1 18 12
M  V30 30 1 26 21
M  V30 31 1 1 28
M  V30 32 1 1 29
M  V30 33 1 1 30
M  V30 34 1 3 31
M  V30 35 1 3 32
M  V30 36 1 4 33
M  V30 37 1 4 34
M  V30 38 1 6 35
M  V30 39 1 6 36
M  V30 40 1 8 37
M  V30 41 1 9 38
M  V30 42 1 13 39
M  V30 43 1 14 40
M  V30 44 1 17 41
M  V30 45 1 20 42 CFG=1
M  V30 46 1 22 43
M  V30 47 1 23 44
M  V30 48 1 24 45
M  V30 49 1 25 46
M  V30 50 1 26 47
M  V30 51 1 27 48
M  V30 52 1 27 49
M  V30 END BOND
M  V30 END CTAB
M  END
>  <Dataset>  (703) 
ChEMBL_Kinases

>  <Ligand_Instance>  (703) 
nan

>  <PDB_ID>  (703) 
nan

>  <Standardized_SMILES>  (703) 
CN1CCN(Cc2c[nH]nc2-c2ccc(F)cc2F)[C@@H](c2ccccc2)C1

>  <Name>  (703) 
nan

>  <Pocket>  (703) 
nan

>  <ATP_Site>  (703) 
nan

>  <Peripheral>  (703) 
nan

>  <Num_H_Atoms_ProtBoundConf>  (703) 
nan

>  <Num_Resolved_Atoms>  (703) 
nan

>  <Num_Not_Resolved_Atoms>  (703) 
nan

$$$$
CHEMBL1313525
     RDKit          3D

  0  0  0  0  0  0  0  0  0  0999 V3000
M  V30 BEGIN CTAB
M  V30 COUNTS 55 58 0 0 0
M  V30 BEGIN ATOM
M  V30 1 C -0.409697 -1.915995 7.101558 0
M  V30 2 O -1.330716 -1.675401 6.074478 0
M  V30 3 C -0.880008 -1.121192 4.886657 0
M  V30 4 C 0.479229 -0.830467 4.779744 0
M  V30 5 C 0.959210 -0.274841 3.602125 0
M  V30 6 C 0.094277 -0.009311 2.536028 0
M  V30 7 C 0.603140 0.575621 1.301292 0
M  V30 8 N 1.445347 1.600850 1.112577 0
M  V30 9 N 1.659149 1.819644 -0.183353 0
M  V30 10 C 2.508953 2.844844 -0.692490 0
M  V30 11 C 3.828941 2.589269 -1.017711 0
M  V30 12 C 4.677596 3.576210 -1.515653 0
M  V30 13 C 4.137709 4.834643 -1.672285 0
M  V30 14 C 2.813706 5.124000 -1.354243 0
M  V30 15 C 1.978219 4.116740 -0.854974 0
M  V30 16 C 0.926064 0.900513 -0.835175 0
M  V30 17 C 0.236648 0.085313 0.041805 0
M  V30 18 C -0.653552 -1.015170 -0.225584 0
M  V30 19 C -1.540532 -1.156356 -1.202356 0
M  V30 20 C -1.639213 -0.065851 -2.132598 0
M  V30 21 N -1.715437 0.823475 -2.864916 0
M  V30 22 S -2.524139 -2.598137 -1.332452 0
M  V30 23 O -2.791622 -3.183315 0.025133 0
M  V30 24 O -3.859369 -2.235351 -1.924533 0
M  V30 25 C -1.710935 -3.812780 -2.324115 0
M  V30 26 C -1.809128 -3.943119 -3.687258 0
M  V30 27 C -1.103905 -4.956567 -4.317225 0
M  V30 28 C -0.308104 -5.836040 -3.615276 0
M  V30 29 C -0.183068 -5.736822 -2.238078 0
M  V30 30 C -0.898657 -4.716109 -1.639264 0
M  V30 31 C -1.222962 -0.308432 2.683155 0
M  V30 32 C -1.749994 -0.860177 3.828915 0
M  V30 33 O -3.081104 -1.163589 3.979761 0
M  V30 34 C -3.965302 -0.888884 2.882945 0
M  V30 35 H -0.938643 -2.301294 8.015338 0
M  V30 36 H 0.308936 -2.743482 6.845626 0
M  V30 37 H 0.202868 -1.028552 7.387370 0
M  V30 38 H 1.189819 -1.015712 5.572986 0
M  V30 39 H 2.014652 -0.054239 3.533543 0
M  V30 40 H 4.221685 1.588755 -0.882388 0
M  V30 41 H 5.702481 3.411252 -1.776256 0
M  V30 42 H 4.712698 5.671870 -2.051725 0
M  V30 43 H 2.392300 6.104032 -1.475730 0
M  V30 44 H 0.946887 4.283163 -0.591603 0
M  V30 45 H 0.907738 0.841597 -1.913168 0
M  V30 46 H -0.584164 -1.853429 0.482333 0
M  V30 47 H -2.450318 -3.220562 -4.176576 0
M  V30 48 H -1.202689 -5.032227 -5.400270 0
M  V30 49 H 0.242282 -6.626605 -4.104530 0
M  V30 50 H 0.430373 -6.405356 -1.647539 0
M  V30 51 H -0.792111 -4.648882 -0.558785 0
M  V30 52 H -1.865294 -0.090387 1.841086 0
M  V30 53 H -4.997183 -1.228361 3.089545 0
M  V30 54 H -3.563215 -1.400387 1.994330 0
M  V30 55 H -3.904765 0.220656 2.717027 0
M  V30 END ATOM
M  V30 BEGIN BOND
M  V30 1 1 1 2
M  V30 2 1 2 3
M  V30 3 2 3 4
M  V30 4 1 4 5
M  V30 5 2 5 6
M  V30 6 1 6 7
M  V30 7 2 7 8
M  V30 8 1 8 9
M  V30 9 1 9 10
M  V30 10 2 10 11
M  V30 11 1 11 12
M  V30 12 2 12 13
M  V30 13 1 13 14
M  V30 14 2 14 15
M  V30 15 1 9 16
M  V30 16 2 16 17
M  V30 17 1 17 18
M  V30 18 2 18 19
M  V30 19 1 19 20
M  V30 20 3 20 21
M  V30 21 1 19 22
M  V30 22 2 22 23
M  V30 23 2 22 24
M  V30 24 1 22 25
M  V30 25 2 25 26
M  V30 26 1 26 27
M  V30 27 2 27 28
M  V30 28 1 28 29
M  V30 29 2 29 30
M  V30 30 1 6 31
M  V30 31 2 31 32
M  V30 32 1 32 33
M  V30 33 1 33 34
M  V30 34 1 32 3
M  V30 35 1 17 7
M  V30 36 1 30 25
M  V30 37 1 15 10
M  V30 38 1 1 35
M  V30 39 1 1 36
M  V30 40 1 1 37
M  V30 41 1 4 38
M  V30 42 1 5 39
M  V30 43 1 11 40
M  V30 44 1 12 41
M  V30 45 1 13 42
M  V30 46 1 14 43
M  V30 47 1 15 44
M  V30 48 1 16 45
M  V30 49 1 18 46
M  V30 50 1 26 47
M  V30 51 1 27 48
M  V30 52 1 28 49
M  V30 53 1 29 50
M  V30 54 1 30 51
M  V30 55 1 31 52
M  V30 56 1 34 53
M  V30 57 1 34 54
M  V30 58 1 34 55
M  V30 END BOND
M  V30 END CTAB
M  END
>  <Dataset>  (704) 
ChEMBL_Kinases

>  <Ligand_Instance>  (704) 
nan

>  <PDB_ID>  (704) 
nan

>  <Standardized_SMILES>  (704) 
COc1ccc(-c2nn(-c3ccccc3)cc2/C=C(\C#N)S(=O)(=O)c2ccccc2)cc1OC

>  <Name>  (704) 
nan

>  <Pocket>  (704) 
nan

>  <ATP_Site>  (704) 
nan

>  <Peripheral>  (704) 
nan

>  <Num_H_Atoms_ProtBoundConf>  (704) 
nan

>  <Num_Resolved_Atoms>  (704) 
nan

>  <Num_Not_Resolved_Atoms>  (704) 
nan

$$$$
CHEMBL1313485
     RDKit          3D

  0  0  0  0  0  0  0  0  0  0999 V3000
M  V30 BEGIN CTAB
M  V30 COUNTS 36 37 0 0 0
M  V30 BEGIN ATOM
M  V30 1 C -0.646120 -5.024189 1.148701 0
M  V30 2 C 0.771067 -4.870852 1.726269 0
M  V30 3 O 1.281656 -3.710959 1.170623 0
M  V30 4 C 2.500340 -3.123516 1.290153 0
M  V30 5 O 3.331203 -3.734181 2.049171 0
M  V30 6 C 2.847387 -1.881795 0.598961 0
M  V30 7 C 4.002273 -1.147847 0.523101 0
M  V30 8 C 3.646740 -0.092778 -0.291583 0
M  V30 9 C 2.360990 -0.182342 -0.682048 0
M  V30 10 C 1.413336 0.587470 -1.519918 0
M  V30 11 C 0.885889 1.807271 -0.906197 0
M  V30 12 O 1.713268 2.782527 -1.019636 0
M  V30 13 C -0.377484 2.049254 -0.224544 0
M  V30 14 C -0.674666 3.342953 0.163751 0
M  V30 15 C -1.869949 3.628748 0.803006 0
M  V30 16 C -2.812872 2.671935 1.087772 0
M  V30 17 O -4.020835 2.951228 1.731345 0
M  V30 18 C -2.531055 1.385650 0.709614 0
M  V30 19 O -3.436311 0.354948 0.964416 0
M  V30 20 C -1.336831 1.104266 0.070159 0
M  V30 21 O -1.085242 -0.201385 -0.292920 0
M  V30 22 O 1.946732 -1.262594 -0.119885 0
M  V30 23 H -0.580621 -4.709736 0.085549 0
M  V30 24 H -1.000433 -6.064765 1.235227 0
M  V30 25 H -1.315805 -4.333559 1.646586 0
M  V30 26 H 0.714882 -4.868925 2.814539 0
M  V30 27 H 1.300160 -5.797350 1.403823 0
M  V30 28 H 4.913565 -1.424878 1.023977 0
M  V30 29 H 4.303040 0.721724 -0.596902 0
M  V30 30 H 0.567911 -0.042665 -1.872111 0
M  V30 31 H 2.001536 0.835967 -2.448224 0
M  V30 32 H 0.023151 4.153413 -0.033025 0
M  V30 33 H -2.063109 4.647671 1.083326 0
M  V30 34 H -4.087178 2.835643 2.752745 0
M  V30 35 H -3.213517 -0.495827 1.439941 0
M  V30 36 H -1.259432 -1.017395 0.279219 0
M  V30 END ATOM
M  V30 BEGIN BOND
M  V30 1 1 1 2
M  V30 2 1 2 3
M  V30 3 1 3 4
M  V30 4 2 4 5
M  V30 5 1 4 6
M  V30 6 2 6 7
M  V30 7 1 7 8
M  V30 8 2 8 9
M  V30 9 1 9 10
M  V30 10 1 10 11
M  V30 11 2 11 12
M  V30 12 1 11 13
M  V30 13 2 13 14
M  V30 14 1 14 15
M  V30 15 2 15 16
M  V30 16 1 16 17
M  V30 17 1 16 18
M  V30 18 1 18 19
M  V30 19 2 18 20
M  V30 20 1 20 21
M  V30 21 1 9 22
M  V30 22 1 22 6
M  V30 23 1 20 13
M  V30 24 1 1 23
M  V30 25 1 1 24
M  V30 26 1 1 25
M  V30 27 1 2 26
M  V30 28 1 2 27
M  V30 29 1 7 28
M  V30 30 1 8 29
M  V30 31 1 10 30
M  V30 32 1 10 31
M  V30 33 1 14 32
M  V30 34 1 15 33
M  V30 35 1 17 34
M  V30 36 1 19 35
M  V30 37 1 21 36
M  V30 END BOND
M  V30 END CTAB
M  END
>  <Dataset>  (705) 
ChEMBL_Kinases

>  <Ligand_Instance>  (705) 
nan

>  <PDB_ID>  (705) 
nan

>  <Standardized_SMILES>  (705) 
CCOC(=O)c1ccc(CC(=O)c2ccc(O)c(O)c2O)o1

>  <Name>  (705) 
nan

>  <Pocket>  (705) 
nan

>  <ATP_Site>  (705) 
nan

>  <Peripheral>  (705) 
nan

>  <Num_H_Atoms_ProtBoundConf>  (705) 
nan

>  <Num_Resolved_Atoms>  (705) 
nan

>  <Num_Not_Resolved_Atoms>  (705) 
nan

$$$$
CHEMBL1313372
     RDKit          3D

  0  0  0  0  0  0  0  0  0  0999 V3000
M  V30 BEGIN CTAB
M  V30 COUNTS 51 53 0 0 0
M  V30 BEGIN ATOM
M  V30 1 C -2.137177 -1.521354 2.832139 0
M  V30 2 C -0.959044 -2.454036 3.009141 0
M  V30 3 O -0.854448 -3.276041 1.896554 0
M  V30 4 C -0.657606 -2.934317 0.592579 0
M  V30 5 C -0.518530 -1.651052 0.156953 0
M  V30 6 C -0.323042 -1.307227 -1.158123 0
M  V30 7 C -0.157506 0.101865 -1.691369 0
M  V30 8 N 1.092430 0.074159 -2.415634 0
M  V30 9 C 2.312300 0.718643 -2.122581 0
M  V30 10 O 3.290086 0.490580 -2.857892 0
M  V30 11 N 2.229004 1.558007 -0.992902 0
M  V30 12 C 0.991236 1.674851 -0.271916 0
M  V30 13 C 1.156322 2.518474 0.899606 0
M  V30 14 C 1.624608 3.830455 0.954675 0
M  V30 15 C 1.777823 4.454076 2.175201 0
M  V30 16 C 1.492115 3.855395 3.382765 0
M  V30 17 C 1.025410 2.550770 3.349658 0
M  V30 18 C 0.872755 1.929725 2.140236 0
M  V30 19 C -0.112562 1.048864 -0.555534 0
M  V30 20 C -1.388583 1.291085 0.094211 0
M  V30 21 C -1.958593 2.172247 1.136011 0
M  V30 22 O -2.401829 0.591905 -0.264203 0
M  V30 23 C -0.263963 -2.328294 -2.094347 0
M  V30 24 C -0.400058 -3.655396 -1.694019 0
M  V30 25 C -0.594862 -3.944322 -0.357430 0
M  V30 26 O -0.735106 -5.279841 0.091788 0
M  V30 27 C 0.418757 -5.989161 0.451233 0
M  V30 28 C 0.547521 -7.382017 0.946763 0
M  V30 29 O 0.925420 -4.891971 0.120744 0
M  V30 30 H -2.919549 -1.863852 3.571887 0
M  V30 31 H -2.623335 -1.580693 1.856241 0
M  V30 32 H -1.905580 -0.486938 3.099195 0
M  V30 33 H -0.084529 -1.812401 3.203372 0
M  V30 34 H -1.079217 -3.104481 3.914226 0
M  V30 35 H -0.546892 -0.880988 0.906599 0
M  V30 36 H -0.981567 0.358475 -2.350814 0
M  V30 37 H 1.002083 -0.538517 -3.280542 0
M  V30 38 H 3.123626 2.069818 -0.739945 0
M  V30 39 H 1.833159 4.257074 -0.006126 0
M  V30 40 H 2.147440 5.482455 2.163870 0
M  V30 41 H 1.631434 4.396475 4.306458 0
M  V30 42 H 0.786356 2.037869 4.278730 0
M  V30 43 H 0.505408 0.913611 2.171021 0
M  V30 44 H -1.429443 3.153425 1.217535 0
M  V30 45 H -3.021936 2.468046 0.927742 0
M  V30 46 H -1.960195 1.683938 2.107964 0
M  V30 47 H -0.119923 -2.230081 -3.144645 0
M  V30 48 H -0.367676 -4.515513 -2.350725 0
M  V30 49 H 0.100760 -8.099385 0.226655 0
M  V30 50 H 1.658183 -7.589347 0.907743 0
M  V30 51 H 0.206216 -7.491769 1.983914 0
M  V30 END ATOM
M  V30 BEGIN BOND
M  V30 1 1 1 2
M  V30 2 1 2 3
M  V30 3 1 3 4
M  V30 4 2 4 5
M  V30 5 1 5 6
M  V30 6 1 6 7
M  V30 7 1 7 8
M  V30 8 1 8 9
M  V30 9 2 9 10
M  V30 10 1 9 11
M  V30 11 1 11 12
M  V30 12 1 12 13
M  V30 13 2 13 14
M  V30 14 1 14 15
M  V30 15 2 15 16
M  V30 16 1 16 17
M  V30 17 2 17 18
M  V30 18 2 12 19
M  V30 19 1 19 20
M  V30 20 1 20 21
M  V30 21 2 20 22
M  V30 22 2 6 23
M  V30 23 1 23 24
M  V30 24 2 24 25
M  V30 25 1 25 26
M  V30 26 1 26 27
M  V30 27 1 27 28
M  V30 28 2 27 29
M  V30 29 1 25 4
M  V30 30 1 19 7
M  V30 31 1 18 13
M  V30 32 1 1 30
M  V30 33 1 1 31
M  V30 34 1 1 32
M  V30 35 1 2 33
M  V30 36 1 2 34
M  V30 37 1 5 35
M  V30 38 1 7 36
M  V30 39 1 8 37
M  V30 40 1 11 38
M  V30 41 1 14 39
M  V30 42 1 15 40
M  V30 43 1 16 41
M  V30 44 1 17 42
M  V30 45 1 18 43
M  V30 46 1 21 44
M  V30 47 1 21 45
M  V30 48 1 21 46
M  V30 49 1 23 47
M  V30 50 1 24 48
M  V30 51 1 28 49
M  V30 52 1 28 50
M  V30 53 1 28 51
M  V30 END BOND
M  V30 END CTAB
M  END
>  <Dataset>  (706) 
ChEMBL_Kinases

>  <Ligand_Instance>  (706) 
nan

>  <PDB_ID>  (706) 
nan

>  <Standardized_SMILES>  (706) 
CCOc1cc(C2NC(=O)NC(c3ccccc3)=C2C(C)=O)ccc1OC(C)=O

>  <Name>  (706) 
nan

>  <Pocket>  (706) 
nan

>  <ATP_Site>  (706) 
nan

>  <Peripheral>  (706) 
nan

>  <Num_H_Atoms_ProtBoundConf>  (706) 
nan

>  <Num_Resolved_Atoms>  (706) 
nan

>  <Num_Not_Resolved_Atoms>  (706) 
nan

$$$$
CHEMBL1313271
     RDKit          3D

  0  0  0  0  0  0  0  0  0  0999 V3000
M  V30 BEGIN CTAB
M  V30 COUNTS 50 52 0 0 0
M  V30 BEGIN ATOM
M  V30 1 C -2.272608 0.950856 0.615255 0
M  V30 2 C -2.022896 -0.547485 0.566109 0
M  V30 3 N -0.727697 -0.946059 0.226506 0
M  V30 4 C 0.346203 -0.730096 1.096655 0
M  V30 5 C 0.693468 0.724062 1.229925 0
M  V30 6 O 0.555140 1.965826 0.987356 0
M  V30 7 N 1.807885 0.840248 2.123914 0
M  V30 8 C 2.203652 2.224862 2.301605 0
M  V30 9 C 1.725211 3.042712 3.306770 0
M  V30 10 C 2.162105 4.351415 3.379157 0
M  V30 11 C 3.067439 4.779965 2.428867 0
M  V30 12 C 3.560474 3.985155 1.415841 0
M  V30 13 S 4.708148 4.601797 0.235216 0
M  V30 14 N 6.329581 4.398771 0.715844 0
M  V30 15 O 4.459081 3.795257 -1.023205 0
M  V30 16 O 4.393098 6.024475 -0.091842 0
M  V30 17 C 3.118012 2.684059 1.354840 0
M  V30 18 C -0.499476 -1.729579 -0.919098 0
M  V30 19 C -1.264390 -3.008032 -0.847324 0
M  V30 20 N -2.492516 -2.964375 -1.392813 0
M  V30 21 C -3.341222 -3.989469 -1.434806 0
M  V30 22 O -4.611395 -3.882575 -2.018966 0
M  V30 23 C -2.939444 -5.196170 -0.877842 0
M  V30 24 C -3.750927 -6.311406 -0.876510 0
M  V30 25 C -3.270976 -7.466700 -0.302370 0
M  V30 26 C -2.011100 -7.557569 0.272947 0
M  V30 27 C -1.217288 -6.412193 0.253426 0
M  V30 28 C -1.682303 -5.228416 -0.323702 0
M  V30 29 N -0.841433 -4.159025 -0.299242 0
M  V30 30 H -2.014176 1.345568 1.618353 0
M  V30 31 H -3.367937 1.167690 0.510133 0
M  V30 32 H -1.798771 1.471025 -0.231460 0
M  V30 33 H -2.286013 -1.007309 1.573050 0
M  V30 34 H -2.810393 -0.996412 -0.104014 0
M  V30 35 H 1.262982 -1.188603 0.636417 0
M  V30 36 H 0.224965 -1.182995 2.110310 0
M  V30 37 H 2.424307 0.172245 2.696056 0
M  V30 38 H 1.015838 2.611786 4.007991 0
M  V30 39 H 1.796614 4.998583 4.159393 0
M  V30 40 H 3.443946 5.806517 2.441205 0
M  V30 41 H 6.829050 3.735028 0.074530 0
M  V30 42 H 6.427791 3.966710 1.673473 0
M  V30 43 H 3.494738 2.069591 0.574726 0
M  V30 44 H 0.573540 -2.017274 -0.945843 0
M  V30 45 H -0.766149 -1.174260 -1.838349 0
M  V30 46 H -5.193593 -3.124319 -1.680680 0
M  V30 47 H -4.704180 -6.173334 -1.333147 0
M  V30 48 H -3.912930 -8.336853 -0.304057 0
M  V30 49 H -1.678300 -8.482558 0.710905 0
M  V30 50 H -0.243632 -6.542577 0.717756 0
M  V30 END ATOM
M  V30 BEGIN BOND
M  V30 1 1 1 2
M  V30 2 1 2 3
M  V30 3 1 3 4
M  V30 4 1 4 5
M  V30 5 2 5 6
M  V30 6 1 5 7
M  V30 7 1 7 8
M  V30 8 2 8 9
M  V30 9 1 9 10
M  V30 10 2 10 11
M  V30 11 1 11 12
M  V30 12 1 12 13
M  V30 13 1 13 14
M  V30 14 2 13 15
M  V30 15 2 13 16
M  V30 16 2 12 17
M  V30 17 1 3 18
M  V30 18 1 18 19
M  V30 19 2 19 20
M  V30 20 1 20 21
M  V30 21 1 21 22
M  V30 22 2 21 23
M  V30 23 1 23 24
M  V30 24 2 24 25
M  V30 25 1 25 26
M  V30 26 2 26 27
M  V30 27 1 27 28
M  V30 28 2 28 29
M  V30 29 1 17 8
M  V30 30 1 29 19
M  V30 31 1 28 23
M  V30 32 1 1 30
M  V30 33 1 1 31
M  V30 34 1 1 32
M  V30 35 1 2 33
M  V30 36 1 2 34
M  V30 37 1 4 35
M  V30 38 1 4 36
M  V30 39 1 7 37
M  V30 40 1 9 38
M  V30 41 1 10 39
M  V30 42 1 11 40
M  V30 43 1 14 41
M  V30 44 1 14 42
M  V30 45 1 17 43
M  V30 46 1 18 44
M  V30 47 1 18 45
M  V30 48 1 22 46
M  V30 49 1 24 47
M  V30 50 1 25 48
M  V30 51 1 26 49
M  V30 52 1 27 50
M  V30 END BOND
M  V30 END CTAB
M  END
>  <Dataset>  (707) 
ChEMBL_Kinases

>  <Ligand_Instance>  (707) 
nan

>  <PDB_ID>  (707) 
nan

>  <Standardized_SMILES>  (707) 
CCN(CC(=O)Nc1cccc(S(N)(=O)=O)c1)Cc1nc(O)c2ccccc2n1

>  <Name>  (707) 
nan

>  <Pocket>  (707) 
nan

>  <ATP_Site>  (707) 
nan

>  <Peripheral>  (707) 
nan

>  <Num_H_Atoms_ProtBoundConf>  (707) 
nan

>  <Num_Resolved_Atoms>  (707) 
nan

>  <Num_Not_Resolved_Atoms>  (707) 
nan

$$$$
CHEMBL1313249
     RDKit          3D

  0  0  0  0  0  0  0  0  0  0999 V3000
M  V30 BEGIN CTAB
M  V30 COUNTS 40 43 0 0 0
M  V30 BEGIN ATOM
M  V30 1 C 0.456539 -5.689024 2.201250 0
M  V30 2 C 1.319344 -4.756383 1.389767 0
M  V30 3 C 1.108390 -3.536589 0.722384 0
M  V30 4 C 2.325188 -3.143207 0.130646 0
M  V30 5 N 1.991866 -1.901609 -0.511367 0
M  V30 6 C 1.506812 -1.716283 -1.830981 0
M  V30 7 O 1.247658 -2.492836 -2.775640 0
M  V30 8 C 1.237658 -0.299466 -2.184814 0
M  V30 9 C 1.430686 0.481665 -3.318210 0
M  V30 10 N 0.974924 1.700471 -3.055384 0
M  V30 11 N 0.490484 1.804958 -1.836241 0
M  V30 12 C -0.070658 2.711245 -1.022429 0
M  V30 13 C -0.261197 4.070559 -1.634716 0
M  V30 14 F -0.660421 3.955109 -2.952987 0
M  V30 15 F -1.214425 4.765997 -0.921953 0
M  V30 16 F 0.950989 4.692008 -1.605705 0
M  V30 17 C -0.487064 2.504228 0.282133 0
M  V30 18 C -0.318742 1.249854 0.816558 0
M  V30 19 C -0.717406 0.904965 2.172345 0
M  V30 20 C -0.511801 -0.412696 2.621448 0
M  V30 21 C -0.851405 -0.825013 3.896869 0
M  V30 22 C -1.421722 0.104036 4.775328 0
M  V30 23 C -1.622450 1.387199 4.337397 0
M  V30 24 C -1.274503 1.775520 3.057303 0
M  V30 25 N 0.242024 0.353638 -0.004916 0
M  V30 26 C 0.638321 0.588419 -1.272118 0
M  V30 27 N 3.177529 -4.129617 0.469850 0
M  V30 28 O 2.589440 -5.035383 1.184066 0
M  V30 29 H 1.054435 -6.099689 3.011196 0
M  V30 30 H -0.303842 -4.989530 2.660696 0
M  V30 31 H -0.074421 -6.409663 1.578181 0
M  V30 32 H 0.043060 -3.252869 0.862380 0
M  V30 33 H 2.153169 -1.069479 0.124037 0
M  V30 34 H 1.887038 0.005821 -4.169357 0
M  V30 35 H -0.932353 3.294769 0.865122 0
M  V30 36 H -0.074722 -1.096371 1.923035 0
M  V30 37 H -0.654342 -1.866048 4.152250 0
M  V30 38 H -1.653012 -0.316176 5.748825 0
M  V30 39 H -2.060959 2.054301 5.049193 0
M  V30 40 H -1.456632 2.784727 2.770391 0
M  V30 END ATOM
M  V30 BEGIN BOND
M  V30 1 1 1 2
M  V30 2 2 2 3
M  V30 3 1 3 4
M  V30 4 1 4 5
M  V30 5 1 5 6
M  V30 6 2 6 7
M  V30 7 1 6 8
M  V30 8 1 8 9
M  V30 9 2 9 10
M  V30 10 1 10 11
M  V30 11 1 11 12
M  V30 12 1 12 13
M  V30 13 1 13 14
M  V30 14 1 13 15
M  V30 15 1 13 16
M  V30 16 2 12 17
M  V30 17 1 17 18
M  V30 18 1 18 19
M  V30 19 2 19 20
M  V30 20 1 20 21
M  V30 21 2 21 22
M  V30 22 1 22 23
M  V30 23 2 23 24
M  V30 24 2 18 25
M  V30 25 1 25 26
M  V30 26 2 4 27
M  V30 27 1 27 28
M  V30 28 1 28 2
M  V30 29 2 26 8
M  V30 30 1 26 11
M  V30 31 1 24 19
M  V30 32 1 1 29
M  V30 33 1 1 30
M  V30 34 1 1 31
M  V30 35 1 3 32
M  V30 36 1 5 33
M  V30 37 1 9 34
M  V30 38 1 17 35
M  V30 39 1 20 36
M  V30 40 1 21 37
M  V30 41 1 22 38
M  V30 42 1 23 39
M  V30 43 1 24 40
M  V30 END BOND
M  V30 END CTAB
M  END
>  <Dataset>  (708) 
ChEMBL_Kinases

>  <Ligand_Instance>  (708) 
nan

>  <PDB_ID>  (708) 
nan

>  <Standardized_SMILES>  (708) 
Cc1cc(NC(=O)c2cnn3c(C(F)(F)F)cc(-c4ccccc4)nc23)no1

>  <Name>  (708) 
nan

>  <Pocket>  (708) 
nan

>  <ATP_Site>  (708) 
nan

>  <Peripheral>  (708) 
nan

>  <Num_H_Atoms_ProtBoundConf>  (708) 
nan

>  <Num_Resolved_Atoms>  (708) 
nan

>  <Num_Not_Resolved_Atoms>  (708) 
nan

$$$$
CHEMBL1313241
     RDKit          3D

  0  0  0  0  0  0  0  0  0  0999 V3000
M  V30 BEGIN CTAB
M  V30 COUNTS 35 37 0 0 0
M  V30 BEGIN ATOM
M  V30 1 C 1.965240 -4.119934 5.043089 0
M  V30 2 O 1.963218 -2.925361 4.252204 0
M  V30 3 C 1.736007 -2.975429 2.883859 0
M  V30 4 C 1.501249 -4.134136 2.191402 0
M  V30 5 C 1.278762 -4.146822 0.827759 0
M  V30 6 C 1.308828 -2.914419 0.209990 0
M  V30 7 C 1.541408 -1.736552 0.876527 0
M  V30 8 C 1.536633 -0.507007 0.045597 0
M  V30 9 N 0.197648 0.060899 -0.025835 0
M  V30 10 C 0.020227 1.245098 -0.785757 0
M  V30 11 N 1.050211 1.822180 -1.416917 0
M  V30 12 C 0.921360 2.943771 -2.145789 0
M  V30 13 N -0.282282 3.572485 -2.290015 0
M  V30 14 C -1.383539 3.046546 -1.676810 0
M  V30 15 C -2.617836 3.649535 -1.796480 0
M  V30 16 C -3.727179 3.114252 -1.175079 0
M  V30 17 Cl -5.309757 3.851693 -1.304378 0
M  V30 18 C -3.557023 1.961055 -0.434471 0
M  V30 19 C -2.305537 1.394845 -0.343706 0
M  V30 20 C -1.184207 1.896380 -0.945069 0
M  V30 21 C 1.760828 -1.744860 2.234956 0
M  V30 22 H 1.150780 -4.824867 4.709860 0
M  V30 23 H 2.929679 -4.635008 4.926150 0
M  V30 24 H 1.783756 -3.875807 6.108505 0
M  V30 25 H 1.486302 -5.076707 2.713536 0
M  V30 26 H 1.092422 -5.058496 0.272880 0
M  V30 27 H 1.131323 -2.933720 -0.871971 0
M  V30 28 H 1.839538 -0.733513 -1.001020 0
M  V30 29 H 2.266319 0.236369 0.438503 0
M  V30 30 H -0.544718 -0.447612 0.491771 0
M  V30 31 H 1.832081 3.309286 -2.605911 0
M  V30 32 H -2.704139 4.553845 -2.388259 0
M  V30 33 H -4.440879 1.553814 0.047607 0
M  V30 34 H -2.280463 0.503791 0.253397 0
M  V30 35 H 1.937902 -0.797046 2.709166 0
M  V30 END ATOM
M  V30 BEGIN BOND
M  V30 1 1 1 2
M  V30 2 1 2 3
M  V30 3 2 3 4
M  V30 4 1 4 5
M  V30 5 2 5 6
M  V30 6 1 6 7
M  V30 7 1 7 8
M  V30 8 1 8 9
M  V30 9 1 9 10
M  V30 10 2 10 11
M  V30 11 1 11 12
M  V30 12 2 12 13
M  V30 13 1 13 14
M  V30 14 2 14 15
M  V30 15 1 15 16
M  V30 16 1 16 17
M  V30 17 2 16 18
M  V30 18 1 18 19
M  V30 19 2 19 20
M  V30 20 2 7 21
M  V30 21 1 21 3
M  V30 22 1 20 10
M  V30 23 1 20 14
M  V30 24 1 1 22
M  V30 25 1 1 23
M  V30 26 1 1 24
M  V30 27 1 4 25
M  V30 28 1 5 26
M  V30 29 1 6 27
M  V30 30 1 8 28
M  V30 31 1 8 29
M  V30 32 1 9 30
M  V30 33 1 12 31
M  V30 34 1 15 32
M  V30 35 1 18 33
M  V30 36 1 19 34
M  V30 37 1 21 35
M  V30 END BOND
M  V30 END CTAB
M  END
>  <Dataset>  (709) 
ChEMBL_Kinases

>  <Ligand_Instance>  (709) 
nan

>  <PDB_ID>  (709) 
nan

>  <Standardized_SMILES>  (709) 
COc1cccc(CNc2ncnc3cc(Cl)ccc23)c1

>  <Name>  (709) 
nan

>  <Pocket>  (709) 
nan

>  <ATP_Site>  (709) 
nan

>  <Peripheral>  (709) 
nan

>  <Num_H_Atoms_ProtBoundConf>  (709) 
nan

>  <Num_Resolved_Atoms>  (709) 
nan

>  <Num_Not_Resolved_Atoms>  (709) 
nan

$$$$
CHEMBL1313193
     RDKit          3D

  0  0  0  0  0  0  0  0  0  0999 V3000
M  V30 BEGIN CTAB
M  V30 COUNTS 54 57 0 0 0
M  V30 BEGIN ATOM
M  V30 1 C 0.925501 -0.979059 6.003728 0
M  V30 2 C 1.984974 -1.792157 5.302671 0
M  V30 3 C 2.668756 -1.013325 4.252502 0
M  V30 4 C 3.625581 -0.072945 4.561213 0
M  V30 5 C 4.050685 0.232996 5.946713 0
M  V30 6 N 4.225798 0.616228 3.572971 0
M  V30 7 C 3.924155 0.420390 2.277279 0
M  V30 8 N 4.585691 1.169817 1.293908 0
M  V30 9 N 2.993818 -0.486420 1.887744 0
M  V30 10 C 2.465447 -0.921063 0.705660 0
M  V30 11 S 3.085167 -0.176663 -0.799311 0
M  V30 12 C 2.173179 1.287901 -1.290449 0
M  V30 13 C 0.799109 1.047871 -1.714030 0
M  V30 14 O 0.285415 2.184370 -2.000650 0
M  V30 15 N -0.258233 0.135287 -1.964690 0
M  V30 16 C -1.511071 0.686703 -2.422437 0
M  V30 17 C -2.702089 0.279364 -1.587037 0
M  V30 18 N -2.866387 -1.149766 -1.733329 0
M  V30 19 C -3.958981 -1.783497 -2.328916 0
M  V30 20 C -5.031988 -1.009514 -2.708328 0
M  V30 21 C -6.159675 -1.540082 -3.298534 0
M  V30 22 C -6.273449 -2.906936 -3.545146 0
M  V30 23 C -5.216843 -3.709403 -3.177228 0
M  V30 24 C -4.116753 -3.125270 -2.591939 0
M  V30 25 F -3.129573 -3.975163 -2.268678 0
M  V30 26 C -1.671394 -1.695164 -1.131725 0
M  V30 27 C -0.426625 -1.300282 -1.887601 0
M  V30 28 N 1.561324 -1.860805 1.032880 0
M  V30 29 N 1.517058 -2.015747 2.344674 0
M  V30 30 C 2.403697 -1.166169 2.887216 0
M  V30 31 H -0.091831 -1.432632 5.878822 0
M  V30 32 H 0.833578 0.028317 5.545683 0
M  V30 33 H 1.131650 -0.839695 7.083242 0
M  V30 34 H 2.685189 -2.198506 6.059893 0
M  V30 35 H 1.445408 -2.624038 4.764498 0
M  V30 36 H 3.291427 0.070421 6.704876 0
M  V30 37 H 4.521009 1.234323 6.027006 0
M  V30 38 H 4.879276 -0.495335 6.186013 0
M  V30 39 H 5.136929 0.595420 0.623703 0
M  V30 40 H 4.565660 2.213621 1.190054 0
M  V30 41 H 2.218122 2.077615 -0.481081 0
M  V30 42 H 2.717117 1.709885 -2.182119 0
M  V30 43 H -1.695973 0.267576 -3.438214 0
M  V30 44 H -1.505237 1.773782 -2.471886 0
M  V30 45 H -3.545271 0.884921 -1.950330 0
M  V30 46 H -2.601400 0.513690 -0.510835 0
M  V30 47 H -5.170286 0.051446 -2.618690 0
M  V30 48 H -7.040752 -0.996928 -3.623043 0
M  V30 49 H -7.139100 -3.362003 -4.005262 0
M  V30 50 H -5.276562 -4.772700 -3.356626 0
M  V30 51 H -1.587502 -1.347951 -0.057599 0
M  V30 52 H -1.694458 -2.789407 -1.118252 0
M  V30 53 H 0.437155 -1.838761 -1.512848 0
M  V30 54 H -0.575485 -1.628011 -2.947437 0
M  V30 END ATOM
M  V30 BEGIN BOND
M  V30 1 1 1 2
M  V30 2 1 2 3
M  V30 3 2 3 4
M  V30 4 1 4 5
M  V30 5 1 4 6
M  V30 6 2 6 7
M  V30 7 1 7 8
M  V30 8 1 7 9
M  V30 9 1 9 10
M  V30 10 1 10 11
M  V30 11 1 11 12
M  V30 12 1 12 13
M  V30 13 2 13 14
M  V30 14 1 13 15
M  V30 15 1 15 16
M  V30 16 1 16 17
M  V30 17 1 17 18
M  V30 18 1 18 19
M  V30 19 2 19 20
M  V30 20 1 20 21
M  V30 21 2 21 22
M  V30 22 1 22 23
M  V30 23 2 23 24
M  V30 24 1 24 25
M  V30 25 1 18 26
M  V30 26 1 26 27
M  V30 27 2 10 28
M  V30 28 1 28 29
M  V30 29 2 29 30
M  V30 30 1 30 3
M  V30 31 1 30 9
M  V30 32 1 27 15
M  V30 33 1 24 19
M  V30 34 1 1 31
M  V30 35 1 1 32
M  V30 36 1 1 33
M  V30 37 1 2 34
M  V30 38 1 2 35
M  V30 39 1 5 36
M  V30 40 1 5 37
M  V30 41 1 5 38
M  V30 42 1 8 39
M  V30 43 1 8 40
M  V30 44 1 12 41
M  V30 45 1 12 42
M  V30 46 1 16 43
M  V30 47 1 16 44
M  V30 48 1 17 45
M  V30 49 1 17 46
M  V30 50 1 20 47
M  V30 51 1 21 48
M  V30 52 1 22 49
M  V30 53 1 23 50
M  V30 54 1 26 51
M  V30 55 1 26 52
M  V30 56 1 27 53
M  V30 57 1 27 54
M  V30 END BOND
M  V30 END CTAB
M  END
>  <Dataset>  (710) 
ChEMBL_Kinases

>  <Ligand_Instance>  (710) 
nan

>  <PDB_ID>  (710) 
nan

>  <Standardized_SMILES>  (710) 
CCc1c(C)nc(N)n2c(SCC(=O)N3CCN(c4ccccc4F)CC3)nnc12

>  <Name>  (710) 
nan

>  <Pocket>  (710) 
nan

>  <ATP_Site>  (710) 
nan

>  <Peripheral>  (710) 
nan

>  <Num_H_Atoms_ProtBoundConf>  (710) 
nan

>  <Num_Resolved_Atoms>  (710) 
nan

>  <Num_Not_Resolved_Atoms>  (710) 
nan

$$$$
CHEMBL1313065
     RDKit          3D

  0  0  0  0  0  0  0  0  0  0999 V3000
M  V30 BEGIN CTAB
M  V30 COUNTS 46 48 0 0 0
M  V30 BEGIN ATOM
M  V30 1 O 1.092894 -1.671715 3.158576 0
M  V30 2 C 1.347133 -0.988081 2.141090 0
M  V30 3 N 2.671182 -0.600651 1.795813 0
M  V30 4 C 2.973138 0.176261 0.642046 0
M  V30 5 O 4.161467 0.514499 0.346369 0
M  V30 6 N 1.882741 0.580202 -0.202247 0
M  V30 7 C 2.073470 1.366828 -1.388382 0
M  V30 8 C 2.006420 2.845176 -1.186502 0
M  V30 9 C 3.045213 3.265042 -0.236171 0
M  V30 10 C 4.327975 3.638365 -0.531816 0
M  V30 11 C 5.187979 4.011059 0.479230 0
M  V30 12 C 4.771113 4.013843 1.801264 0
M  V30 13 F 5.668403 4.389443 2.725374 0
M  V30 14 C 3.467927 3.635193 2.107721 0
M  V30 15 C 2.602074 3.259346 1.083717 0
M  V30 16 C 0.519059 0.222686 0.088486 0
M  V30 17 O -0.430244 0.581438 -0.657738 0
M  V30 18 C 0.233040 -0.569125 1.268547 0
M  V30 19 C -1.017757 -0.900275 1.540136 0
M  V30 20 N -1.339890 -1.688770 2.707801 0
M  V30 21 N -1.643588 -2.933977 2.099092 0
M  V30 22 C -3.029965 -2.967203 1.795772 0
M  V30 23 O -3.614056 -1.891809 2.145221 0
M  V30 24 C -3.708048 -4.106721 1.155350 0
M  V30 25 C -3.112462 -5.290551 0.760603 0
M  V30 26 C -3.884313 -6.274362 0.168874 0
M  V30 27 C -5.243202 -6.057491 -0.018946 0
M  V30 28 C -5.847355 -4.888409 0.367558 0
M  V30 29 C -5.065572 -3.936205 0.947507 0
M  V30 30 H 3.441356 -0.916547 2.440035 0
M  V30 31 H 3.107633 1.138317 -1.762578 0
M  V30 32 H 1.399335 1.075745 -2.217379 0
M  V30 33 H 0.986443 3.185301 -0.887295 0
M  V30 34 H 2.259170 3.322039 -2.159774 0
M  V30 35 H 4.560649 3.604059 -1.593317 0
M  V30 36 H 6.174060 4.284464 0.117924 0
M  V30 37 H 3.226274 3.666240 3.164837 0
M  V30 38 H 1.612511 2.986037 1.456873 0
M  V30 39 H -1.810604 -0.563128 0.858313 0
M  V30 40 H -1.389241 -1.556536 3.748600 0
M  V30 41 H -1.058904 -3.785744 1.847758 0
M  V30 42 H -2.042361 -5.362683 0.951721 0
M  V30 43 H -3.359710 -7.190626 -0.123380 0
M  V30 44 H -5.798896 -6.874774 -0.492726 0
M  V30 45 H -6.927460 -4.778123 0.191048 0
M  V30 46 H -5.586737 -3.014546 1.242892 0
M  V30 END ATOM
M  V30 BEGIN BOND
M  V30 1 2 1 2
M  V30 2 1 2 3
M  V30 3 1 3 4
M  V30 4 2 4 5
M  V30 5 1 4 6
M  V30 6 1 6 7
M  V30 7 1 7 8
M  V30 8 1 8 9
M  V30 9 2 9 10
M  V30 10 1 10 11
M  V30 11 2 11 12
M  V30 12 1 12 13
M  V30 13 1 12 14
M  V30 14 2 14 15
M  V30 15 1 6 16
M  V30 16 2 16 17
M  V30 17 1 16 18
M  V30 18 2 18 19
M  V30 19 1 19 20
M  V30 20 1 20 21
M  V30 21 1 21 22
M  V30 22 2 22 23
M  V30 23 1 22 24
M  V30 24 2 24 25
M  V30 25 1 25 26
M  V30 26 2 26 27
M  V30 27 1 27 28
M  V30 28 2 28 29
M  V30 29 1 18 2
M  V30 30 1 29 24
M  V30 31 1 15 9
M  V30 32 1 3 30
M  V30 33 1 7 31
M  V30 34 1 7 32
M  V30 35 1 8 33
M  V30 36 1 8 34
M  V30 37 1 10 35
M  V30 38 1 11 36
M  V30 39 1 14 37
M  V30 40 1 15 38
M  V30 41 1 19 39
M  V30 42 1 20 40
M  V30 43 1 21 41
M  V30 44 1 25 42
M  V30 45 1 26 43
M  V30 46 1 27 44
M  V30 47 1 28 45
M  V30 48 1 29 46
M  V30 END BOND
M  V30 END CTAB
M  END
>  <Dataset>  (711) 
ChEMBL_Kinases

>  <Ligand_Instance>  (711) 
nan

>  <PDB_ID>  (711) 
nan

>  <Standardized_SMILES>  (711) 
O=C1NC(=O)N(CCc2ccc(F)cc2)C(=O)/C1=C/NNC(=O)c1ccccc1

>  <Name>  (711) 
nan

>  <Pocket>  (711) 
nan

>  <ATP_Site>  (711) 
nan

>  <Peripheral>  (711) 
nan

>  <Num_H_Atoms_ProtBoundConf>  (711) 
nan

>  <Num_Resolved_Atoms>  (711) 
nan

>  <Num_Not_Resolved_Atoms>  (711) 
nan

$$$$
CHEMBL1312988
     RDKit          3D

  0  0  0  0  0  0  0  0  0  0999 V3000
M  V30 BEGIN CTAB
M  V30 COUNTS 44 46 0 0 0
M  V30 BEGIN ATOM
M  V30 1 C -0.528359 -3.408777 4.197194 0
M  V30 2 C -1.680287 -2.981032 3.323237 0
M  V30 3 N -1.234733 -2.471633 2.054584 0
M  V30 4 C -0.900129 -1.136996 1.679168 0
M  V30 5 O -1.129409 -0.173125 2.427792 0
M  V30 6 C -0.292995 -1.215834 0.343850 0
M  V30 7 C 1.220725 -0.970841 0.371466 0
M  V30 8 C 1.522187 0.363694 0.908977 0
M  V30 9 O 0.770062 1.284346 1.326312 0
M  V30 10 N 2.883743 0.743491 1.000138 0
M  V30 11 C 3.120872 2.062304 1.534273 0
M  V30 12 C 3.159367 3.061958 0.595227 0
M  V30 13 C 3.387814 4.355955 1.079334 0
M  V30 14 C 3.563848 4.599488 2.436380 0
M  V30 15 F 3.785723 5.860151 2.901420 0
M  V30 16 C 3.515993 3.553775 3.346496 0
M  V30 17 C 3.290201 2.256597 2.891823 0
M  V30 18 N -0.609060 -2.505287 -0.181076 0
M  V30 19 C -0.450898 -2.790918 -1.591854 0
M  V30 20 C -1.294728 -1.891833 -2.383874 0
M  V30 21 C -2.564605 -1.995938 -2.823398 0
M  V30 22 C -3.139378 -0.996423 -3.562767 0
M  V30 23 C -2.311481 0.115382 -3.815254 0
M  V30 24 S -0.733792 -0.308471 -2.983550 0
M  V30 25 C -1.053791 -3.301427 0.910777 0
M  V30 26 S -1.292065 -4.923905 0.770555 0
M  V30 27 H 0.341534 -3.689071 3.565469 0
M  V30 28 H -0.774774 -4.277011 4.833351 0
M  V30 29 H -0.206828 -2.546859 4.836970 0
M  V30 30 H -2.250681 -2.204174 3.880942 0
M  V30 31 H -2.361242 -3.852404 3.176962 0
M  V30 32 H -0.727660 -0.373332 -0.263967 0
M  V30 33 H 1.535144 -0.969878 -0.703141 0
M  V30 34 H 1.758729 -1.799529 0.839067 0
M  V30 35 H 3.704661 0.133692 0.708061 0
M  V30 36 H 3.022515 2.877965 -0.466776 0
M  V30 37 H 3.425567 5.183624 0.357832 0
M  V30 38 H 3.644098 3.677938 4.403295 0
M  V30 39 H 3.239369 1.378825 3.554388 0
M  V30 40 H -0.689101 -3.861883 -1.807665 0
M  V30 41 H 0.617740 -2.614621 -1.887996 0
M  V30 42 H -3.103149 -2.904227 -2.563609 0
M  V30 43 H -4.150988 -1.019909 -3.943597 0
M  V30 44 H -2.631874 1.005332 -4.399229 0
M  V30 END ATOM
M  V30 BEGIN BOND
M  V30 1 1 1 2
M  V30 2 1 2 3
M  V30 3 1 3 4
M  V30 4 2 4 5
M  V30 5 1 4 6
M  V30 6 1 6 7
M  V30 7 1 7 8
M  V30 8 2 8 9
M  V30 9 1 8 10
M  V30 10 1 10 11
M  V30 11 2 11 12
M  V30 12 1 12 13
M  V30 13 2 13 14
M  V30 14 1 14 15
M  V30 15 1 14 16
M  V30 16 2 16 17
M  V30 17 1 6 18
M  V30 18 1 18 19
M  V30 19 1 19 20
M  V30 20 2 20 21
M  V30 21 1 21 22
M  V30 22 2 22 23
M  V30 23 1 23 24
M  V30 24 1 18 25
M  V30 25 2 25 26
M  V30 26 1 25 3
M  V30 27 1 17 11
M  V30 28 1 24 20
M  V30 29 1 1 27
M  V30 30 1 1 28
M  V30 31 1 1 29
M  V30 32 1 2 30
M  V30 33 1 2 31
M  V30 34 1 6 32
M  V30 35 1 7 33
M  V30 36 1 7 34
M  V30 37 1 10 35
M  V30 38 1 12 36
M  V30 39 1 13 37
M  V30 40 1 16 38
M  V30 41 1 17 39
M  V30 42 1 19 40
M  V30 43 1 19 41
M  V30 44 1 21 42
M  V30 45 1 22 43
M  V30 46 1 23 44
M  V30 END BOND
M  V30 END CTAB
M  END
>  <Dataset>  (712) 
ChEMBL_Kinases

>  <Ligand_Instance>  (712) 
nan

>  <PDB_ID>  (712) 
nan

>  <Standardized_SMILES>  (712) 
CCN1C(=O)C(CC(=O)Nc2ccc(F)cc2)N(Cc2cccs2)C1=S

>  <Name>  (712) 
nan

>  <Pocket>  (712) 
nan

>  <ATP_Site>  (712) 
nan

>  <Peripheral>  (712) 
nan

>  <Num_H_Atoms_ProtBoundConf>  (712) 
nan

>  <Num_Resolved_Atoms>  (712) 
nan

>  <Num_Not_Resolved_Atoms>  (712) 
nan

$$$$
CHEMBL1312952
     RDKit          3D

  0  0  0  0  0  0  0  0  0  0999 V3000
M  V30 BEGIN CTAB
M  V30 COUNTS 37 39 0 0 0
M  V30 BEGIN ATOM
M  V30 1 C 1.004362 -4.787395 1.272032 0
M  V30 2 C 2.422823 -4.276204 1.357945 0
M  V30 3 O 2.501740 -3.088322 0.576188 0
M  V30 4 C 2.241630 -3.098874 -0.789492 0
M  V30 5 O 1.939654 -4.149097 -1.385195 0
M  V30 6 C 2.397984 -1.690661 -1.301924 0
M  V30 7 C 2.104152 -1.658586 -2.765402 0
M  V30 8 O 2.944751 -1.559047 -3.675602 0
M  V30 9 C 0.663173 -1.759386 -3.126182 0
M  V30 10 S -0.141349 -0.141521 -3.228509 0
M  V30 11 C -0.216936 0.673964 -1.652099 0
M  V30 12 N 0.645900 1.528829 -1.089458 0
M  V30 13 N 0.465051 2.052750 0.109650 0
M  V30 14 C -0.637307 1.737177 0.845628 0
M  V30 15 C -1.117509 2.089822 2.099223 0
M  V30 16 C -0.554042 2.941336 3.021293 0
M  V30 17 C -1.247352 3.125564 4.217449 0
M  V30 18 C -2.442925 2.458155 4.419071 0
M  V30 19 C -3.003342 1.600632 3.483563 0
M  V30 20 C -2.325258 1.400287 2.274365 0
M  V30 21 N -2.582367 0.658470 1.184310 0
M  V30 22 C -1.608012 0.807734 0.273016 0
M  V30 23 N -1.341072 0.314127 -0.974122 0
M  V30 24 H 0.442044 -4.356451 2.157791 0
M  V30 25 H 0.905734 -5.875101 1.363203 0
M  V30 26 H 0.481206 -4.376424 0.387471 0
M  V30 27 H 3.142550 -5.038500 0.974454 0
M  V30 28 H 2.691698 -4.086754 2.414793 0
M  V30 29 H 3.491112 -1.490527 -1.214551 0
M  V30 30 H 1.878274 -0.944772 -0.710393 0
M  V30 31 H 0.104898 -2.317422 -2.317866 0
M  V30 32 H 0.530858 -2.304466 -4.085589 0
M  V30 33 H 1.170721 2.714409 0.497924 0
M  V30 34 H 0.384884 3.437147 2.809466 0
M  V30 35 H -0.845905 3.788910 4.985395 0
M  V30 36 H -2.938570 2.635176 5.364395 0
M  V30 37 H -3.955606 1.078596 3.670729 0
M  V30 END ATOM
M  V30 BEGIN BOND
M  V30 1 1 1 2
M  V30 2 1 2 3
M  V30 3 1 3 4
M  V30 4 2 4 5
M  V30 5 1 4 6
M  V30 6 1 6 7
M  V30 7 2 7 8
M  V30 8 1 7 9
M  V30 9 1 9 10
M  V30 10 1 10 11
M  V30 11 2 11 12
M  V30 12 1 12 13
M  V30 13 1 13 14
M  V30 14 2 14 15
M  V30 15 1 15 16
M  V30 16 2 16 17
M  V30 17 1 17 18
M  V30 18 2 18 19
M  V30 19 1 19 20
M  V30 20 2 20 21
M  V30 21 1 21 22
M  V30 22 2 22 23
M  V30 23 1 23 11
M  V30 24 1 22 14
M  V30 25 1 20 15
M  V30 26 1 1 24
M  V30 27 1 1 25
M  V30 28 1 1 26
M  V30 29 1 2 27
M  V30 30 1 2 28
M  V30 31 1 6 29
M  V30 32 1 6 30
M  V30 33 1 9 31
M  V30 34 1 9 32
M  V30 35 1 13 33
M  V30 36 1 16 34
M  V30 37 1 17 35
M  V30 38 1 18 36
M  V30 39 1 19 37
M  V30 END BOND
M  V30 END CTAB
M  END
>  <Dataset>  (713) 
ChEMBL_Kinases

>  <Ligand_Instance>  (713) 
nan

>  <PDB_ID>  (713) 
nan

>  <Standardized_SMILES>  (713) 
CCOC(=O)CC(=O)CSc1n[nH]c2c3ccccc3nc-2n1

>  <Name>  (713) 
nan

>  <Pocket>  (713) 
nan

>  <ATP_Site>  (713) 
nan

>  <Peripheral>  (713) 
nan

>  <Num_H_Atoms_ProtBoundConf>  (713) 
nan

>  <Num_Resolved_Atoms>  (713) 
nan

>  <Num_Not_Resolved_Atoms>  (713) 
nan

$$$$
CHEMBL1312786
     RDKit          3D

  0  0  0  0  0  0  0  0  0  0999 V3000
M  V30 BEGIN CTAB
M  V30 COUNTS 47 49 0 0 0
M  V30 BEGIN ATOM
M  V30 1 N 3.761887 -1.418838 2.904426 0
M  V30 2 C 2.654854 -1.366349 2.542489 0
M  V30 3 C 1.298436 -1.278058 2.101269 0
M  V30 4 C 0.915002 -1.510921 0.716612 0
M  V30 5 O 0.022034 -1.495032 -0.163731 0
M  V30 6 N 1.963751 -1.979788 -0.123172 0
M  V30 7 C 1.853423 -2.286651 -1.543619 0
M  V30 8 C 1.871237 -1.102646 -2.411675 0
M  V30 9 C 0.875039 -0.325245 -2.956780 0
M  V30 10 C 1.140208 0.767119 -3.748381 0
M  V30 11 C 2.430253 1.151820 -4.045975 0
M  V30 12 C 3.457836 0.400165 -3.520346 0
M  V30 13 C 3.170371 -0.685421 -2.733125 0
M  V30 14 C 0.461234 -0.879659 3.045007 0
M  V30 15 S 0.558757 -0.388876 4.794066 0
M  V30 16 C -0.678237 0.974038 4.567887 0
M  V30 17 C 0.138599 2.166714 4.224537 0
M  V30 18 C -0.580838 3.440391 3.985128 0
M  V30 19 O -1.480668 3.386530 2.931258 0
M  V30 20 C -1.463745 0.384118 3.466543 0
M  V30 21 O -2.531484 1.040628 3.210288 0
M  V30 22 N -0.969142 -0.787439 2.850422 0
M  V30 23 C -1.746155 -1.753373 2.114803 0
M  V30 24 C -2.983924 -1.377782 1.581505 0
M  V30 25 C -3.843707 -2.229536 0.922488 0
M  V30 26 C -3.487305 -3.549538 0.761670 0
M  V30 27 C -2.286530 -3.977198 1.262540 0
M  V30 28 C -1.486214 -3.091953 1.899998 0
M  V30 29 H 2.938407 -2.136629 0.272361 0
M  V30 30 H 0.894561 -2.876340 -1.725091 0
M  V30 31 H 2.663570 -2.979898 -1.803628 0
M  V30 32 H -0.119325 -0.660042 -2.709419 0
M  V30 33 H 0.254605 1.290246 -4.111320 0
M  V30 34 H 2.568930 2.019196 -4.673208 0
M  V30 35 H 4.454099 0.725537 -3.770548 0
M  V30 36 H 4.079849 -1.189969 -2.383880 0
M  V30 37 H -1.276939 1.082404 5.482543 0
M  V30 38 H 0.784683 1.983686 3.316128 0
M  V30 39 H 0.897432 2.283041 5.047149 0
M  V30 40 H 0.197922 4.190764 3.658120 0
M  V30 41 H -1.035529 3.874864 4.904812 0
M  V30 42 H -1.002850 3.238560 2.091234 0
M  V30 43 H -3.385193 -0.376756 1.632674 0
M  V30 44 H -4.790564 -1.954472 0.511446 0
M  V30 45 H -4.109240 -4.257243 0.261003 0
M  V30 46 H -1.937750 -5.001940 1.174425 0
M  V30 47 H -0.521553 -3.426501 2.310664 0
M  V30 END ATOM
M  V30 BEGIN BOND
M  V30 1 3 1 2
M  V30 2 1 2 3
M  V30 3 1 3 4
M  V30 4 2 4 5
M  V30 5 1 4 6
M  V30 6 1 6 7
M  V30 7 1 7 8
M  V30 8 2 8 9
M  V30 9 1 9 10
M  V30 10 2 10 11
M  V30 11 1 11 12
M  V30 12 2 12 13
M  V30 13 2 3 14
M  V30 14 1 14 15
M  V30 15 1 15 16
M  V30 16 1 16 17
M  V30 17 1 17 18
M  V30 18 1 18 19
M  V30 19 1 16 20
M  V30 20 2 20 21
M  V30 21 1 20 22
M  V30 22 1 22 23
M  V30 23 2 23 24
M  V30 24 1 24 25
M  V30 25 2 25 26
M  V30 26 1 26 27
M  V30 27 2 27 28
M  V30 28 1 13 8
M  V30 29 1 22 14
M  V30 30 1 28 23
M  V30 31 1 6 29
M  V30 32 1 7 30
M  V30 33 1 7 31
M  V30 34 1 9 32
M  V30 35 1 10 33
M  V30 36 1 11 34
M  V30 37 1 12 35
M  V30 38 1 13 36
M  V30 39 1 16 37
M  V30 40 1 17 38
M  V30 41 1 17 39
M  V30 42 1 18 40
M  V30 43 1 18 41
M  V30 44 1 19 42
M  V30 45 1 24 43
M  V30 46 1 25 44
M  V30 47 1 26 45
M  V30 48 1 27 46
M  V30 49 1 28 47
M  V30 END BOND
M  V30 END CTAB
M  END
>  <Dataset>  (714) 
ChEMBL_Kinases

>  <Ligand_Instance>  (714) 
nan

>  <PDB_ID>  (714) 
nan

>  <Standardized_SMILES>  (714) 
N#C/C(C(=O)NCc1ccccc1)=C1\SC(CCO)C(=O)N1c1ccccc1

>  <Name>  (714) 
nan

>  <Pocket>  (714) 
nan

>  <ATP_Site>  (714) 
nan

>  <Peripheral>  (714) 
nan

>  <Num_H_Atoms_ProtBoundConf>  (714) 
nan

>  <Num_Resolved_Atoms>  (714) 
nan

>  <Num_Not_Resolved_Atoms>  (714) 
nan

$$$$
CHEMBL1312654
     RDKit          3D

  0  0  0  0  0  0  0  0  0  0999 V3000
M  V30 BEGIN CTAB
M  V30 COUNTS 51 54 0 0 0
M  V30 BEGIN ATOM
M  V30 1 O -0.621806 -3.705365 -0.246906 0
M  V30 2 C -0.396515 -4.961313 -0.378400 0
M  V30 3 N 1.014666 -5.092681 -0.171068 0
M  V30 4 C 1.393966 -3.718869 0.070612 0
M  V30 5 C 1.294962 -3.309437 1.380552 0
M  V30 6 C 1.636511 -2.011226 1.681562 0
M  V30 7 C 2.068108 -1.128159 0.718094 0
M  V30 8 N 2.409976 0.240296 1.014003 0
M  V30 9 C 3.178235 1.138408 0.135314 0
M  V30 10 C 2.661443 2.532877 0.112567 0
M  V30 11 N 1.468347 2.763530 0.901101 0
M  V30 12 C 0.854952 4.038866 0.819260 0
M  V30 13 O 1.089211 5.101708 0.197837 0
M  V30 14 C -0.331407 4.446742 1.528232 0
M  V30 15 C -0.419533 5.249116 2.645919 0
M  V30 16 C -1.663575 5.546687 3.206872 0
M  V30 17 C -2.838309 5.057533 2.674893 0
M  V30 18 Cl -4.392906 5.438435 3.385247 0
M  V30 19 C -2.730805 4.246897 1.544619 0
M  V30 20 C -1.493331 3.935996 0.965275 0
M  V30 21 C 0.832889 1.801661 1.777173 0
M  V30 22 C 2.005643 0.911968 2.241124 0
M  V30 23 C 2.154937 -1.577362 -0.580910 0
M  V30 24 C 1.821887 -2.873567 -0.933867 0
M  V30 25 C -1.262090 -6.128785 -0.668920 0
M  V30 26 C -1.184870 -7.505627 -0.906808 0
M  V30 27 C -2.517081 -7.849038 -1.092303 0
M  V30 28 C -3.321193 -6.750995 -0.972884 0
M  V30 29 N -4.728211 -6.809788 -1.115466 0 CHG=1 VAL=4
M  V30 30 O -5.335045 -5.714947 -0.977047 0
M  V30 31 O -5.350761 -8.003264 -1.385026 0 CHG=-1 VAL=1
M  V30 32 O -2.534084 -5.744161 -0.720411 0
M  V30 33 H 1.489937 -6.030569 -0.218780 0
M  V30 34 H 0.961472 -3.978111 2.161803 0
M  V30 35 H 1.549916 -1.721285 2.714431 0
M  V30 36 H 3.235935 0.723899 -0.886004 0
M  V30 37 H 4.231872 1.173462 0.529242 0
M  V30 38 H 2.477892 2.811829 -0.964772 0
M  V30 39 H 3.476402 3.237991 0.435852 0
M  V30 40 H 0.524517 5.604792 3.022324 0
M  V30 41 H -1.669825 6.191670 4.096116 0
M  V30 42 H -3.673356 3.876055 1.144213 0
M  V30 43 H -1.585283 3.301157 0.103651 0
M  V30 44 H 0.268522 2.227106 2.598002 0
M  V30 45 H 0.176786 1.177554 1.108956 0
M  V30 46 H 1.666291 0.227054 3.034072 0
M  V30 47 H 2.859665 1.539834 2.564567 0
M  V30 48 H 2.473229 -1.010305 -1.436275 0
M  V30 49 H 1.877070 -3.267375 -1.957164 0
M  V30 50 H -0.178192 -7.860200 -0.876068 0
M  V30 51 H -2.679359 -8.917403 -1.299745 0
M  V30 END ATOM
M  V30 BEGIN BOND
M  V30 1 2 1 2
M  V30 2 1 2 3
M  V30 3 1 3 4
M  V30 4 2 4 5
M  V30 5 1 5 6
M  V30 6 2 6 7
M  V30 7 1 7 8
M  V30 8 1 8 9
M  V30 9 1 9 10
M  V30 10 1 10 11
M  V30 11 1 11 12
M  V30 12 2 12 13
M  V30 13 1 12 14
M  V30 14 2 14 15
M  V30 15 1 15 16
M  V30 16 2 16 17
M  V30 17 1 17 18
M  V30 18 1 17 19
M  V30 19 2 19 20
M  V30 20 1 11 21
M  V30 21 1 21 22
M  V30 22 1 7 23
M  V30 23 2 23 24
M  V30 24 1 2 25
M  V30 25 2 25 26
M  V30 26 1 26 27
M  V30 27 2 27 28
M  V30 28 1 28 29
M  V30 29 2 29 30
M  V30 30 1 29 31
M  V30 31 1 28 32
M  V30 32 1 24 4
M  V30 33 1 32 25
M  V30 34 1 22 8
M  V30 35 1 20 14
M  V30 36 1 3 33
M  V30 37 1 5 34
M  V30 38 1 6 35
M  V30 39 1 9 36
M  V30 40 1 9 37
M  V30 41 1 10 38
M  V30 42 1 10 39
M  V30 43 1 15 40
M  V30 44 1 16 41
M  V30 45 1 19 42
M  V30 46 1 20 43
M  V30 47 1 21 44
M  V30 48 1 21 45
M  V30 49 1 22 46
M  V30 50 1 22 47
M  V30 51 1 23 48
M  V30 52 1 24 49
M  V30 53 1 26 50
M  V30 54 1 27 51
M  V30 END BOND
M  V30 END CTAB
M  END
>  <Dataset>  (715) 
ChEMBL_Kinases

>  <Ligand_Instance>  (715) 
nan

>  <PDB_ID>  (715) 
nan

>  <Standardized_SMILES>  (715) 
O=C(Nc1ccc(N2CCN(C(=O)c3ccc(Cl)cc3)CC2)cc1)c1ccc([N+](=O)[O-])o1

>  <Name>  (715) 
nan

>  <Pocket>  (715) 
nan

>  <ATP_Site>  (715) 
nan

>  <Peripheral>  (715) 
nan

>  <Num_H_Atoms_ProtBoundConf>  (715) 
nan

>  <Num_Resolved_Atoms>  (715) 
nan

>  <Num_Not_Resolved_Atoms>  (715) 
nan

$$$$
CHEMBL1312617
     RDKit          3D

  0  0  0  0  0  0  0  0  0  0999 V3000
M  V30 BEGIN CTAB
M  V30 COUNTS 43 45 0 0 0
M  V30 BEGIN ATOM
M  V30 1 O 0.528368 -3.108294 2.936076 0
M  V30 2 C 0.764607 -2.453436 3.981195 0
M  V30 3 C 1.756958 -1.421301 3.574252 0
M  V30 4 C 2.099818 -1.540784 2.137036 0
M  V30 5 N 2.837071 -2.053484 1.393940 0
M  V30 6 N 2.862756 -1.933261 0.111503 0
M  V30 7 C 2.170742 -1.302462 -0.551960 0
M  V30 8 N 1.611648 -0.713022 -1.810287 0
M  V30 9 C 2.156389 0.518174 -2.243535 0
M  V30 10 O 3.052166 1.026355 -1.562210 0
M  V30 11 N 1.727444 1.179151 -3.400498 0
M  V30 12 C 2.152411 2.400719 -3.977845 0
M  V30 13 C 1.563991 2.843688 -5.136892 0
M  V30 14 C 1.941926 4.024997 -5.738099 0
M  V30 15 C 2.929762 4.826824 -5.211070 0
M  V30 16 F 3.305106 5.989244 -5.798856 0
M  V30 17 C 3.542235 4.414222 -4.049036 0
M  V30 18 C 3.130037 3.226330 -3.485623 0
M  V30 19 S 1.083613 -0.581750 0.864862 0
M  V30 20 N 0.213400 -2.645739 5.271790 0
M  V30 21 C -0.750354 -3.703353 5.508962 0
M  V30 22 C -2.100076 -3.406105 5.022044 0
M  V30 23 C -2.919103 -2.773520 5.938210 0
M  V30 24 C -4.241770 -2.402192 5.677030 0
M  V30 25 C -4.777324 -2.677921 4.430270 0
M  V30 26 C -3.955076 -3.312690 3.511329 0
M  V30 27 C -2.648614 -3.673294 3.786302 0
M  V30 28 H 1.312167 -0.416210 3.719812 0
M  V30 29 H 2.708934 -1.542120 4.129439 0
M  V30 30 H 0.861648 -1.172607 -2.349088 0
M  V30 31 H 0.954940 0.649825 -3.905549 0
M  V30 32 H 0.766582 2.248434 -5.610210 0
M  V30 33 H 1.429579 4.304949 -6.650296 0
M  V30 34 H 4.329042 5.022372 -3.600999 0
M  V30 35 H 3.648596 2.961332 -2.578777 0
M  V30 36 H 0.587189 -1.952757 5.970199 0
M  V30 37 H -0.785876 -4.019894 6.555052 0
M  V30 38 H -0.387662 -4.607477 4.941336 0
M  V30 39 H -2.597509 -2.514574 6.937973 0
M  V30 40 H -4.856631 -1.910344 6.413117 0
M  V30 41 H -5.778667 -2.429790 4.144170 0
M  V30 42 H -4.264574 -3.579221 2.502423 0
M  V30 43 H -1.990922 -4.168397 3.091299 0
M  V30 END ATOM
M  V30 BEGIN BOND
M  V30 1 2 1 2
M  V30 2 1 2 3
M  V30 3 1 3 4
M  V30 4 2 4 5
M  V30 5 1 5 6
M  V30 6 2 6 7
M  V30 7 1 7 8
M  V30 8 1 8 9
M  V30 9 2 9 10
M  V30 10 1 9 11
M  V30 11 1 11 12
M  V30 12 2 12 13
M  V30 13 1 13 14
M  V30 14 2 14 15
M  V30 15 1 15 16
M  V30 16 1 15 17
M  V30 17 2 17 18
M  V30 18 1 7 19
M  V30 19 1 2 20
M  V30 20 1 20 21
M  V30 21 1 21 22
M  V30 22 2 22 23
M  V30 23 1 23 24
M  V30 24 2 24 25
M  V30 25 1 25 26
M  V30 26 2 26 27
M  V30 27 1 19 4
M  V30 28 1 27 22
M  V30 29 1 18 12
M  V30 30 1 3 28
M  V30 31 1 3 29
M  V30 32 1 8 30
M  V30 33 1 11 31
M  V30 34 1 13 32
M  V30 35 1 14 33
M  V30 36 1 17 34
M  V30 37 1 18 35
M  V30 38 1 20 36
M  V30 39 1 21 37
M  V30 40 1 21 38
M  V30 41 1 23 39
M  V30 42 1 24 40
M  V30 43 1 25 41
M  V30 44 1 26 42
M  V30 45 1 27 43
M  V30 END BOND
M  V30 END CTAB
M  END
>  <Dataset>  (716) 
ChEMBL_Kinases

>  <Ligand_Instance>  (716) 
nan

>  <PDB_ID>  (716) 
nan

>  <Standardized_SMILES>  (716) 
O=C(Cc1nnc(NC(=O)Nc2ccc(F)cc2)s1)NCc1ccccc1

>  <Name>  (716) 
nan

>  <Pocket>  (716) 
nan

>  <ATP_Site>  (716) 
nan

>  <Peripheral>  (716) 
nan

>  <Num_H_Atoms_ProtBoundConf>  (716) 
nan

>  <Num_Resolved_Atoms>  (716) 
nan

>  <Num_Not_Resolved_Atoms>  (716) 
nan

$$$$
CHEMBL1223182
     RDKit          3D

  0  0  0  0  0  0  0  0  0  0999 V3000
M  V30 BEGIN CTAB
M  V30 COUNTS 61 64 0 0 0
M  V30 BEGIN ATOM
M  V30 1 C 4.709725 2.896039 7.886376 0
M  V30 2 O 5.677214 1.889720 7.757756 0
M  V30 3 C 5.591202 0.919654 6.807917 0
M  V30 4 C 4.680464 0.638597 5.810446 0
M  V30 5 C 4.857974 -0.443457 4.975520 0
M  V30 6 C 3.824931 -0.624599 3.963146 0
M  V30 7 C 2.494721 -0.290146 4.109024 0
M  V30 8 C 1.594443 -0.501538 3.084959 0
M  V30 9 C 2.001602 -1.060319 1.869921 0
M  V30 10 C 3.334978 -1.389870 1.738990 0
M  V30 11 C 4.235761 -1.177756 2.764945 0
M  V30 12 N 3.536286 -1.943170 0.429962 0
M  V30 13 C 2.316469 -1.969826 -0.290041 0
M  V30 14 O 2.054665 -2.363640 -1.438587 0
M  V30 15 C 1.337016 -1.410803 0.617272 0
M  V30 16 C 0.067429 -1.185598 0.483444 0
M  V30 17 C -0.615800 -1.530684 -0.760110 0
M  V30 18 C -1.590685 -0.624569 -1.423661 0
M  V30 19 C -2.184456 -1.055966 -2.568814 0
M  V30 20 C -3.147453 -0.220592 -3.276087 0
M  V30 21 O -2.863961 0.864029 -3.827579 0
M  V30 22 N -4.492127 -0.629859 -3.364403 0
M  V30 23 C -5.408934 0.247527 -4.082652 0
M  V30 24 C -6.751721 -0.415224 -4.029556 0
M  V30 25 N -6.690884 -1.707487 -4.652510 0
M  V30 26 C -6.500933 -1.661300 -6.058721 0
M  V30 27 C -7.632666 -2.650519 -4.156697 0
M  V30 28 C -1.909580 -2.307089 -3.132016 0
M  V30 29 C -2.423284 -2.962733 -4.332368 0
M  V30 30 Se -0.666489 -3.096585 -2.010223 0 VAL=2
M  V30 31 C 5.941058 -1.290026 5.092624 0
M  V30 32 C 6.877272 -1.041286 6.081955 0
M  V30 33 C 6.688669 0.059955 6.925422 0
M  V30 34 O 7.738070 0.143278 7.857220 0
M  V30 35 H 3.843281 2.756244 7.217332 0
M  V30 36 H 4.320740 2.947988 8.949227 0
M  V30 37 H 5.131637 3.906369 7.608077 0
M  V30 38 H 3.869834 1.343502 5.786301 0
M  V30 39 H 2.195592 0.143341 5.060460 0
M  V30 40 H 0.551889 -0.241540 3.193595 0
M  V30 41 H 5.264271 -1.457349 2.602825 0
M  V30 42 H 4.450050 -2.285824 0.040795 0
M  V30 43 H -0.633701 -0.760847 1.183908 0
M  V30 44 H -1.775351 0.327289 -0.956487 0
M  V30 45 H -4.756989 -1.535180 -2.913471 0
M  V30 46 H -5.467550 1.167267 -3.426188 0
M  V30 47 H -5.067911 0.534371 -5.072553 0
M  V30 48 H -7.030687 -0.549100 -2.954213 0
M  V30 49 H -7.546833 0.174072 -4.530977 0
M  V30 50 H -7.480647 -1.616368 -6.577982 0
M  V30 51 H -5.913641 -0.776621 -6.350776 0
M  V30 52 H -5.969458 -2.561891 -6.464154 0
M  V30 53 H -8.466990 -2.855309 -4.878933 0
M  V30 54 H -8.119539 -2.318417 -3.207555 0
M  V30 55 H -7.070481 -3.608175 -3.946965 0
M  V30 56 H -1.601338 -2.931766 -5.088838 0
M  V30 57 H -2.580852 -4.024285 -4.066677 0
M  V30 58 H -3.318508 -2.509348 -4.757748 0
M  V30 59 H 6.028013 -2.126299 4.408722 0
M  V30 60 H 7.682440 -1.732201 6.113216 0
M  V30 61 H 7.753940 0.825304 8.611615 0
M  V30 END ATOM
M  V30 BEGIN BOND
M  V30 1 1 1 2
M  V30 2 1 2 3
M  V30 3 2 3 4
M  V30 4 1 4 5
M  V30 5 1 5 6
M  V30 6 2 6 7
M  V30 7 1 7 8
M  V30 8 2 8 9
M  V30 9 1 9 10
M  V30 10 2 10 11
M  V30 11 1 10 12
M  V30 12 1 12 13
M  V30 13 2 13 14
M  V30 14 1 13 15
M  V30 15 2 15 16
M  V30 16 1 16 17
M  V30 17 2 17 18
M  V30 18 1 18 19
M  V30 19 1 19 20
M  V30 20 2 20 21
M  V30 21 1 20 22
M  V30 22 1 22 23
M  V30 23 1 23 24
M  V30 24 1 24 25
M  V30 25 1 25 26
M  V30 26 1 25 27
M  V30 27 2 19 28
M  V30 28 1 28 29
M  V30 29 1 28 30
M  V30 30 2 5 31
M  V30 31 1 31 32
M  V30 32 2 32 33
M  V30 33 1 33 34
M  V30 34 1 33 3
M  V30 35 1 11 6
M  V30 36 1 30 17
M  V30 37 1 15 9
M  V30 38 1 1 35
M  V30 39 1 1 36
M  V30 40 1 1 37
M  V30 41 1 4 38
M  V30 42 1 7 39
M  V30 43 1 8 40
M  V30 44 1 11 41
M  V30 45 1 12 42
M  V30 46 1 16 43
M  V30 47 1 18 44
M  V30 48 1 22 45
M  V30 49 1 23 46
M  V30 50 1 23 47
M  V30 51 1 24 48
M  V30 52 1 24 49
M  V30 53 1 26 50
M  V30 54 1 26 51
M  V30 55 1 26 52
M  V30 56 1 27 53
M  V30 57 1 27 54
M  V30 58 1 27 55
M  V30 59 1 29 56
M  V30 60 1 29 57
M  V30 61 1 29 58
M  V30 62 1 31 59
M  V30 63 1 32 60
M  V30 64 1 34 61
M  V30 END BOND
M  V30 END CTAB
M  END
>  <Dataset>  (717) 
ChEMBL_Kinases

>  <Ligand_Instance>  (717) 
nan

>  <PDB_ID>  (717) 
nan

>  <Standardized_SMILES>  (717) 
COc1cc(-c2ccc3c(c2)NC(=O)/C3=C\c2cc(C(=O)NCCN(C)C)c(C)[se]2)ccc1O

>  <Name>  (717) 
nan

>  <Pocket>  (717) 
nan

>  <ATP_Site>  (717) 
nan

>  <Peripheral>  (717) 
nan

>  <Num_H_Atoms_ProtBoundConf>  (717) 
nan

>  <Num_Resolved_Atoms>  (717) 
nan

>  <Num_Not_Resolved_Atoms>  (717) 
nan

$$$$
CHEMBL1312548
     RDKit          3D

  0  0  0  0  0  0  0  0  0  0999 V3000
M  V30 BEGIN CTAB
M  V30 COUNTS 37 38 0 0 0
M  V30 BEGIN ATOM
M  V30 1 C -0.573836 -4.397170 4.047401 0
M  V30 2 N -0.815736 -3.560893 2.893983 0
M  V30 3 C -2.158321 -3.446146 2.320585 0
M  V30 4 C 0.228290 -2.821636 2.283567 0
M  V30 5 C 1.534522 -2.797576 2.721471 0
M  V30 6 C 2.566322 -2.092948 2.145156 0
M  V30 7 C 2.274933 -1.328040 1.012300 0
M  V30 8 C 0.967867 -1.307500 0.515315 0
M  V30 9 N 0.637875 -0.542914 -0.625085 0
M  V30 10 C 0.564888 -0.543632 -2.019390 0
M  V30 11 O 0.923307 -1.591286 -2.623654 0
M  V30 12 C 0.076274 0.665926 -2.750030 0
M  V30 13 C 0.326250 1.866457 -1.885132 0
M  V30 14 C -0.747997 2.236597 -1.080206 0
M  V30 15 C -0.661060 3.334257 -0.221134 0
M  V30 16 C 0.533350 4.027410 -0.209976 0
M  V30 17 F 0.661433 5.100355 0.604040 0
M  V30 18 C 1.578621 3.642026 -1.013387 0
M  V30 19 C 1.515129 2.558013 -1.872180 0
M  V30 20 C 0.007781 -2.045477 1.161724 0
M  V30 21 H 0.449528 -4.860589 3.988413 0
M  V30 22 H -1.349793 -5.188639 4.094130 0
M  V30 23 H -0.547308 -3.780916 4.965118 0
M  V30 24 H -2.847384 -4.179440 2.794315 0
M  V30 25 H -2.497907 -2.391108 2.518400 0
M  V30 26 H -2.170941 -3.636362 1.241043 0
M  V30 27 H 1.794940 -3.380168 3.601202 0
M  V30 28 H 3.567292 -2.126125 2.548338 0
M  V30 29 H 3.070017 -0.773346 0.554284 0
M  V30 30 H 0.367747 0.302999 -0.095417 0
M  V30 31 H -0.979444 0.629775 -3.006042 0
M  V30 32 H 0.720328 0.839684 -3.668579 0
M  V30 33 H -1.697711 1.695609 -1.082211 0
M  V30 34 H -1.518153 3.581307 0.382381 0
M  V30 35 H 2.511335 4.174215 -1.012692 0
M  V30 36 H 2.279023 2.184881 -2.537424 0
M  V30 37 H -0.993813 -2.004026 0.752347 0
M  V30 END ATOM
M  V30 BEGIN BOND
M  V30 1 1 1 2
M  V30 2 1 2 3
M  V30 3 1 2 4
M  V30 4 2 4 5
M  V30 5 1 5 6
M  V30 6 2 6 7
M  V30 7 1 7 8
M  V30 8 1 8 9
M  V30 9 1 9 10
M  V30 10 2 10 11
M  V30 11 1 10 12
M  V30 12 1 12 13
M  V30 13 2 13 14
M  V30 14 1 14 15
M  V30 15 2 15 16
M  V30 16 1 16 17
M  V30 17 1 16 18
M  V30 18 2 18 19
M  V30 19 2 8 20
M  V30 20 1 20 4
M  V30 21 1 19 13
M  V30 22 1 1 21
M  V30 23 1 1 22
M  V30 24 1 1 23
M  V30 25 1 3 24
M  V30 26 1 3 25
M  V30 27 1 3 26
M  V30 28 1 5 27
M  V30 29 1 6 28
M  V30 30 1 7 29
M  V30 31 1 9 30
M  V30 32 1 12 31
M  V30 33 1 12 32
M  V30 34 1 14 33
M  V30 35 1 15 34
M  V30 36 1 18 35
M  V30 37 1 19 36
M  V30 38 1 20 37
M  V30 END BOND
M  V30 END CTAB
M  END
>  <Dataset>  (718) 
ChEMBL_Kinases

>  <Ligand_Instance>  (718) 
nan

>  <PDB_ID>  (718) 
nan

>  <Standardized_SMILES>  (718) 
CN(C)c1cccc(NC(=O)Cc2ccc(F)cc2)c1

>  <Name>  (718) 
nan

>  <Pocket>  (718) 
nan

>  <ATP_Site>  (718) 
nan

>  <Peripheral>  (718) 
nan

>  <Num_H_Atoms_ProtBoundConf>  (718) 
nan

>  <Num_Resolved_Atoms>  (718) 
nan

>  <Num_Not_Resolved_Atoms>  (718) 
nan

$$$$
CHEMBL1312502
     RDKit          3D

  0  0  0  0  0  0  0  0  0  0999 V3000
M  V30 BEGIN CTAB
M  V30 COUNTS 52 56 0 0 0
M  V30 BEGIN ATOM
M  V30 1 O -3.942400 -3.897252 2.038838 0
M  V30 2 C -3.124058 -4.168131 1.084049 0
M  V30 3 N -2.269678 -3.104605 0.944227 0
M  V30 4 C -1.575270 -1.882436 1.059343 0
M  V30 5 C -0.496124 -1.801391 1.942213 0
M  V30 6 C 0.120027 -0.570540 2.053383 0
M  V30 7 C -0.359660 0.475889 1.300037 0
M  V30 8 N 0.289588 1.750026 1.475069 0
M  V30 9 C 1.627864 1.755673 2.094302 0
M  V30 10 C 2.539928 2.782132 1.418431 0
M  V30 11 N 1.881159 4.064659 1.513061 0
M  V30 12 C 2.582674 5.280502 1.233246 0
M  V30 13 O 2.082416 6.449872 1.289243 0
M  V30 14 C 3.989240 5.298867 0.842080 0
M  V30 15 C 5.030854 5.675783 1.666531 0
M  V30 16 C 6.186942 5.543880 0.899969 0
M  V30 17 C 5.774301 5.092320 -0.353414 0
M  V30 18 O 4.448418 4.958700 -0.345023 0
M  V30 19 C 0.510247 4.093532 1.899707 0
M  V30 20 C -0.265737 3.048648 1.120068 0
M  V30 21 C -1.413940 0.434643 0.422575 0
M  V30 22 Cl -2.031339 1.715441 -0.557770 0
M  V30 23 C -2.011855 -0.800594 0.330016 0
M  V30 24 C -3.129134 -5.398631 0.305788 0
M  V30 25 C -2.277495 -5.725977 -0.756562 0
M  V30 26 C -2.687970 -7.002664 -1.158173 0
M  V30 27 C -2.239473 -7.848630 -2.147559 0
M  V30 28 C -2.819922 -9.082129 -2.352308 0
M  V30 29 C -3.870836 -9.405897 -1.503195 0
M  V30 30 C -4.349417 -8.580978 -0.497127 0
M  V30 31 C -3.733779 -7.357891 -0.335392 0
M  V30 32 O -3.956467 -6.359941 0.522914 0
M  V30 33 H -1.612973 -3.400974 0.131145 0
M  V30 34 H -0.221414 -2.688161 2.466620 0
M  V30 35 H 0.935866 -0.554842 2.743836 0
M  V30 36 H 1.588181 1.936323 3.167185 0
M  V30 37 H 2.089289 0.770927 1.800064 0
M  V30 38 H 2.773844 2.497014 0.385126 0
M  V30 39 H 3.483536 2.755214 2.004312 0
M  V30 40 H 5.033647 6.009288 2.684201 0
M  V30 41 H 7.235632 5.720321 1.106622 0
M  V30 42 H 6.309904 4.843890 -1.284472 0
M  V30 43 H 0.110902 5.114063 1.775956 0
M  V30 44 H 0.412902 3.877961 3.008089 0
M  V30 45 H -0.093297 3.227562 0.048918 0
M  V30 46 H -1.352461 3.135254 1.315109 0
M  V30 47 H -2.862648 -0.943741 -0.346179 0
M  V30 48 H -1.484584 -5.113246 -1.164097 0
M  V30 49 H -1.421488 -7.544081 -2.778140 0
M  V30 50 H -2.517307 -9.790281 -3.110402 0
M  V30 51 H -4.395818 -10.352766 -1.573198 0
M  V30 52 H -5.156478 -8.829150 0.154428 0
M  V30 END ATOM
M  V30 BEGIN BOND
M  V30 1 2 1 2
M  V30 2 1 2 3
M  V30 3 1 3 4
M  V30 4 2 4 5
M  V30 5 1 5 6
M  V30 6 2 6 7
M  V30 7 1 7 8
M  V30 8 1 8 9
M  V30 9 1 9 10
M  V30 10 1 10 11
M  V30 11 1 11 12
M  V30 12 2 12 13
M  V30 13 1 12 14
M  V30 14 2 14 15
M  V30 15 1 15 16
M  V30 16 2 16 17
M  V30 17 1 17 18
M  V30 18 1 11 19
M  V30 19 1 19 20
M  V30 20 1 7 21
M  V30 21 1 21 22
M  V30 22 2 21 23
M  V30 23 1 2 24
M  V30 24 2 24 25
M  V30 25 1 25 26
M  V30 26 2 26 27
M  V30 27 1 27 28
M  V30 28 2 28 29
M  V30 29 1 29 30
M  V30 30 2 30 31
M  V30 31 1 31 32
M  V30 32 1 23 4
M  V30 33 1 32 24
M  V30 34 1 20 8
M  V30 35 1 31 26
M  V30 36 1 18 14
M  V30 37 1 3 33
M  V30 38 1 5 34
M  V30 39 1 6 35
M  V30 40 1 9 36
M  V30 41 1 9 37
M  V30 42 1 10 38
M  V30 43 1 10 39
M  V30 44 1 15 40
M  V30 45 1 16 41
M  V30 46 1 17 42
M  V30 47 1 19 43
M  V30 48 1 19 44
M  V30 49 1 20 45
M  V30 50 1 20 46
M  V30 51 1 23 47
M  V30 52 1 25 48
M  V30 53 1 27 49
M  V30 54 1 28 50
M  V30 55 1 29 51
M  V30 56 1 30 52
M  V30 END BOND
M  V30 END CTAB
M  END
>  <Dataset>  (719) 
ChEMBL_Kinases

>  <Ligand_Instance>  (719) 
nan

>  <PDB_ID>  (719) 
nan

>  <Standardized_SMILES>  (719) 
O=C(Nc1ccc(N2CCN(C(=O)c3ccco3)CC2)c(Cl)c1)c1cc2ccccc2o1

>  <Name>  (719) 
nan

>  <Pocket>  (719) 
nan

>  <ATP_Site>  (719) 
nan

>  <Peripheral>  (719) 
nan

>  <Num_H_Atoms_ProtBoundConf>  (719) 
nan

>  <Num_Resolved_Atoms>  (719) 
nan

>  <Num_Not_Resolved_Atoms>  (719) 
nan

$$$$
CHEMBL1312338
     RDKit          3D

  0  0  0  0  0  0  0  0  0  0999 V3000
M  V30 BEGIN CTAB
M  V30 COUNTS 49 51 0 0 0
M  V30 BEGIN ATOM
M  V30 1 C -0.696839 -3.312572 3.298753 0
M  V30 2 O -0.764082 -3.457316 1.884535 0
M  V30 3 C 0.313229 -3.136818 1.073530 0
M  V30 4 C 1.529070 -2.661489 1.497058 0
M  V30 5 C 2.536947 -2.372970 0.603125 0
M  V30 6 C 2.396023 -2.539990 -0.765828 0
M  V30 7 C 3.400553 -2.290366 -1.792108 0
M  V30 8 C 3.511738 -0.911197 -2.330692 0
M  V30 9 N 2.300190 -0.416245 -2.927705 0
M  V30 10 C 1.123736 0.003130 -2.249831 0
M  V30 11 O 0.922753 0.124594 -0.964320 0
M  V30 12 C -0.284528 0.536313 -0.674468 0
M  V30 13 C -0.758743 0.751736 0.689292 0
M  V30 14 C 0.138651 0.520037 1.715429 0
M  V30 15 C -0.238932 0.697484 3.049724 0
M  V30 16 C -1.539870 1.110698 3.271227 0
M  V30 17 O -1.942095 1.295173 4.593562 0
M  V30 18 C -1.010723 1.053934 5.660288 0
M  V30 19 C -2.449694 1.347092 2.262237 0
M  V30 20 O -3.734132 1.759274 2.577605 0
M  V30 21 C -4.664050 1.999509 1.547176 0
M  V30 22 C -2.052775 1.163919 0.934559 0
M  V30 23 N -0.904622 0.690995 -1.857019 0
M  V30 24 C -0.057108 0.367796 -2.863055 0
M  V30 25 C -0.359518 0.406920 -4.287120 0
M  V30 26 N -0.606323 0.453256 -5.421937 0
M  V30 27 C 1.133349 -3.027836 -1.136417 0
M  V30 28 C 0.086770 -3.332686 -0.270850 0
M  V30 29 H 0.293108 -3.733445 3.604295 0
M  V30 30 H -0.686702 -2.221300 3.535484 0
M  V30 31 H -1.507875 -3.840279 3.808845 0
M  V30 32 H 1.662984 -2.522464 2.564242 0
M  V30 33 H 3.502944 -1.995802 0.934380 0
M  V30 34 H 4.401504 -2.597894 -1.359340 0
M  V30 35 H 3.194125 -3.039448 -2.618205 0
M  V30 36 H 4.361982 -0.909543 -3.069235 0
M  V30 37 H 3.793343 -0.252084 -1.450217 0
M  V30 38 H 2.310038 -0.368288 -3.991612 0
M  V30 39 H 1.138170 0.203959 1.553002 0
M  V30 40 H 0.478939 0.510769 3.841895 0
M  V30 41 H -0.744315 -0.023800 5.719489 0
M  V30 42 H -0.102755 1.670454 5.418329 0
M  V30 43 H -1.385208 1.469313 6.609885 0
M  V30 44 H -4.440878 2.910838 0.959334 0
M  V30 45 H -4.736442 1.150288 0.834322 0
M  V30 46 H -5.660857 2.199249 2.028850 0
M  V30 47 H -2.741386 1.340240 0.114667 0
M  V30 48 H 0.965962 -3.179031 -2.205092 0
M  V30 49 H -0.832758 -3.701557 -0.704470 0
M  V30 END ATOM
M  V30 BEGIN BOND
M  V30 1 1 1 2
M  V30 2 1 2 3
M  V30 3 2 3 4
M  V30 4 1 4 5
M  V30 5 2 5 6
M  V30 6 1 6 7
M  V30 7 1 7 8
M  V30 8 1 8 9
M  V30 9 1 9 10
M  V30 10 1 10 11
M  V30 11 1 11 12
M  V30 12 1 12 13
M  V30 13 2 13 14
M  V30 14 1 14 15
M  V30 15 2 15 16
M  V30 16 1 16 17
M  V30 17 1 17 18
M  V30 18 1 16 19
M  V30 19 1 19 20
M  V30 20 1 20 21
M  V30 21 2 19 22
M  V30 22 2 12 23
M  V30 23 1 23 24
M  V30 24 1 24 25
M  V30 25 3 25 26
M  V30 26 1 6 27
M  V30 27 2 27 28
M  V30 28 1 28 3
M  V30 29 2 24 10
M  V30 30 1 22 13
M  V30 31 1 1 29
M  V30 32 1 1 30
M  V30 33 1 1 31
M  V30 34 1 4 32
M  V30 35 1 5 33
M  V30 36 1 7 34
M  V30 37 1 7 35
M  V30 38 1 8 36
M  V30 39 1 8 37
M  V30 40 1 9 38
M  V30 41 1 14 39
M  V30 42 1 15 40
M  V30 43 1 18 41
M  V30 44 1 18 42
M  V30 45 1 18 43
M  V30 46 1 21 44
M  V30 47 1 21 45
M  V30 48 1 21 46
M  V30 49 1 22 47
M  V30 50 1 27 48
M  V30 51 1 28 49
M  V30 END BOND
M  V30 END CTAB
M  END
>  <Dataset>  (720) 
ChEMBL_Kinases

>  <Ligand_Instance>  (720) 
nan

>  <PDB_ID>  (720) 
nan

>  <Standardized_SMILES>  (720) 
COc1ccc(CCNc2oc(-c3ccc(OC)c(OC)c3)nc2C#N)cc1

>  <Name>  (720) 
nan

>  <Pocket>  (720) 
nan

>  <ATP_Site>  (720) 
nan

>  <Peripheral>  (720) 
nan

>  <Num_H_Atoms_ProtBoundConf>  (720) 
nan

>  <Num_Resolved_Atoms>  (720) 
nan

>  <Num_Not_Resolved_Atoms>  (720) 
nan

$$$$
CHEMBL1312156
     RDKit          3D

  0  0  0  0  0  0  0  0  0  0999 V3000
M  V30 BEGIN CTAB
M  V30 COUNTS 39 40 0 0 0
M  V30 BEGIN ATOM
M  V30 1 C -0.993645 -4.310338 2.506952 0
M  V30 2 C 0.398230 -4.850330 2.394824 0
M  V30 3 C 1.441804 -3.810966 2.823981 0
M  V30 4 C 2.790997 -4.461950 2.669958 0
M  V30 5 C 1.250620 -2.630711 1.942965 0
M  V30 6 O 0.414873 -2.463000 1.013860 0
M  V30 7 N 2.097200 -1.513107 2.130400 0
M  V30 8 C 1.771039 -0.435024 1.174987 0
M  V30 9 N 1.008978 0.423884 1.347381 0
M  V30 10 C 0.653753 1.418537 0.567193 0
M  V30 11 C 1.292193 1.452802 -0.668884 0
M  V30 12 S 2.384146 -0.001894 -0.591844 0
M  V30 13 C 1.047124 2.476673 -1.695817 0
M  V30 14 O 2.040800 2.600972 -2.454893 0
M  V30 15 C -0.244922 3.209709 -1.738958 0
M  V30 16 C -1.116951 2.623205 -0.646100 0
M  V30 17 C -2.393300 3.410502 -0.460818 0
M  V30 18 C -1.485106 1.183932 -0.957505 0
M  V30 19 C -0.276310 2.581000 0.613592 0
M  V30 20 H -1.422554 -4.236609 1.483463 0
M  V30 21 H -0.987198 -3.285227 2.965687 0
M  V30 22 H -1.585732 -4.969353 3.151247 0
M  V30 23 H 0.499789 -5.778180 2.973897 0
M  V30 24 H 0.657146 -5.093341 1.329499 0
M  V30 25 H 1.221086 -3.577492 3.898743 0
M  V30 26 H 2.725218 -5.525523 2.387008 0
M  V30 27 H 3.292211 -3.942481 1.805025 0
M  V30 28 H 3.472525 -4.278322 3.531583 0
M  V30 29 H 2.844475 -1.418368 2.817924 0
M  V30 30 H -0.026586 4.253603 -1.489073 0
M  V30 31 H -0.695212 3.080023 -2.741646 0
M  V30 32 H -2.248614 4.310700 0.160669 0
M  V30 33 H -2.734642 3.738338 -1.459140 0
M  V30 34 H -3.176856 2.739464 -0.070231 0
M  V30 35 H -0.920787 0.887807 -1.853733 0
M  V30 36 H -2.575636 1.030706 -1.088681 0
M  V30 37 H -1.179729 0.472066 -0.161785 0
M  V30 38 H 0.335275 3.526645 0.680104 0
M  V30 39 H -0.988738 2.520845 1.454279 0
M  V30 END ATOM
M  V30 BEGIN BOND
M  V30 1 1 1 2
M  V30 2 1 2 3
M  V30 3 1 3 4
M  V30 4 1 3 5
M  V30 5 2 5 6
M  V30 6 1 5 7
M  V30 7 1 7 8
M  V30 8 2 8 9
M  V30 9 1 9 10
M  V30 10 2 10 11
M  V30 11 1 11 12
M  V30 12 1 11 13
M  V30 13 2 13 14
M  V30 14 1 13 15
M  V30 15 1 15 16
M  V30 16 1 16 17
M  V30 17 1 16 18
M  V30 18 1 16 19
M  V30 19 1 12 8
M  V30 20 1 19 10
M  V30 21 1 1 20
M  V30 22 1 1 21
M  V30 23 1 1 22
M  V30 24 1 2 23
M  V30 25 1 2 24
M  V30 26 1 3 25
M  V30 27 1 4 26
M  V30 28 1 4 27
M  V30 29 1 4 28
M  V30 30 1 7 29
M  V30 31 1 15 30
M  V30 32 1 15 31
M  V30 33 1 17 32
M  V30 34 1 17 33
M  V30 35 1 17 34
M  V30 36 1 18 35
M  V30 37 1 18 36
M  V30 38 1 18 37
M  V30 39 1 19 38
M  V30 40 1 19 39
M  V30 END BOND
M  V30 END CTAB
M  END
>  <Dataset>  (721) 
ChEMBL_Kinases

>  <Ligand_Instance>  (721) 
nan

>  <PDB_ID>  (721) 
nan

>  <Standardized_SMILES>  (721) 
CCC(C)C(=O)Nc1nc2c(s1)C(=O)CC(C)(C)C2

>  <Name>  (721) 
nan

>  <Pocket>  (721) 
nan

>  <ATP_Site>  (721) 
nan

>  <Peripheral>  (721) 
nan

>  <Num_H_Atoms_ProtBoundConf>  (721) 
nan

>  <Num_Resolved_Atoms>  (721) 
nan

>  <Num_Not_Resolved_Atoms>  (721) 
nan

$$$$
CHEMBL1312079
     RDKit          3D

  0  0  0  0  0  0  0  0  0  0999 V3000
M  V30 BEGIN CTAB
M  V30 COUNTS 70 73 0 0 0
M  V30 BEGIN ATOM
M  V30 1 C 8.308299 -2.467256 1.730302 0
M  V30 2 C 7.349045 -2.847871 0.634115 0
M  V30 3 N 6.107092 -3.333562 1.191919 0
M  V30 4 C 6.081978 -4.612657 1.858955 0
M  V30 5 C 6.764480 -4.662096 3.197247 0
M  V30 6 C 4.914158 -2.546444 1.092423 0
M  V30 7 C 4.839195 -1.324563 0.468429 0
M  V30 8 C 3.695601 -0.561563 0.377478 0
M  V30 9 C 2.492590 -1.013833 0.944024 0
M  V30 10 C 1.365527 -0.121347 0.804138 0
M  V30 11 C 0.165078 -0.371205 0.343890 0
M  V30 12 C -0.257355 -1.681377 -0.139208 0
M  V30 13 C -1.731190 -1.555086 -0.215276 0
M  V30 14 C -2.085307 -0.125421 -0.103939 0
M  V30 15 C -3.478460 0.058072 -0.355258 0
M  V30 16 C -4.322415 1.012589 -0.377104 0
M  V30 17 C -3.829240 2.316116 -0.075169 0
M  V30 18 N -3.456720 3.356765 0.161186 0
M  V30 19 C -5.740260 0.935364 -0.679053 0
M  V30 20 O -6.482723 1.952808 -0.666938 0
M  V30 21 N -6.425688 -0.240919 -1.008293 0
M  V30 22 C -7.776902 -0.527500 -1.331264 0
M  V30 23 C -8.793942 -0.860397 -0.461788 0
M  V30 24 C -10.072658 -1.118918 -0.940628 0
M  V30 25 C -10.319884 -1.038768 -2.307306 0
M  V30 26 C -9.302760 -0.705243 -3.180177 0
M  V30 27 C -8.045324 -0.455431 -2.669684 0
M  V30 28 F -7.131965 -0.138817 -3.619921 0
M  V30 29 C -0.990695 0.499206 0.209939 0
M  V30 30 N -0.788725 1.837327 0.421508 0
M  V30 31 C -0.506881 2.625676 -0.765110 0
M  V30 32 C -0.355068 4.091752 -0.525264 0
M  V30 33 O -0.591910 4.523045 0.765748 0
M  V30 34 C -0.006960 3.670152 1.663450 0
M  V30 35 C -0.814517 2.355289 1.769695 0
M  V30 36 C 2.535750 -2.236750 1.578864 0
M  V30 37 C 3.714231 -2.946589 1.631520 0
M  V30 38 H 8.772799 -1.468103 1.483581 0
M  V30 39 H 9.156410 -3.204763 1.837124 0
M  V30 40 H 7.859240 -2.353272 2.718071 0
M  V30 41 H 7.812168 -3.682735 0.029189 0
M  V30 42 H 7.243355 -2.030617 -0.088453 0
M  V30 43 H 6.687181 -5.365004 1.228077 0
M  V30 44 H 5.071819 -5.060352 1.920775 0
M  V30 45 H 7.865828 -4.687353 3.139005 0
M  V30 46 H 6.487338 -3.839629 3.888441 0
M  V30 47 H 6.447337 -5.595825 3.760057 0
M  V30 48 H 5.702282 -0.880055 0.002150 0
M  V30 49 H 3.710151 0.408860 -0.138355 0
M  V30 50 H 1.585682 0.882631 1.138932 0
M  V30 51 H 0.099841 -2.561182 0.373575 0
M  V30 52 H 0.176454 -1.764295 -1.188021 0
M  V30 53 H -2.279058 -2.204338 0.500228 0
M  V30 54 H -2.051047 -1.900439 -1.244493 0
M  V30 55 H -4.088284 -0.829671 -0.617504 0
M  V30 56 H -5.971797 -1.173029 -1.066352 0
M  V30 57 H -8.494799 -0.894847 0.588648 0
M  V30 58 H -10.839506 -1.378865 -0.200690 0
M  V30 59 H -11.334465 -1.251267 -2.612539 0
M  V30 60 H -9.562046 -0.660534 -4.229122 0
M  V30 61 H 0.412301 2.196236 -1.223655 0
M  V30 62 H -1.331113 2.498270 -1.527673 0
M  V30 63 H 0.689947 4.392583 -0.814036 0
M  V30 64 H -1.024940 4.698246 -1.192410 0
M  V30 65 H 0.976086 3.342313 1.231256 0
M  V30 66 H 0.230512 4.081127 2.645024 0
M  V30 67 H -0.188824 1.741075 2.476093 0
M  V30 68 H -1.773873 2.628261 2.175456 0
M  V30 69 H 1.623284 -2.584978 2.039152 0
M  V30 70 H 3.586029 -3.873324 2.163521 0
M  V30 END ATOM
M  V30 BEGIN BOND
M  V30 1 1 1 2
M  V30 2 1 2 3
M  V30 3 1 3 4
M  V30 4 1 4 5
M  V30 5 1 3 6
M  V30 6 2 6 7
M  V30 7 1 7 8
M  V30 8 2 8 9
M  V30 9 1 9 10
M  V30 10 2 10 11
M  V30 11 1 11 12
M  V30 12 1 12 13
M  V30 13 1 13 14
M  V30 14 1 14 15
M  V30 15 2 15 16
M  V30 16 1 16 17
M  V30 17 3 17 18
M  V30 18 1 16 19
M  V30 19 2 19 20
M  V30 20 1 19 21
M  V30 21 1 21 22
M  V30 22 2 22 23
M  V30 23 1 23 24
M  V30 24 2 24 25
M  V30 25 1 25 26
M  V30 26 2 26 27
M  V30 27 1 27 28
M  V30 28 2 14 29
M  V30 29 1 29 30
M  V30 30 1 30 31
M  V30 31 1 31 32
M  V30 32 1 32 33
M  V30 33 1 33 34
M  V30 34 1 34 35
M  V30 35 1 9 36
M  V30 36 2 36 37
M  V30 37 1 37 6
M  V30 38 1 29 11
M  V30 39 1 35 30
M  V30 40 1 27 22
M  V30 41 1 1 38
M  V30 42 1 1 39
M  V30 43 1 1 40
M  V30 44 1 2 41
M  V30 45 1 2 42
M  V30 46 1 4 43
M  V30 47 1 4 44
M  V30 48 1 5 45
M  V30 49 1 5 46
M  V30 50 1 5 47
M  V30 51 1 7 48
M  V30 52 1 8 49
M  V30 53 1 10 50
M  V30 54 1 12 51
M  V30 55 1 12 52
M  V30 56 1 13 53
M  V30 57 1 13 54
M  V30 58 1 15 55
M  V30 59 1 21 56
M  V30 60 1 23 57
M  V30 61 1 24 58
M  V30 62 1 25 59
M  V30 63 1 26 60
M  V30 64 1 31 61
M  V30 65 1 31 62
M  V30 66 1 32 63
M  V30 67 1 32 64
M  V30 68 1 34 65
M  V30 69 1 34 66
M  V30 70 1 35 67
M  V30 71 1 35 68
M  V30 72 1 36 69
M  V30 73 1 37 70
M  V30 END BOND
M  V30 END CTAB
M  END
>  <Dataset>  (722) 
ChEMBL_Kinases

>  <Ligand_Instance>  (722) 
nan

>  <PDB_ID>  (722) 
nan

>  <Standardized_SMILES>  (722) 
CCN(CC)c1ccc(/C=C2\CCC(/C=C(\C#N)C(=O)Nc3ccccc3F)=C2N2CCOCC2)cc1

>  <Name>  (722) 
nan

>  <Pocket>  (722) 
nan

>  <ATP_Site>  (722) 
nan

>  <Peripheral>  (722) 
nan

>  <Num_H_Atoms_ProtBoundConf>  (722) 
nan

>  <Num_Resolved_Atoms>  (722) 
nan

>  <Num_Not_Resolved_Atoms>  (722) 
nan

$$$$
CHEMBL1312026
     RDKit          3D

  0  0  0  0  0  0  0  0  0  0999 V3000
M  V30 BEGIN CTAB
M  V30 COUNTS 26 27 0 0 0
M  V30 BEGIN ATOM
M  V30 1 C -2.253451 -0.429519 1.740224 0
M  V30 2 N -1.314099 0.656939 1.811479 0
M  V30 3 C 0.027710 0.571662 1.850436 0
M  V30 4 C 0.869860 -0.652253 1.829437 0
M  V30 5 O 0.369424 -1.629283 2.694086 0
M  V30 6 C 1.145977 -1.157257 0.467334 0
M  V30 7 C 2.325844 -0.841109 -0.218323 0
M  V30 8 C 2.639398 -1.281056 -1.487332 0
M  V30 9 C 1.734365 -2.091230 -2.138832 0
M  V30 10 Br 2.224934 -2.666020 -3.888789 0
M  V30 11 C 0.559964 -2.438118 -1.523142 0
M  V30 12 C 0.298614 -1.969292 -0.253576 0
M  V30 13 N 0.492880 1.847093 1.914331 0
M  V30 14 C -0.533603 2.707248 1.915211 0
M  V30 15 Cl -0.488354 4.470183 1.984694 0
M  V30 16 C -1.690611 1.954237 1.849702 0
M  V30 17 Cl -3.336951 2.574670 1.821808 0
M  V30 18 H -1.887023 -1.402256 2.048964 0
M  V30 19 H -3.221536 -0.176943 2.251839 0
M  V30 20 H -2.549084 -0.539441 0.656889 0
M  V30 21 H 1.888144 -0.407633 2.254932 0
M  V30 22 H 0.595965 -1.331149 3.631732 0
M  V30 23 H 3.049435 -0.194327 0.300557 0
M  V30 24 H 3.593969 -0.967751 -1.922734 0
M  V30 25 H -0.133297 -3.078536 -2.063309 0
M  V30 26 H -0.632516 -2.265789 0.190526 0
M  V30 END ATOM
M  V30 BEGIN BOND
M  V30 1 1 1 2
M  V30 2 1 2 3
M  V30 3 1 3 4
M  V30 4 1 4 5
M  V30 5 1 4 6
M  V30 6 2 6 7
M  V30 7 1 7 8
M  V30 8 2 8 9
M  V30 9 1 9 10
M  V30 10 1 9 11
M  V30 11 2 11 12
M  V30 12 2 3 13
M  V30 13 1 13 14
M  V30 14 1 14 15
M  V30 15 2 14 16
M  V30 16 1 16 17
M  V30 17 1 16 2
M  V30 18 1 12 6
M  V30 19 1 1 18
M  V30 20 1 1 19
M  V30 21 1 1 20
M  V30 22 1 4 21
M  V30 23 1 5 22
M  V30 24 1 7 23
M  V30 25 1 8 24
M  V30 26 1 11 25
M  V30 27 1 12 26
M  V30 END BOND
M  V30 END CTAB
M  END
>  <Dataset>  (723) 
ChEMBL_Kinases

>  <Ligand_Instance>  (723) 
nan

>  <PDB_ID>  (723) 
nan

>  <Standardized_SMILES>  (723) 
Cn1c(C(O)c2ccc(Br)cc2)nc(Cl)c1Cl

>  <Name>  (723) 
nan

>  <Pocket>  (723) 
nan

>  <ATP_Site>  (723) 
nan

>  <Peripheral>  (723) 
nan

>  <Num_H_Atoms_ProtBoundConf>  (723) 
nan

>  <Num_Resolved_Atoms>  (723) 
nan

>  <Num_Not_Resolved_Atoms>  (723) 
nan

$$$$
CHEMBL1311916
     RDKit          3D

  0  0  0  0  0  0  0  0  0  0999 V3000
M  V30 BEGIN CTAB
M  V30 COUNTS 47 50 0 0 0
M  V30 BEGIN ATOM
M  V30 1 C 2.099361 -6.837150 1.574927 0
M  V30 2 O 2.263810 -5.441217 1.708863 0
M  V30 3 C 2.382787 -4.683185 0.553687 0
M  V30 4 C 2.344274 -5.251918 -0.697862 0
M  V30 5 C 2.460756 -4.511561 -1.846356 0
M  V30 6 C 2.623738 -3.145225 -1.790142 0
M  V30 7 C 2.666495 -2.542754 -0.549944 0
M  V30 8 C 2.836676 -1.074498 -0.350044 0
M  V30 9 N 1.602629 -0.435584 -0.002081 0
M  V30 10 C 1.481485 0.943686 0.255170 0
M  V30 11 O 2.622958 1.462654 0.122985 0
M  V30 12 C 0.315793 1.717372 0.612201 0
M  V30 13 C 0.552055 3.071865 0.835606 0
M  V30 14 C -0.687505 3.637899 1.165510 0
M  V30 15 O -1.261528 4.770842 1.489112 0
M  V30 16 C -2.546997 4.640145 1.690643 0
M  V30 17 C -3.580745 5.486180 2.039373 0
M  V30 18 C -4.862930 4.937797 2.159016 0
M  V30 19 C -5.140671 3.603363 1.946739 0
M  V30 20 C -4.075676 2.797118 1.600148 0
M  V30 21 C -2.800771 3.303371 1.473517 0
M  V30 22 C -1.640885 2.633243 1.137185 0
M  V30 23 N -0.978079 1.515809 0.801105 0
M  V30 24 C -1.575527 0.234165 0.650616 0
M  V30 25 C 2.548015 -3.294512 0.624398 0
M  V30 26 O 2.580423 -2.771424 1.914208 0
M  V30 27 C 1.399793 -2.363248 2.549534 0
M  V30 28 H 2.297072 -7.361006 2.553603 0
M  V30 29 H 1.025290 -7.095818 1.362784 0
M  V30 30 H 2.809397 -7.264635 0.859772 0
M  V30 31 H 2.222035 -6.301042 -0.839112 0
M  V30 32 H 2.437259 -4.907852 -2.852511 0
M  V30 33 H 2.720791 -2.513931 -2.673918 0
M  V30 34 H 3.218333 -0.569429 -1.261989 0
M  V30 35 H 3.566964 -0.842824 0.444709 0
M  V30 36 H 0.755854 -1.033811 0.061472 0
M  V30 37 H 1.439148 3.729662 0.807950 0
M  V30 38 H -3.389150 6.536718 2.211625 0
M  V30 39 H -5.674164 5.608821 2.434115 0
M  V30 40 H -6.150702 3.218810 2.050015 0
M  V30 41 H -4.282138 1.753256 1.433382 0
M  V30 42 H -1.148498 -0.528296 1.329646 0
M  V30 43 H -1.336647 -0.106992 -0.399335 0
M  V30 44 H -2.683244 0.227510 0.671470 0
M  V30 45 H 1.328084 -2.765974 3.597533 0
M  V30 46 H 0.546280 -2.844507 2.020981 0
M  V30 47 H 1.258387 -1.286162 2.641293 0
M  V30 END ATOM
M  V30 BEGIN BOND
M  V30 1 1 1 2
M  V30 2 1 2 3
M  V30 3 2 3 4
M  V30 4 1 4 5
M  V30 5 2 5 6
M  V30 6 1 6 7
M  V30 7 1 7 8
M  V30 8 1 8 9
M  V30 9 1 9 10
M  V30 10 2 10 11
M  V30 11 1 10 12
M  V30 12 2 12 13
M  V30 13 1 13 14
M  V30 14 1 14 15
M  V30 15 1 15 16
M  V30 16 2 16 17
M  V30 17 1 17 18
M  V30 18 2 18 19
M  V30 19 1 19 20
M  V30 20 2 20 21
M  V30 21 1 21 22
M  V30 22 1 22 23
M  V30 23 1 23 24
M  V30 24 2 7 25
M  V30 25 1 25 26
M  V30 26 1 26 27
M  V30 27 1 25 3
M  V30 28 1 23 12
M  V30 29 2 22 14
M  V30 30 1 21 16
M  V30 31 1 1 28
M  V30 32 1 1 29
M  V30 33 1 1 30
M  V30 34 1 4 31
M  V30 35 1 5 32
M  V30 36 1 6 33
M  V30 37 1 8 34
M  V30 38 1 8 35
M  V30 39 1 9 36
M  V30 40 1 13 37
M  V30 41 1 17 38
M  V30 42 1 18 39
M  V30 43 1 19 40
M  V30 44 1 20 41
M  V30 45 1 24 42
M  V30 46 1 24 43
M  V30 47 1 24 44
M  V30 48 1 27 45
M  V30 49 1 27 46
M  V30 50 1 27 47
M  V30 END BOND
M  V30 END CTAB
M  END
>  <Dataset>  (724) 
ChEMBL_Kinases

>  <Ligand_Instance>  (724) 
nan

>  <PDB_ID>  (724) 
nan

>  <Standardized_SMILES>  (724) 
COc1cccc(CNC(=O)c2cc3oc4ccccc4c3n2C)c1OC

>  <Name>  (724) 
nan

>  <Pocket>  (724) 
nan

>  <ATP_Site>  (724) 
nan

>  <Peripheral>  (724) 
nan

>  <Num_H_Atoms_ProtBoundConf>  (724) 
nan

>  <Num_Resolved_Atoms>  (724) 
nan

>  <Num_Not_Resolved_Atoms>  (724) 
nan

$$$$
CHEMBL1311913
     RDKit          3D

  0  0  0  0  0  0  0  0  0  0999 V3000
M  V30 BEGIN CTAB
M  V30 COUNTS 36 39 0 0 0
M  V30 BEGIN ATOM
M  V30 1 O -1.560860 -2.202941 0.563472 0
M  V30 2 C -0.556698 -1.500931 0.724656 0
M  V30 3 C 0.656412 -2.157242 0.971783 0
M  V30 4 C 0.418499 -3.346550 1.616761 0
M  V30 5 C 1.567717 -4.069485 1.957783 0
M  V30 6 C 2.852129 -3.649706 1.683592 0
M  V30 7 C 3.057347 -2.430786 1.023908 0
M  V30 8 C 1.932728 -1.719612 0.685414 0
M  V30 9 C 2.279237 -0.567926 0.027491 0
M  V30 10 C 3.507284 -0.723401 -0.565241 0
M  V30 11 C 3.994288 0.395427 -1.254641 0
M  V30 12 C 3.264726 1.544586 -1.311057 0
M  V30 13 C 2.011108 1.705708 -0.709915 0
M  V30 14 C 1.555738 0.591447 -0.039151 0
M  V30 15 C 0.278957 0.843691 0.480159 0
M  V30 16 O 0.005867 2.027463 0.786174 0
M  V30 17 N -0.660068 -0.136811 0.659456 0
M  V30 18 C -1.987568 0.352724 0.804997 0
M  V30 19 C -2.521386 1.164356 1.779766 0
M  V30 20 C -3.846598 1.521644 1.729236 0
M  V30 21 C -4.690848 1.094411 0.721089 0
M  V30 22 C -4.153433 0.274870 -0.263886 0
M  V30 23 C -2.818386 -0.091723 -0.222898 0
M  V30 24 H -0.587787 -3.629886 1.805798 0
M  V30 25 H 1.406708 -5.012358 2.467336 0
M  V30 26 H 3.656066 -4.309728 2.005373 0
M  V30 27 H 4.094347 -2.208422 0.902514 0
M  V30 28 H 4.164418 -1.563553 -0.628705 0
M  V30 29 H 4.949503 0.401608 -1.763196 0
M  V30 30 H 3.637636 2.429341 -1.848907 0
M  V30 31 H 1.396510 2.581932 -0.720673 0
M  V30 32 H -1.798917 1.453474 2.528492 0
M  V30 33 H -4.206610 2.165405 2.530281 0
M  V30 34 H -5.709925 1.406392 0.737717 0
M  V30 35 H -4.849499 -0.029848 -1.024258 0
M  V30 36 H -2.524974 -0.730441 -1.045734 0
M  V30 END ATOM
M  V30 BEGIN BOND
M  V30 1 2 1 2
M  V30 2 1 2 3
M  V30 3 2 3 4
M  V30 4 1 4 5
M  V30 5 2 5 6
M  V30 6 1 6 7
M  V30 7 2 7 8
M  V30 8 1 8 9
M  V30 9 2 9 10
M  V30 10 1 10 11
M  V30 11 2 11 12
M  V30 12 1 12 13
M  V30 13 2 13 14
M  V30 14 1 14 15
M  V30 15 2 15 16
M  V30 16 1 15 17
M  V30 17 1 17 18
M  V30 18 2 18 19
M  V30 19 1 19 20
M  V30 20 2 20 21
M  V30 21 1 21 22
M  V30 22 2 22 23
M  V30 23 1 17 2
M  V30 24 1 23 18
M  V30 25 1 8 3
M  V30 26 1 14 9
M  V30 27 1 4 24
M  V30 28 1 5 25
M  V30 29 1 6 26
M  V30 30 1 7 27
M  V30 31 1 10 28
M  V30 32 1 11 29
M  V30 33 1 12 30
M  V30 34 1 13 31
M  V30 35 1 19 32
M  V30 36 1 20 33
M  V30 37 1 21 34
M  V30 38 1 22 35
M  V30 39 1 23 36
M  V30 END BOND
M  V30 END CTAB
M  END
>  <Dataset>  (725) 
ChEMBL_Kinases

>  <Ligand_Instance>  (725) 
nan

>  <PDB_ID>  (725) 
nan

>  <Standardized_SMILES>  (725) 
O=c1c2ccccc2c2ccccc2c(=O)n1-c1ccccc1

>  <Name>  (725) 
nan

>  <Pocket>  (725) 
nan

>  <ATP_Site>  (725) 
nan

>  <Peripheral>  (725) 
nan

>  <Num_H_Atoms_ProtBoundConf>  (725) 
nan

>  <Num_Resolved_Atoms>  (725) 
nan

>  <Num_Not_Resolved_Atoms>  (725) 
nan

$$$$
CHEMBL1311847
     RDKit          3D

  0  0  0  0  0  0  0  0  0  0999 V3000
M  V30 BEGIN CTAB
M  V30 COUNTS 56 60 0 0 0
M  V30 BEGIN ATOM
M  V30 1 C 4.417612 -7.045354 3.402201 0
M  V30 2 C 3.895969 -5.703987 2.983834 0
M  V30 3 C 4.715236 -4.686922 2.501482 0
M  V30 4 C 4.164345 -3.470906 2.132964 0
M  V30 5 C 2.798157 -3.269124 2.245222 0
M  V30 6 N 2.258942 -2.091776 1.889339 0
M  V30 7 C 0.947578 -1.821935 1.969441 0
M  V30 8 N 0.472983 -0.546323 1.569714 0
M  V30 9 C 1.429320 0.430352 1.078232 0
M  V30 10 C 0.946662 0.827495 -0.323677 0
M  V30 11 N -0.282678 1.578178 -0.164701 0
M  V30 12 C -0.184536 2.960148 -0.516044 0
M  V30 13 C -1.518292 3.586791 -0.295914 0
M  V30 14 N -1.999902 4.168793 0.814084 0
M  V30 15 N -3.221958 4.577491 0.535994 0
M  V30 16 N -3.482252 4.254494 -0.711353 0
M  V30 17 N -2.437014 3.629018 -1.272959 0
M  V30 18 C -2.491484 3.183928 -2.630352 0
M  V30 19 C -3.003792 1.807882 -2.808342 0
M  V30 20 C -4.351883 1.550905 -2.973075 0
M  V30 21 C -4.897535 0.295311 -3.144687 0
M  V30 22 C -4.047411 -0.801297 -3.155503 0
M  V30 23 C -2.683495 -0.596881 -2.993905 0
M  V30 24 C -2.195383 0.676534 -2.826702 0
M  V30 25 C -0.842359 1.416730 1.158743 0
M  V30 26 C -0.867354 -0.047745 1.576929 0
M  V30 27 C 0.181482 -2.858498 2.451648 0
M  V30 28 C -1.229483 -2.671940 2.575191 0
M  V30 29 N -2.369965 -2.540278 2.681733 0
M  V30 30 C 0.678324 -4.087155 2.832021 0
M  V30 31 C 2.034443 -4.309506 2.728523 0
M  V30 32 C 2.532610 -5.538473 3.108928 0
M  V30 33 H 4.518403 -7.114124 4.497843 0
M  V30 34 H 3.684419 -7.819580 3.069749 0
M  V30 35 H 5.387745 -7.266021 2.915552 0
M  V30 36 H 5.789641 -4.907158 2.435594 0
M  V30 37 H 4.846490 -2.691915 1.756227 0
M  V30 38 H 1.524420 1.308025 1.724943 0
M  V30 39 H 2.423327 -0.066239 0.908714 0
M  V30 40 H 1.753590 1.375967 -0.821455 0
M  V30 41 H 0.788429 -0.118440 -0.886362 0
M  V30 42 H 0.593126 3.456538 0.122135 0
M  V30 43 H 0.136360 3.058195 -1.576564 0
M  V30 44 H -3.108177 3.874195 -3.265653 0
M  V30 45 H -1.477656 3.193221 -3.123403 0
M  V30 46 H -5.081507 2.352376 -2.976408 0
M  V30 47 H -5.958613 0.129437 -3.271099 0
M  V30 48 H -4.364878 -1.823887 -3.282037 0
M  V30 49 H -1.978695 -1.441927 -2.997018 0
M  V30 50 H -1.143353 0.791088 -2.706585 0
M  V30 51 H -0.347973 2.072619 1.896788 0
M  V30 52 H -1.904133 1.787211 1.066420 0
M  V30 53 H -1.204952 -0.029619 2.636706 0
M  V30 54 H -1.546085 -0.593697 0.894196 0
M  V30 55 H 0.041861 -4.867989 3.203316 0
M  V30 56 H 1.884828 -6.320094 3.482237 0
M  V30 END ATOM
M  V30 BEGIN BOND
M  V30 1 1 1 2
M  V30 2 2 2 3
M  V30 3 1 3 4
M  V30 4 2 4 5
M  V30 5 1 5 6
M  V30 6 2 6 7
M  V30 7 1 7 8
M  V30 8 1 8 9
M  V30 9 1 9 10
M  V30 10 1 10 11
M  V30 11 1 11 12
M  V30 12 1 12 13
M  V30 13 2 13 14
M  V30 14 1 14 15
M  V30 15 2 15 16
M  V30 16 1 16 17
M  V30 17 1 17 18
M  V30 18 1 18 19
M  V30 19 2 19 20
M  V30 20 1 20 21
M  V30 21 2 21 22
M  V30 22 1 22 23
M  V30 23 2 23 24
M  V30 24 1 11 25
M  V30 25 1 25 26
M  V30 26 1 7 27
M  V30 27 1 27 28
M  V30 28 3 28 29
M  V30 29 2 27 30
M  V30 30 1 30 31
M  V30 31 2 31 32
M  V30 32 1 32 2
M  V30 33 1 31 5
M  V30 34 1 26 8
M  V30 35 1 17 13
M  V30 36 1 24 19
M  V30 37 1 1 33
M  V30 38 1 1 34
M  V30 39 1 1 35
M  V30 40 1 3 36
M  V30 41 1 4 37
M  V30 42 1 9 38
M  V30 43 1 9 39
M  V30 44 1 10 40
M  V30 45 1 10 41
M  V30 46 1 12 42
M  V30 47 1 12 43
M  V30 48 1 18 44
M  V30 49 1 18 45
M  V30 50 1 20 46
M  V30 51 1 21 47
M  V30 52 1 22 48
M  V30 53 1 23 49
M  V30 54 1 24 50
M  V30 55 1 25 51
M  V30 56 1 25 52
M  V30 57 1 26 53
M  V30 58 1 26 54
M  V30 59 1 30 55
M  V30 60 1 32 56
M  V30 END BOND
M  V30 END CTAB
M  END
>  <Dataset>  (726) 
ChEMBL_Kinases

>  <Ligand_Instance>  (726) 
nan

>  <PDB_ID>  (726) 
nan

>  <Standardized_SMILES>  (726) 
Cc1ccc2nc(N3CCN(Cc4nnnn4Cc4ccccc4)CC3)c(C#N)cc2c1

>  <Name>  (726) 
nan

>  <Pocket>  (726) 
nan

>  <ATP_Site>  (726) 
nan

>  <Peripheral>  (726) 
nan

>  <Num_H_Atoms_ProtBoundConf>  (726) 
nan

>  <Num_Resolved_Atoms>  (726) 
nan

>  <Num_Not_Resolved_Atoms>  (726) 
nan

$$$$
CHEMBL1311826
     RDKit          3D

  0  0  0  0  0  0  0  0  0  0999 V3000
M  V30 BEGIN CTAB
M  V30 COUNTS 37 39 0 0 0
M  V30 BEGIN ATOM
M  V30 1 C -1.268914 -4.950971 0.771673 0
M  V30 2 O -1.200953 -3.667663 0.178076 0
M  V30 3 C 0.050113 -3.151863 -0.136352 0
M  V30 4 C 1.253483 -3.788496 0.081456 0
M  V30 5 C 2.460934 -3.202744 -0.262397 0
M  V30 6 C 2.453616 -1.939243 -0.842237 0
M  V30 7 C 3.746313 -1.319017 -1.207190 0
M  V30 8 C 1.245254 -1.328874 -1.047674 0
M  V30 9 C 0.009742 -1.877320 -0.719214 0
M  V30 10 N -1.187388 -1.192150 -0.959698 0
M  V30 11 N -1.549870 -0.055090 -0.718185 0
M  V30 12 C -0.949616 1.034791 -0.112910 0
M  V30 13 C -0.210141 2.007000 -0.797170 0
M  V30 14 C 0.388365 3.093816 -0.193241 0
M  V30 15 C 0.250386 3.233595 1.174176 0
M  V30 16 O 0.844419 4.320459 1.805152 0
M  V30 17 C -0.471002 2.308844 1.933080 0
M  V30 18 N -0.609574 2.439028 3.267021 0
M  V30 19 C -1.301380 1.555324 4.006893 0
M  V30 20 C -1.882061 0.484670 3.358398 0
M  V30 21 C -1.765536 0.307450 1.975193 0
M  V30 22 C -1.038087 1.250752 1.251501 0
M  V30 23 H -1.076661 -5.761889 0.027776 0
M  V30 24 H -0.513860 -5.026847 1.571784 0
M  V30 25 H -2.274837 -5.060425 1.246877 0
M  V30 26 H 1.223808 -4.770060 0.534104 0
M  V30 27 H 3.358152 -3.779568 -0.053085 0
M  V30 28 H 3.714239 -0.213286 -1.132202 0
M  V30 29 H 3.993477 -1.616808 -2.247024 0
M  V30 30 H 4.573848 -1.702368 -0.555419 0
M  V30 31 H 1.321411 -0.353337 -1.500430 0
M  V30 32 H -0.112891 1.878893 -1.875147 0
M  V30 33 H 0.944253 3.798021 -0.810449 0
M  V30 34 H 1.244015 4.126504 2.736670 0
M  V30 35 H -1.381302 1.707541 5.073930 0
M  V30 36 H -2.423024 -0.184754 4.020295 0
M  V30 37 H -2.261086 -0.560339 1.598941 0
M  V30 END ATOM
M  V30 BEGIN BOND
M  V30 1 1 1 2
M  V30 2 1 2 3
M  V30 3 2 3 4
M  V30 4 1 4 5
M  V30 5 2 5 6
M  V30 6 1 6 7
M  V30 7 1 6 8
M  V30 8 2 8 9
M  V30 9 1 9 10
M  V30 10 2 10 11 CFG=2
M  V30 11 1 11 12
M  V30 12 2 12 13
M  V30 13 1 13 14
M  V30 14 2 14 15
M  V30 15 1 15 16
M  V30 16 1 15 17
M  V30 17 2 17 18
M  V30 18 1 18 19
M  V30 19 2 19 20
M  V30 20 1 20 21
M  V30 21 2 21 22
M  V30 22 1 9 3
M  V30 23 1 22 12
M  V30 24 1 22 17
M  V30 25 1 1 23
M  V30 26 1 1 24
M  V30 27 1 1 25
M  V30 28 1 4 26
M  V30 29 1 5 27
M  V30 30 1 7 28
M  V30 31 1 7 29
M  V30 32 1 7 30
M  V30 33 1 8 31
M  V30 34 1 13 32
M  V30 35 1 14 33
M  V30 36 1 16 34
M  V30 37 1 19 35
M  V30 38 1 20 36
M  V30 39 1 21 37
M  V30 END BOND
M  V30 END CTAB
M  END
>  <Dataset>  (727) 
ChEMBL_Kinases

>  <Ligand_Instance>  (727) 
nan

>  <PDB_ID>  (727) 
nan

>  <Standardized_SMILES>  (727) 
COc1ccc(C)cc1N=Nc1ccc(O)c2ncccc12

>  <Name>  (727) 
nan

>  <Pocket>  (727) 
nan

>  <ATP_Site>  (727) 
nan

>  <Peripheral>  (727) 
nan

>  <Num_H_Atoms_ProtBoundConf>  (727) 
nan

>  <Num_Resolved_Atoms>  (727) 
nan

>  <Num_Not_Resolved_Atoms>  (727) 
nan

$$$$
CHEMBL1311651
     RDKit          3D

  0  0  0  0  0  0  0  0  0  0999 V3000
M  V30 BEGIN CTAB
M  V30 COUNTS 43 46 0 0 0
M  V30 BEGIN ATOM
M  V30 1 C 1.172682 -6.038418 0.653778 0
M  V30 2 C 0.387424 -4.956813 0.010267 0
M  V30 3 O -0.504188 -5.256127 -0.808939 0
M  V30 4 C 0.654654 -3.564125 0.331337 0
M  V30 5 C 1.638617 -3.235134 1.235643 0
M  V30 6 C 1.866397 -1.917067 1.516774 0
M  V30 7 C 1.105208 -0.977582 0.886222 0
M  V30 8 C 0.103425 -1.208043 -0.028405 0
M  V30 9 N -0.673382 -0.230126 -0.670791 0
M  V30 10 C -0.629367 1.181735 -0.549291 0
M  V30 11 C 0.684294 1.802813 -0.906597 0
M  V30 12 N 1.341570 1.537844 -2.075099 0
M  V30 13 C 2.525890 2.166964 -2.334132 0
M  V30 14 C 3.020418 3.062423 -1.386485 0
M  V30 15 C 2.346897 3.323223 -0.206085 0
M  V30 16 C 1.149432 2.694350 0.068917 0
M  V30 17 C 0.137491 2.644878 1.146653 0
M  V30 18 O 0.290357 3.357196 2.172703 0
M  V30 19 N -0.896642 1.713469 0.762314 0
M  V30 20 C -1.978327 1.473261 1.697147 0
M  V30 21 C -1.647983 0.345748 2.609893 0
M  V30 22 C -0.987534 0.591463 3.819009 0
M  V30 23 C -0.786726 -0.594208 4.497206 0
M  V30 24 C -1.357556 -1.532064 3.630978 0
M  V30 25 O -1.840298 -0.949383 2.559360 0
M  V30 26 C -0.073325 -2.563742 -0.265781 0
M  V30 27 H 2.263530 -5.767787 0.662766 0
M  V30 28 H 1.046156 -7.002023 0.080464 0
M  V30 29 H 0.825480 -6.155661 1.694181 0
M  V30 30 H 2.210371 -4.015831 1.704951 0
M  V30 31 H 2.640659 -1.675632 2.227356 0
M  V30 32 H 1.340251 0.036719 1.156193 0
M  V30 33 H -1.396289 -0.636893 -1.344206 0
M  V30 34 H -1.362494 1.630023 -1.274772 0
M  V30 35 H 3.042686 1.952817 -3.262546 0
M  V30 36 H 3.968567 3.575669 -1.578674 0
M  V30 37 H 2.696204 4.006308 0.547658 0
M  V30 38 H -2.245047 2.374575 2.285845 0
M  V30 39 H -2.889609 1.157393 1.110926 0
M  V30 40 H -0.657233 1.552120 4.217244 0
M  V30 41 H -0.315608 -0.791202 5.451435 0
M  V30 42 H -1.394737 -2.605961 3.824180 0
M  V30 43 H -0.847351 -2.886549 -0.980808 0
M  V30 END ATOM
M  V30 BEGIN BOND
M  V30 1 1 1 2
M  V30 2 2 2 3
M  V30 3 1 2 4
M  V30 4 2 4 5
M  V30 5 1 5 6
M  V30 6 2 6 7
M  V30 7 1 7 8
M  V30 8 1 8 9
M  V30 9 1 9 10
M  V30 10 1 10 11
M  V30 11 2 11 12
M  V30 12 1 12 13
M  V30 13 2 13 14
M  V30 14 1 14 15
M  V30 15 2 15 16
M  V30 16 1 16 17
M  V30 17 2 17 18
M  V30 18 1 17 19
M  V30 19 1 19 20
M  V30 20 1 20 21
M  V30 21 2 21 22
M  V30 22 1 22 23
M  V30 23 2 23 24
M  V30 24 1 24 25
M  V30 25 2 8 26
M  V30 26 1 26 4
M  V30 27 1 19 10
M  V30 28 1 25 21
M  V30 29 1 16 11
M  V30 30 1 1 27
M  V30 31 1 1 28
M  V30 32 1 1 29
M  V30 33 1 5 30
M  V30 34 1 6 31
M  V30 35 1 7 32
M  V30 36 1 9 33
M  V30 37 1 10 34
M  V30 38 1 13 35
M  V30 39 1 14 36
M  V30 40 1 15 37
M  V30 41 1 20 38
M  V30 42 1 20 39
M  V30 43 1 22 40
M  V30 44 1 23 41
M  V30 45 1 24 42
M  V30 46 1 26 43
M  V30 END BOND
M  V30 END CTAB
M  END
>  <Dataset>  (728) 
ChEMBL_Kinases

>  <Ligand_Instance>  (728) 
nan

>  <PDB_ID>  (728) 
nan

>  <Standardized_SMILES>  (728) 
CC(=O)c1cccc(NC2c3ncccc3C(=O)N2Cc2ccco2)c1

>  <Name>  (728) 
nan

>  <Pocket>  (728) 
nan

>  <ATP_Site>  (728) 
nan

>  <Peripheral>  (728) 
nan

>  <Num_H_Atoms_ProtBoundConf>  (728) 
nan

>  <Num_Resolved_Atoms>  (728) 
nan

>  <Num_Not_Resolved_Atoms>  (728) 
nan

$$$$
CHEMBL1311642
     RDKit          3D

  0  0  0  0  0  0  0  0  0  0999 V3000
M  V30 BEGIN CTAB
M  V30 COUNTS 45 47 0 0 0
M  V30 BEGIN ATOM
M  V30 1 C -1.193641 -6.425759 -1.190357 0
M  V30 2 C -1.500799 -6.466968 -2.686159 0
M  V30 3 S -0.161097 -5.672336 -3.619685 0
M  V30 4 C -0.059378 -3.967753 -3.307610 0
M  V30 5 N 0.721380 -3.489715 -2.272900 0
M  V30 6 N 0.844307 -2.324968 -1.996365 0
M  V30 7 C 0.222585 -1.303646 -2.674029 0
M  V30 8 N 0.142395 0.116266 -2.628888 0
M  V30 9 C 0.913766 0.631441 -1.578563 0
M  V30 10 O 1.572684 -0.088047 -0.797186 0
M  V30 11 C 0.903459 2.134179 -1.443155 0
M  V30 12 S 1.943384 2.626357 -0.031076 0
M  V30 13 C 1.183364 2.059585 1.509404 0
M  V30 14 N 0.035219 1.406395 1.526957 0
M  V30 15 C -0.529272 0.983119 2.697620 0
M  V30 16 C 0.187698 1.288770 3.844741 0
M  V30 17 C 1.380994 1.971895 3.773453 0
M  V30 18 O 1.896078 2.162851 4.920708 0
M  V30 19 N 1.905509 2.372978 2.601914 0
M  V30 20 C 3.157448 3.077363 2.665022 0
M  V30 21 C 3.037922 4.566244 2.795928 0
M  V30 22 S -0.830958 0.597237 5.144964 0
M  V30 23 C -1.789723 -0.538436 4.096191 0
M  V30 24 C -1.000608 -1.799132 3.968575 0
M  V30 25 C -1.790651 0.263413 2.812625 0
M  V30 26 S -0.720195 -2.310566 -3.968020 0
M  V30 27 H -0.229386 -6.976828 -1.053770 0
M  V30 28 H -1.996781 -6.933990 -0.629388 0
M  V30 29 H -1.118906 -5.391574 -0.814942 0
M  V30 30 H -2.474244 -5.989374 -2.896369 0
M  V30 31 H -1.606983 -7.537115 -2.956879 0
M  V30 32 H -0.441993 0.578792 -3.336124 0
M  V30 33 H -0.140350 2.434592 -1.258138 0
M  V30 34 H 1.273450 2.619531 -2.346634 0
M  V30 35 H 3.731322 2.901892 1.720038 0
M  V30 36 H 3.826331 2.631046 3.458336 0
M  V30 37 H 2.108513 4.907564 3.265078 0
M  V30 38 H 3.878721 4.893944 3.475323 0
M  V30 39 H 3.191235 5.118673 1.847810 0
M  V30 40 H -2.813776 -0.685084 4.479098 0
M  V30 41 H -0.569547 -2.038034 4.983494 0
M  V30 42 H -1.564652 -2.647154 3.537333 0
M  V30 43 H -0.129945 -1.579214 3.319165 0
M  V30 44 H -2.687235 0.922809 2.764799 0
M  V30 45 H -1.878813 -0.474249 1.997808 0
M  V30 END ATOM
M  V30 BEGIN BOND
M  V30 1 1 1 2
M  V30 2 1 2 3
M  V30 3 1 3 4
M  V30 4 2 4 5
M  V30 5 1 5 6
M  V30 6 2 6 7
M  V30 7 1 7 8
M  V30 8 1 8 9
M  V30 9 2 9 10
M  V30 10 1 9 11
M  V30 11 1 11 12
M  V30 12 1 12 13
M  V30 13 2 13 14
M  V30 14 1 14 15
M  V30 15 2 15 16
M  V30 16 1 16 17
M  V30 17 2 17 18
M  V30 18 1 17 19
M  V30 19 1 19 20
M  V30 20 1 20 21
M  V30 21 1 16 22
M  V30 22 1 22 23
M  V30 23 1 23 24
M  V30 24 1 23 25
M  V30 25 1 7 26
M  V30 26 1 26 4
M  V30 27 1 19 13
M  V30 28 1 25 15
M  V30 29 1 1 27
M  V30 30 1 1 28
M  V30 31 1 1 29
M  V30 32 1 2 30
M  V30 33 1 2 31
M  V30 34 1 8 32
M  V30 35 1 11 33
M  V30 36 1 11 34
M  V30 37 1 20 35
M  V30 38 1 20 36
M  V30 39 1 21 37
M  V30 40 1 21 38
M  V30 41 1 21 39
M  V30 42 1 23 40
M  V30 43 1 24 41
M  V30 44 1 24 42
M  V30 45 1 24 43
M  V30 46 1 25 44
M  V30 47 1 25 45
M  V30 END BOND
M  V30 END CTAB
M  END
>  <Dataset>  (729) 
ChEMBL_Kinases

>  <Ligand_Instance>  (729) 
nan

>  <PDB_ID>  (729) 
nan

>  <Standardized_SMILES>  (729) 
CCSc1nnc(NC(=O)CSc2nc3c(c(=O)n2CC)SC(C)C3)s1

>  <Name>  (729) 
nan

>  <Pocket>  (729) 
nan

>  <ATP_Site>  (729) 
nan

>  <Peripheral>  (729) 
nan

>  <Num_H_Atoms_ProtBoundConf>  (729) 
nan

>  <Num_Resolved_Atoms>  (729) 
nan

>  <Num_Not_Resolved_Atoms>  (729) 
nan

$$$$
CHEMBL1311513
     RDKit          3D

  0  0  0  0  0  0  0  0  0  0999 V3000
M  V30 BEGIN CTAB
M  V30 COUNTS 56 59 0 0 0
M  V30 BEGIN ATOM
M  V30 1 O -2.183959 -4.814674 0.119241 0
M  V30 2 C -2.723086 -3.743714 -0.273486 0
M  V30 3 C -3.483891 -3.305264 -1.433069 0
M  V30 4 C -4.691775 -3.844099 -1.822768 0
M  V30 5 C -5.336214 -3.349618 -2.948571 0
M  V30 6 C -4.744551 -2.321212 -3.655041 0
M  V30 7 C -3.545472 -1.764190 -3.294176 0
M  V30 8 C -2.916005 -2.267300 -2.171032 0
M  V30 9 N -2.470488 -2.756410 0.750523 0
M  V30 10 C -1.709009 -3.137217 1.942352 0
M  V30 11 C -0.307918 -2.631808 1.629558 0
M  V30 12 N -0.403029 -1.294466 1.026582 0
M  V30 13 C 0.753047 -0.851445 0.292281 0
M  V30 14 C 1.893297 -1.608017 0.331806 0
M  V30 15 C 2.996825 -1.195651 -0.366961 0
M  V30 16 C 2.962944 -0.045126 -1.094157 0
M  V30 17 N 4.161345 0.278489 -1.767803 0 CHG=1 VAL=4
M  V30 18 O 4.840636 1.236787 -2.145726 0
M  V30 19 O 5.053041 -0.633208 -2.266873 0 CHG=-1 VAL=1
M  V30 20 C 1.837777 0.775639 -1.181040 0
M  V30 21 N 1.826063 1.939732 -1.962301 0
M  V30 22 C 0.877500 2.962797 -2.232299 0
M  V30 23 C 0.662544 3.972562 -1.155753 0
M  V30 24 C 1.933485 4.738173 -0.821636 0
M  V30 25 C 1.947419 4.802400 0.692342 0
M  V30 26 C 0.575670 4.269411 1.044724 0
M  V30 27 O 0.227212 3.407175 0.003646 0
M  V30 28 C 0.770147 0.296836 -0.454160 0
M  V30 29 C -1.622661 -0.587125 1.244164 0
M  V30 30 C -2.867149 -1.361924 0.804570 0
M  V30 31 H -5.099864 -4.652171 -1.219702 0
M  V30 32 H -6.282650 -3.806138 -3.213436 0
M  V30 33 H -5.292263 -1.980073 -4.518781 0
M  V30 34 H -3.105077 -0.957018 -3.868909 0
M  V30 35 H -1.968697 -1.792071 -1.927158 0
M  V30 36 H -1.722073 -4.231883 2.079018 0
M  V30 37 H -2.087970 -2.654775 2.854940 0
M  V30 38 H 0.386631 -2.687893 2.462972 0
M  V30 39 H 0.074555 -3.275741 0.782986 0
M  V30 40 H 1.945813 -2.525219 0.904183 0
M  V30 41 H 3.869712 -1.809872 -0.314409 0
M  V30 42 H 2.738317 2.117846 -2.485039 0
M  V30 43 H -0.131190 2.498084 -2.438678 0
M  V30 44 H 1.111226 3.504483 -3.181171 0
M  V30 45 H -0.070031 4.746140 -1.536208 0
M  V30 46 H 2.828200 4.164253 -1.166740 0
M  V30 47 H 1.927085 5.750562 -1.268711 0
M  V30 48 H 2.714817 4.101559 1.117272 0
M  V30 49 H 2.105761 5.814056 1.092361 0
M  V30 50 H -0.142597 5.118301 1.064392 0
M  V30 51 H 0.575670 3.746250 2.013247 0
M  V30 52 H -0.157093 0.827349 -0.452767 0
M  V30 53 H -1.742637 -0.367242 2.348086 0
M  V30 54 H -1.692829 0.379142 0.755980 0
M  V30 55 H -3.661047 -1.292539 1.599186 0
M  V30 56 H -3.316832 -0.983653 -0.111247 0
M  V30 END ATOM
M  V30 BEGIN BOND
M  V30 1 2 1 2
M  V30 2 1 2 3
M  V30 3 2 3 4
M  V30 4 1 4 5
M  V30 5 2 5 6
M  V30 6 1 6 7
M  V30 7 2 7 8
M  V30 8 1 2 9
M  V30 9 1 9 10
M  V30 10 1 10 11
M  V30 11 1 11 12
M  V30 12 1 12 13
M  V30 13 2 13 14
M  V30 14 1 14 15
M  V30 15 2 15 16
M  V30 16 1 16 17
M  V30 17 2 17 18
M  V30 18 1 17 19
M  V30 19 1 16 20
M  V30 20 1 20 21
M  V30 21 1 21 22
M  V30 22 1 22 23
M  V30 23 1 23 24
M  V30 24 1 24 25
M  V30 25 1 25 26
M  V30 26 1 26 27
M  V30 27 2 20 28
M  V30 28 1 12 29
M  V30 29 1 29 30
M  V30 30 1 8 3
M  V30 31 1 30 9
M  V30 32 1 28 13
M  V30 33 1 27 23
M  V30 34 1 4 31
M  V30 35 1 5 32
M  V30 36 1 6 33
M  V30 37 1 7 34
M  V30 38 1 8 35
M  V30 39 1 10 36
M  V30 40 1 10 37
M  V30 41 1 11 38
M  V30 42 1 11 39
M  V30 43 1 14 40
M  V30 44 1 15 41
M  V30 45 1 21 42
M  V30 46 1 22 43
M  V30 47 1 22 44
M  V30 48 1 23 45
M  V30 49 1 24 46
M  V30 50 1 24 47
M  V30 51 1 25 48
M  V30 52 1 25 49
M  V30 53 1 26 50
M  V30 54 1 26 51
M  V30 55 1 28 52
M  V30 56 1 29 53
M  V30 57 1 29 54
M  V30 58 1 30 55
M  V30 59 1 30 56
M  V30 END BOND
M  V30 END CTAB
M  END
>  <Dataset>  (730) 
ChEMBL_Kinases

>  <Ligand_Instance>  (730) 
nan

>  <PDB_ID>  (730) 
nan

>  <Standardized_SMILES>  (730) 
O=C(c1ccccc1)N1CCN(c2ccc([N+](=O)[O-])c(NCC3CCCO3)c2)CC1

>  <Name>  (730) 
nan

>  <Pocket>  (730) 
nan

>  <ATP_Site>  (730) 
nan

>  <Peripheral>  (730) 
nan

>  <Num_H_Atoms_ProtBoundConf>  (730) 
nan

>  <Num_Resolved_Atoms>  (730) 
nan

>  <Num_Not_Resolved_Atoms>  (730) 
nan

$$$$
CHEMBL1311470
     RDKit          3D

  0  0  0  0  0  0  0  0  0  0999 V3000
M  V30 BEGIN CTAB
M  V30 COUNTS 44 46 0 0 0
M  V30 BEGIN ATOM
M  V30 1 C 1.112980 -3.923925 -0.965631 0
M  V30 2 C 1.112740 -3.318725 0.397323 0
M  V30 3 C 1.776614 -4.296160 1.367956 0
M  V30 4 C -0.301100 -3.075401 0.880205 0
M  V30 5 C 1.906553 -2.046495 0.488697 0
M  V30 6 C 3.348192 -2.211528 0.139331 0
M  V30 7 C 3.876415 -0.908861 -0.404574 0
M  V30 8 C 3.301814 0.288595 0.240628 0
M  V30 9 O 3.648475 1.409744 0.827482 0
M  V30 10 N 2.615153 2.099195 1.212328 0
M  V30 11 C 1.473378 1.458705 0.895240 0
M  V30 12 C 0.042539 1.723859 1.063160 0
M  V30 13 O -0.888028 0.967382 0.680448 0
M  V30 14 N -0.423901 2.906913 1.698627 0
M  V30 15 C -1.862521 2.919049 1.732701 0
M  V30 16 C -2.583641 2.380360 2.779076 0
M  V30 17 C -3.961192 2.450016 2.702095 0
M  V30 18 C -4.579639 3.039900 1.612107 0
M  V30 19 F -5.939554 3.110061 1.533460 0
M  V30 20 C -3.816795 3.565356 0.589079 0
M  V30 21 C -2.443330 3.511987 0.635451 0
M  V30 22 F -1.773906 4.049145 -0.405992 0
M  V30 23 C 1.903642 0.300865 0.274091 0
M  V30 24 C 1.358490 -0.945699 -0.373468 0
M  V30 25 H 1.367269 -5.012867 -0.932794 0
M  V30 26 H 0.083837 -3.878306 -1.400833 0
M  V30 27 H 1.785017 -3.445919 -1.683509 0
M  V30 28 H 2.845954 -4.310094 1.133054 0
M  V30 29 H 1.676379 -3.811813 2.381998 0
M  V30 30 H 1.272079 -5.264439 1.402992 0
M  V30 31 H -0.575411 -3.817272 1.679698 0
M  V30 32 H -0.386030 -2.088413 1.395385 0
M  V30 33 H -0.996069 -3.159904 0.042804 0
M  V30 34 H 1.866461 -1.717855 1.568364 0
M  V30 35 H 3.914131 -2.502562 1.047858 0
M  V30 36 H 3.496180 -2.977639 -0.666519 0
M  V30 37 H 3.789316 -0.873573 -1.526648 0
M  V30 38 H 4.992633 -0.967577 -0.234954 0
M  V30 39 H 0.306145 3.595225 2.049101 0
M  V30 40 H -2.065110 1.929265 3.610801 0
M  V30 41 H -4.571343 2.039171 3.502513 0
M  V30 42 H -4.317819 4.024545 -0.258635 0
M  V30 43 H 0.256362 -0.925574 -0.423205 0
M  V30 44 H 1.754530 -0.959553 -1.409704 0
M  V30 END ATOM
M  V30 BEGIN BOND
M  V30 1 1 1 2
M  V30 2 1 2 3
M  V30 3 1 2 4
M  V30 4 1 2 5
M  V30 5 1 5 6
M  V30 6 1 6 7
M  V30 7 1 7 8
M  V30 8 1 8 9
M  V30 9 1 9 10
M  V30 10 2 10 11
M  V30 11 1 11 12
M  V30 12 2 12 13
M  V30 13 1 12 14
M  V30 14 1 14 15
M  V30 15 2 15 16
M  V30 16 1 16 17
M  V30 17 2 17 18
M  V30 18 1 18 19
M  V30 19 1 18 20
M  V30 20 2 20 21
M  V30 21 1 21 22
M  V30 22 1 11 23
M  V30 23 1 23 24
M  V30 24 1 24 5
M  V30 25 2 23 8
M  V30 26 1 21 15
M  V30 27 1 1 25
M  V30 28 1 1 26
M  V30 29 1 1 27
M  V30 30 1 3 28
M  V30 31 1 3 29
M  V30 32 1 3 30
M  V30 33 1 4 31
M  V30 34 1 4 32
M  V30 35 1 4 33
M  V30 36 1 5 34
M  V30 37 1 6 35
M  V30 38 1 6 36
M  V30 39 1 7 37
M  V30 40 1 7 38
M  V30 41 1 14 39
M  V30 42 1 16 40
M  V30 43 1 17 41
M  V30 44 1 20 42
M  V30 45 1 24 43
M  V30 46 1 24 44
M  V30 END BOND
M  V30 END CTAB
M  END
>  <Dataset>  (731) 
ChEMBL_Kinases

>  <Ligand_Instance>  (731) 
nan

>  <PDB_ID>  (731) 
nan

>  <Standardized_SMILES>  (731) 
CC(C)(C)C1CCc2onc(C(=O)Nc3ccc(F)cc3F)c2C1

>  <Name>  (731) 
nan

>  <Pocket>  (731) 
nan

>  <ATP_Site>  (731) 
nan

>  <Peripheral>  (731) 
nan

>  <Num_H_Atoms_ProtBoundConf>  (731) 
nan

>  <Num_Resolved_Atoms>  (731) 
nan

>  <Num_Not_Resolved_Atoms>  (731) 
nan

$$$$
CHEMBL1311354
     RDKit          3D

  0  0  0  0  0  0  0  0  0  0999 V3000
M  V30 BEGIN CTAB
M  V30 COUNTS 28 30 0 0 0
M  V30 BEGIN ATOM
M  V30 1 O 0.794435 -2.279406 2.628061 0
M  V30 2 C 1.131228 -1.174169 2.182353 0
M  V30 3 O 1.953224 -0.500370 2.952255 0
M  V30 4 C 2.397831 0.698942 2.605111 0
M  V30 5 C 3.258745 1.430557 3.388937 0
M  V30 6 C 3.669965 2.691403 2.925087 0
M  V30 7 C 3.212449 3.181105 1.705558 0
M  V30 8 Cl 3.860035 4.786350 1.339918 0
M  V30 9 C 2.339645 2.418554 0.934019 0
M  V30 10 C 1.954751 1.190220 1.406928 0
M  V30 11 N 1.104693 0.521585 0.584338 0
M  V30 12 C 0.668915 -0.703141 0.971195 0
M  V30 13 C -0.244851 -1.440713 0.139536 0
M  V30 14 C -1.312545 -2.149599 0.453295 0
M  V30 15 O -1.667698 -2.239387 1.780360 0
M  V30 16 C -2.102503 -2.823041 -0.571160 0
M  V30 17 C -1.959323 -2.889993 -1.938998 0
M  V30 18 C -2.974815 -3.662854 -2.494349 0
M  V30 19 C -3.706844 -4.038309 -1.393177 0
M  V30 20 O -3.190779 -3.547148 -0.308471 0
M  V30 21 H 3.584106 1.003724 4.333814 0
M  V30 22 H 4.335213 3.173156 3.618542 0
M  V30 23 H 2.062528 2.914879 0.007901 0
M  V30 24 H -0.004299 -1.398954 -0.937785 0
M  V30 25 H -2.144498 -1.500344 2.290461 0
M  V30 26 H -1.146846 -2.388183 -2.420615 0
M  V30 27 H -3.083327 -3.863230 -3.556792 0
M  V30 28 H -4.583830 -4.664620 -1.523712 0
M  V30 END ATOM
M  V30 BEGIN BOND
M  V30 1 2 1 2
M  V30 2 1 2 3
M  V30 3 1 3 4
M  V30 4 2 4 5
M  V30 5 1 5 6
M  V30 6 2 6 7
M  V30 7 1 7 8
M  V30 8 1 7 9
M  V30 9 2 9 10
M  V30 10 1 10 11
M  V30 11 2 11 12
M  V30 12 1 12 13
M  V30 13 2 13 14
M  V30 14 1 14 15
M  V30 15 1 14 16
M  V30 16 2 16 17
M  V30 17 1 17 18
M  V30 18 2 18 19
M  V30 19 1 19 20
M  V30 20 1 12 2
M  V30 21 1 20 16
M  V30 22 1 10 4
M  V30 23 1 5 21
M  V30 24 1 6 22
M  V30 25 1 9 23
M  V30 26 1 13 24
M  V30 27 1 15 25
M  V30 28 1 17 26
M  V30 29 1 18 27
M  V30 30 1 19 28
M  V30 END BOND
M  V30 END CTAB
M  END
>  <Dataset>  (732) 
ChEMBL_Kinases

>  <Ligand_Instance>  (732) 
nan

>  <PDB_ID>  (732) 
nan

>  <Standardized_SMILES>  (732) 
O=c1oc2ccc(Cl)cc2nc1/C=C(\O)c1ccco1

>  <Name>  (732) 
nan

>  <Pocket>  (732) 
nan

>  <ATP_Site>  (732) 
nan

>  <Peripheral>  (732) 
nan

>  <Num_H_Atoms_ProtBoundConf>  (732) 
nan

>  <Num_Resolved_Atoms>  (732) 
nan

>  <Num_Not_Resolved_Atoms>  (732) 
nan

$$$$
CHEMBL1312565
     RDKit          3D

  0  0  0  0  0  0  0  0  0  0999 V3000
M  V30 BEGIN CTAB
M  V30 COUNTS 57 61 0 0 0
M  V30 BEGIN ATOM
M  V30 1 C 0.283130 0.430811 3.258270 0
M  V30 2 C 0.747713 -0.376870 2.101309 0
M  V30 3 C 2.055421 -0.037183 1.537692 0
M  V30 4 C 3.274096 -0.395767 2.065926 0
M  V30 5 C 3.357388 -1.213360 3.299189 0
M  V30 6 N 4.399742 0.004734 1.429068 0
M  V30 7 C 4.397570 0.737588 0.301670 0
M  V30 8 N 5.372218 1.235226 -0.484281 0
M  V30 9 C 4.818181 1.904073 -1.504377 0
M  V30 10 N 3.496684 1.818214 -1.345859 0
M  V30 11 N 3.222752 1.107745 -0.246017 0
M  V30 12 C 2.073362 0.713908 0.381522 0
M  V30 13 N 0.893985 1.170388 -0.305517 0
M  V30 14 C 0.209596 2.406994 0.018719 0
M  V30 15 C -1.288842 2.296882 -0.016765 0
M  V30 16 C -1.815095 1.421448 -1.104565 0
M  V30 17 C -2.654824 0.301494 -0.546083 0
M  V30 18 O -2.815871 0.207412 0.698599 0
M  V30 19 N -3.254639 -0.634913 -1.424826 0
M  V30 20 C -4.085297 -1.763210 -1.065159 0
M  V30 21 C -3.211201 -2.841183 -0.554162 0
M  V30 22 C -2.722810 -3.728019 -1.504081 0
M  V30 23 C -1.905358 -4.786854 -1.209659 0
M  V30 24 C -1.550245 -4.981353 0.095209 0
M  V30 25 C -2.012889 -4.123570 1.070103 0
M  V30 26 C -2.835375 -3.062894 0.753086 0
M  V30 27 O -1.480049 -4.584804 2.270671 0
M  V30 28 C -1.033871 -5.927354 2.081972 0
M  V30 29 O -0.739345 -5.967812 0.677799 0
M  V30 30 C -0.777959 0.941486 -2.057741 0
M  V30 31 C 0.410979 0.305537 -1.380737 0
M  V30 32 H -0.851062 0.509284 3.228959 0
M  V30 33 H 0.477082 -0.031811 4.246444 0
M  V30 34 H 0.683164 1.462500 3.302390 0
M  V30 35 H 0.704467 -1.457122 2.434643 0
M  V30 36 H -0.059725 -0.341161 1.310723 0
M  V30 37 H 4.367660 -0.976064 3.752871 0
M  V30 38 H 3.398449 -2.300342 3.086873 0
M  V30 39 H 2.631714 -0.942255 4.069105 0
M  V30 40 H 5.335561 2.413880 -2.301282 0
M  V30 41 H 0.572686 3.262040 -0.580484 0
M  V30 42 H 0.475485 2.673230 1.086822 0
M  V30 43 H -1.717413 1.986535 0.980541 0
M  V30 44 H -1.668620 3.355969 -0.123462 0
M  V30 45 H -2.543282 2.020476 -1.706120 0
M  V30 46 H -3.090851 -0.509785 -2.447986 0
M  V30 47 H -4.722348 -2.091806 -1.894560 0
M  V30 48 H -4.781586 -1.419266 -0.252729 0
M  V30 49 H -2.977945 -3.617661 -2.568445 0
M  V30 50 H -1.546457 -5.455897 -1.988984 0
M  V30 51 H -3.212641 -2.383926 1.476054 0
M  V30 52 H -1.847745 -6.647996 2.286685 0
M  V30 53 H -0.130304 -6.171474 2.638131 0
M  V30 54 H -1.233282 0.244021 -2.771963 0
M  V30 55 H -0.436258 1.826732 -2.649585 0
M  V30 56 H 0.195469 -0.715763 -1.040397 0
M  V30 57 H 1.210651 0.215115 -2.174127 0
M  V30 END ATOM
M  V30 BEGIN BOND
M  V30 1 1 1 2
M  V30 2 1 2 3
M  V30 3 1 3 4
M  V30 4 1 4 5
M  V30 5 2 4 6
M  V30 6 1 6 7
M  V30 7 2 7 8
M  V30 8 1 8 9
M  V30 9 2 9 10
M  V30 10 1 10 11
M  V30 11 1 11 12
M  V30 12 1 12 13
M  V30 13 1 13 14
M  V30 14 1 14 15
M  V30 15 1 15 16
M  V30 16 1 16 17
M  V30 17 2 17 18
M  V30 18 1 17 19
M  V30 19 1 19 20
M  V30 20 1 20 21
M  V30 21 2 21 22
M  V30 22 1 22 23
M  V30 23 2 23 24
M  V30 24 1 24 25
M  V30 25 2 25 26
M  V30 26 1 25 27
M  V30 27 1 27 28
M  V30 28 1 28 29
M  V30 29 1 16 30
M  V30 30 1 30 31
M  V30 31 2 12 3
M  V30 32 1 31 13
M  V30 33 1 11 7
M  V30 34 1 26 21
M  V30 35 1 29 24
M  V30 36 1 1 32
M  V30 37 1 1 33
M  V30 38 1 1 34
M  V30 39 1 2 35
M  V30 40 1 2 36
M  V30 41 1 5 37
M  V30 42 1 5 38
M  V30 43 1 5 39
M  V30 44 1 9 40
M  V30 45 1 14 41
M  V30 46 1 14 42
M  V30 47 1 15 43
M  V30 48 1 15 44
M  V30 49 1 16 45
M  V30 50 1 19 46
M  V30 51 1 20 47
M  V30 52 1 20 48
M  V30 53 1 22 49
M  V30 54 1 23 50
M  V30 55 1 26 51
M  V30 56 1 28 52
M  V30 57 1 28 53
M  V30 58 1 30 54
M  V30 59 1 30 55
M  V30 60 1 31 56
M  V30 61 1 31 57
M  V30 END BOND
M  V30 END CTAB
M  END
>  <Dataset>  (733) 
ChEMBL_Kinases

>  <Ligand_Instance>  (733) 
nan

>  <PDB_ID>  (733) 
nan

>  <Standardized_SMILES>  (733) 
CCc1c(C)nc2ncnn2c1N1CCC(C(=O)NCc2ccc3c(c2)OCO3)CC1

>  <Name>  (733) 
nan

>  <Pocket>  (733) 
nan

>  <ATP_Site>  (733) 
nan

>  <Peripheral>  (733) 
nan

>  <Num_H_Atoms_ProtBoundConf>  (733) 
nan

>  <Num_Resolved_Atoms>  (733) 
nan

>  <Num_Not_Resolved_Atoms>  (733) 
nan

$$$$
CHEMBL1316317
     RDKit          3D

  0  0  0  0  0  0  0  0  0  0999 V3000
M  V30 BEGIN CTAB
M  V30 COUNTS 38 41 0 0 0
M  V30 BEGIN ATOM
M  V30 1 O 0.590081 -1.310655 2.262503 0
M  V30 2 C 0.475257 -0.278909 1.572903 0
M  V30 3 C 1.665145 0.322805 1.204876 0
M  V30 4 C 2.955203 -0.226382 1.605332 0
M  V30 5 C 3.169237 -0.648304 2.894093 0
M  V30 6 C 4.430806 -1.163605 3.205311 0
M  V30 7 C 5.432678 -1.246606 2.247070 0
M  V30 8 C 5.190735 -0.810258 0.940239 0
M  V30 9 F 6.199035 -0.907509 0.026572 0
M  V30 10 C 3.939011 -0.297981 0.627770 0
M  V30 11 N 1.644637 1.431521 0.466620 0
M  V30 12 C 0.451935 1.925912 0.105265 0
M  V30 13 C 0.450984 3.088356 -0.668189 0
M  V30 14 N -0.759055 3.578389 -1.027097 0
M  V30 15 C -1.904461 2.973924 -0.656027 0
M  V30 16 N -1.921524 1.851720 0.090166 0
M  V30 17 C -0.742203 1.329142 0.469889 0
M  V30 18 N -0.752807 0.195619 1.223805 0
M  V30 19 C -1.961354 -0.476320 1.638090 0
M  V30 20 C -2.424728 -1.506043 0.672831 0
M  V30 21 C -3.284015 -1.262769 -0.366526 0
M  V30 22 C -3.710485 -2.225546 -1.260183 0
M  V30 23 C -3.259271 -3.519771 -1.121158 0
M  V30 24 F -3.683916 -4.460195 -2.004615 0
M  V30 25 C -2.386300 -3.804381 -0.078307 0
M  V30 26 C -1.995627 -2.815690 0.777553 0
M  V30 27 H 2.385405 -0.579063 3.627831 0
M  V30 28 H 4.641661 -1.507176 4.208630 0
M  V30 29 H 6.405565 -1.659463 2.544161 0
M  V30 30 H 3.829652 0.016993 -0.397955 0
M  V30 31 H 1.343092 3.583787 -0.973604 0
M  V30 32 H -2.834919 3.439007 -0.990745 0
M  V30 33 H -1.876732 -0.927767 2.642986 0
M  V30 34 H -2.770027 0.307029 1.648926 0
M  V30 35 H -3.660030 -0.259693 -0.508650 0
M  V30 36 H -4.397060 -1.986138 -2.074946 0
M  V30 37 H -2.074942 -4.839463 -0.031875 0
M  V30 38 H -1.325942 -3.145649 1.538634 0
M  V30 END ATOM
M  V30 BEGIN BOND
M  V30 1 2 1 2
M  V30 2 1 2 3
M  V30 3 1 3 4
M  V30 4 2 4 5
M  V30 5 1 5 6
M  V30 6 2 6 7
M  V30 7 1 7 8
M  V30 8 1 8 9
M  V30 9 2 8 10
M  V30 10 2 3 11
M  V30 11 1 11 12
M  V30 12 2 12 13
M  V30 13 1 13 14
M  V30 14 2 14 15
M  V30 15 1 15 16
M  V30 16 2 16 17
M  V30 17 1 17 18
M  V30 18 1 18 19
M  V30 19 1 19 20
M  V30 20 2 20 21
M  V30 21 1 21 22
M  V30 22 2 22 23
M  V30 23 1 23 24
M  V30 24 1 23 25
M  V30 25 2 25 26
M  V30 26 1 18 2
M  V30 27 1 26 20
M  V30 28 1 10 4
M  V30 29 1 17 12
M  V30 30 1 5 27
M  V30 31 1 6 28
M  V30 32 1 7 29
M  V30 33 1 10 30
M  V30 34 1 13 31
M  V30 35 1 15 32
M  V30 36 1 19 33
M  V30 37 1 19 34
M  V30 38 1 21 35
M  V30 39 1 22 36
M  V30 40 1 25 37
M  V30 41 1 26 38
M  V30 END BOND
M  V30 END CTAB
M  END
>  <Dataset>  (734) 
ChEMBL_Kinases

>  <Ligand_Instance>  (734) 
nan

>  <PDB_ID>  (734) 
nan

>  <Standardized_SMILES>  (734) 
O=c1c(-c2cccc(F)c2)nc2cncnc2n1Cc1ccc(F)cc1

>  <Name>  (734) 
nan

>  <Pocket>  (734) 
nan

>  <ATP_Site>  (734) 
nan

>  <Peripheral>  (734) 
nan

>  <Num_H_Atoms_ProtBoundConf>  (734) 
nan

>  <Num_Resolved_Atoms>  (734) 
nan

>  <Num_Not_Resolved_Atoms>  (734) 
nan

$$$$
CHEMBL1316075
     RDKit          3D

  0  0  0  0  0  0  0  0  0  0999 V3000
M  V30 BEGIN CTAB
M  V30 COUNTS 36 39 0 0 0
M  V30 BEGIN ATOM
M  V30 1 N 3.400231 -2.497586 3.519047 0
M  V30 2 C 2.857257 -2.814542 2.523275 0
M  V30 3 C 2.189613 -3.223184 1.319400 0
M  V30 4 C 2.122918 -4.538701 0.945596 0
M  V30 5 C 1.485343 -4.936040 -0.202885 0
M  V30 6 C 0.915299 -3.953296 -0.963298 0
M  V30 7 C 0.973151 -2.609718 -0.598780 0
M  V30 8 C 1.624370 -2.208871 0.573231 0
M  V30 9 C 1.631404 -0.787772 0.865264 0
M  V30 10 C 2.823175 -0.202940 1.271180 0
M  V30 11 C 2.847888 1.147888 1.553646 0
M  V30 12 C 1.673850 1.858653 1.417518 0
M  V30 13 N 1.678971 3.173499 1.674583 0
M  V30 14 C 0.582216 3.927938 1.554007 0
M  V30 15 N -0.577418 3.394138 1.168124 0
M  V30 16 C -0.692155 2.083287 0.885819 0
M  V30 17 N -1.914264 1.500939 0.467150 0
M  V30 18 C -2.641716 0.322341 0.105900 0
M  V30 19 C -3.995220 0.386268 -0.514782 0
M  V30 20 C -2.814796 0.062051 -1.369143 0
M  V30 21 C 0.457677 1.340638 1.020188 0
M  V30 22 C 0.512125 -0.002220 0.757502 0
M  V30 23 H 2.611441 -5.248326 1.623661 0
M  V30 24 H 1.475753 -5.985622 -0.427958 0
M  V30 25 H 0.408445 -4.276036 -1.877637 0
M  V30 26 H 0.474261 -1.922695 -1.298723 0
M  V30 27 H 3.763474 -0.721000 1.390302 0
M  V30 28 H 3.755965 1.640101 1.872241 0
M  V30 29 H 0.489095 4.993371 1.738100 0
M  V30 30 H -2.643102 2.254023 0.370280 0
M  V30 31 H -2.558453 -0.585420 0.782391 0
M  V30 32 H -4.469227 1.381561 -0.631262 0
M  V30 33 H -4.700307 -0.422003 -0.322357 0
M  V30 34 H -2.534769 0.832552 -2.098678 0
M  V30 35 H -2.645625 -0.974881 -1.727736 0
M  V30 36 H -0.353201 -0.515270 0.429819 0
M  V30 END ATOM
M  V30 BEGIN BOND
M  V30 1 3 1 2
M  V30 2 1 2 3
M  V30 3 2 3 4
M  V30 4 1 4 5
M  V30 5 2 5 6
M  V30 6 1 6 7
M  V30 7 2 7 8
M  V30 8 1 8 9
M  V30 9 2 9 10
M  V30 10 1 10 11
M  V30 11 2 11 12
M  V30 12 1 12 13
M  V30 13 2 13 14
M  V30 14 1 14 15
M  V30 15 2 15 16
M  V30 16 1 16 17
M  V30 17 1 17 18
M  V30 18 1 18 19
M  V30 19 1 19 20
M  V30 20 1 16 21
M  V30 21 2 21 22
M  V30 22 1 8 3
M  V30 23 1 22 9
M  V30 24 1 21 12
M  V30 25 1 20 18
M  V30 26 1 4 23
M  V30 27 1 5 24
M  V30 28 1 6 25
M  V30 29 1 7 26
M  V30 30 1 10 27
M  V30 31 1 11 28
M  V30 32 1 14 29
M  V30 33 1 17 30
M  V30 34 1 18 31
M  V30 35 1 19 32
M  V30 36 1 19 33
M  V30 37 1 20 34
M  V30 38 1 20 35
M  V30 39 1 22 36
M  V30 END BOND
M  V30 END CTAB
M  END
>  <Dataset>  (735) 
ChEMBL_Kinases

>  <Ligand_Instance>  (735) 
nan

>  <PDB_ID>  (735) 
nan

>  <Standardized_SMILES>  (735) 
N#Cc1ccccc1-c1ccc2ncnc(NC3CC3)c2c1

>  <Name>  (735) 
nan

>  <Pocket>  (735) 
nan

>  <ATP_Site>  (735) 
nan

>  <Peripheral>  (735) 
nan

>  <Num_H_Atoms_ProtBoundConf>  (735) 
nan

>  <Num_Resolved_Atoms>  (735) 
nan

>  <Num_Not_Resolved_Atoms>  (735) 
nan

$$$$
CHEMBL1315945
     RDKit          3D

  0  0  0  0  0  0  0  0  0  0999 V3000
M  V30 BEGIN CTAB
M  V30 COUNTS 38 40 0 0 0
M  V30 BEGIN ATOM
M  V30 1 C -2.392333 -4.481151 1.491735 0
M  V30 2 C -1.452394 -3.752635 2.422256 0 CFG=2
M  V30 3 N -1.998415 -2.467195 2.794037 0
M  V30 4 C -0.070446 -3.638945 1.895962 0
M  V30 5 C 0.101445 -2.934644 0.633444 0
M  V30 6 C 0.251213 -3.605455 -0.586785 0
M  V30 7 N 0.374017 -2.729399 -1.595027 0
M  V30 8 C 0.304054 -1.520817 -1.026679 0
M  V30 9 C 0.381145 -0.286458 -1.613460 0
M  V30 10 C 0.289309 0.820944 -0.814451 0
M  V30 11 C 0.125813 0.823193 0.534916 0
M  V30 12 O 0.022044 1.818132 1.449182 0
M  V30 13 C 0.061584 3.202298 1.301121 0
M  V30 14 C 1.341695 3.639451 0.764304 0
M  V30 15 C 2.005695 3.944221 -0.357192 0
M  V30 16 C 3.318702 4.321662 -0.317597 0
M  V30 17 C 3.932295 4.378736 0.902350 0
M  V30 18 S 2.640922 3.886072 2.083445 0
M  V30 19 C 0.048621 -0.451713 1.118132 0
M  V30 20 C 0.137072 -1.590871 0.340759 0
M  V30 21 H -2.681394 -5.485353 1.864829 0
M  V30 22 H -3.346258 -3.918614 1.386236 0
M  V30 23 H -1.922779 -4.675120 0.499610 0
M  V30 24 H -1.458544 -4.352974 3.372969 0
M  V30 25 H -2.985193 -2.515390 3.083784 0
M  V30 26 H -1.413009 -2.092005 3.574020 0
M  V30 27 H 0.585840 -3.135365 2.662224 0
M  V30 28 H 0.371717 -4.677212 1.843302 0
M  V30 29 H 0.270953 -4.686112 -0.740793 0
M  V30 30 H 0.499482 -2.926309 -2.620317 0
M  V30 31 H 0.510767 -0.170033 -2.680956 0
M  V30 32 H 0.340026 1.786463 -1.261712 0
M  V30 33 H -0.720894 3.500782 0.536733 0
M  V30 34 H -0.191531 3.657285 2.290470 0
M  V30 35 H 1.424843 3.873274 -1.265253 0
M  V30 36 H 3.886479 4.574734 -1.202402 0
M  V30 37 H 4.955694 4.650667 1.140716 0
M  V30 38 H -0.073522 -0.605276 2.178271 0
M  V30 END ATOM
M  V30 BEGIN BOND
M  V30 1 1 1 2
M  V30 2 1 2 3
M  V30 3 1 2 4
M  V30 4 1 4 5
M  V30 5 2 5 6
M  V30 6 1 6 7
M  V30 7 1 7 8
M  V30 8 2 8 9
M  V30 9 1 9 10
M  V30 10 2 10 11
M  V30 11 1 11 12
M  V30 12 1 12 13
M  V30 13 1 13 14
M  V30 14 2 14 15
M  V30 15 1 15 16
M  V30 16 2 16 17
M  V30 17 1 17 18
M  V30 18 1 11 19
M  V30 19 2 19 20
M  V30 20 1 20 5
M  V30 21 1 20 8
M  V30 22 1 18 14
M  V30 23 1 1 21
M  V30 24 1 1 22
M  V30 25 1 1 23
M  V30 26 1 2 24 CFG=1
M  V30 27 1 3 25
M  V30 28 1 3 26
M  V30 29 1 4 27
M  V30 30 1 4 28
M  V30 31 1 6 29
M  V30 32 1 7 30
M  V30 33 1 9 31
M  V30 34 1 10 32
M  V30 35 1 13 33
M  V30 36 1 13 34
M  V30 37 1 15 35
M  V30 38 1 16 36
M  V30 39 1 17 37
M  V30 40 1 19 38
M  V30 END BOND
M  V30 END CTAB
M  END
>  <Dataset>  (736) 
ChEMBL_Kinases

>  <Ligand_Instance>  (736) 
nan

>  <PDB_ID>  (736) 
nan

>  <Standardized_SMILES>  (736) 
C[C@H](N)Cc1c[nH]c2ccc(OCc3cccs3)cc12

>  <Name>  (736) 
nan

>  <Pocket>  (736) 
nan

>  <ATP_Site>  (736) 
nan

>  <Peripheral>  (736) 
nan

>  <Num_H_Atoms_ProtBoundConf>  (736) 
nan

>  <Num_Resolved_Atoms>  (736) 
nan

>  <Num_Not_Resolved_Atoms>  (736) 
nan

$$$$
CHEMBL1315891
     RDKit          3D

  0  0  0  0  0  0  0  0  0  0999 V3000
M  V30 BEGIN CTAB
M  V30 COUNTS 28 27 0 0 0
M  V30 BEGIN ATOM
M  V30 1 C 1.791729 1.056019 3.348216 0
M  V30 2 C 1.867605 -0.383846 3.030162 0
M  V30 3 S 0.728726 -0.907688 1.843283 0 CHG=1 VAL=3
M  V30 4 O 1.021128 -2.627549 1.579776 0 CHG=-1 VAL=1
M  V30 5 C -1.057302 -0.530696 2.087611 0
M  V30 6 C -0.402708 -0.966680 2.441591 0
M  V30 7 S -0.075226 -1.268981 0.698335 0
M  V30 8 P 0.424914 -0.124497 -0.734938 0
M  V30 9 O 1.434099 0.896502 -0.220970 0
M  V30 10 O 1.268228 -1.091162 -1.893601 0
M  V30 11 C 0.910037 -2.418463 -1.830448 0
M  V30 12 O -0.795517 0.724645 -1.499481 0
M  V30 13 C -1.646415 -0.102851 -2.191248 0
M  V30 14 H 1.418047 1.189655 4.370894 0
M  V30 15 H 1.188609 1.680038 2.662243 0
M  V30 16 H 2.816453 1.506751 3.360826 0
M  V30 17 H 1.744414 -1.024405 3.941012 0
M  V30 18 H 2.829249 -0.629872 2.580195 0
M  V30 19 H -1.372467 0.465202 1.840767 0
M  V30 20 H -1.963285 -1.078496 2.083509 0
M  V30 21 H -0.041962 -0.243389 3.217460 0
M  V30 22 H -0.770330 -1.922965 3.031384 0
M  V30 23 H 0.483750 -2.713149 -2.814779 0
M  V30 24 H 1.825366 -3.033978 -1.668302 0
M  V30 25 H 0.211230 -2.689664 -1.046994 0
M  V30 26 H -2.693721 0.138475 -1.936563 0
M  V30 27 H -1.443914 -1.137201 -1.881711 0
M  V30 28 H -1.495132 -0.014742 -3.295621 0
M  V30 END ATOM
M  V30 BEGIN BOND
M  V30 1 1 1 2
M  V30 2 1 2 3
M  V30 3 1 3 4
M  V30 4 1 3 5
M  V30 5 1 5 6
M  V30 6 1 6 7
M  V30 7 1 7 8
M  V30 8 2 8 9
M  V30 9 1 8 10
M  V30 10 1 10 11
M  V30 11 1 8 12
M  V30 12 1 12 13
M  V30 13 1 1 14
M  V30 14 1 1 15
M  V30 15 1 1 16
M  V30 16 1 2 17
M  V30 17 1 2 18
M  V30 18 1 5 19
M  V30 19 1 5 20
M  V30 20 1 6 21
M  V30 21 1 6 22
M  V30 22 1 11 23
M  V30 23 1 11 24
M  V30 24 1 11 25
M  V30 25 1 13 26
M  V30 26 1 13 27
M  V30 27 1 13 28
M  V30 END BOND
M  V30 END CTAB
M  END
>  <Dataset>  (737) 
ChEMBL_Kinases

>  <Ligand_Instance>  (737) 
nan

>  <PDB_ID>  (737) 
nan

>  <Standardized_SMILES>  (737) 
CC[S+]([O-])CCSP(=O)(OC)OC

>  <Name>  (737) 
OXDEMETONMETHYL

>  <Pocket>  (737) 
nan

>  <ATP_Site>  (737) 
nan

>  <Peripheral>  (737) 
nan

>  <Num_H_Atoms_ProtBoundConf>  (737) 
nan

>  <Num_Resolved_Atoms>  (737) 
nan

>  <Num_Not_Resolved_Atoms>  (737) 
nan

$$$$
CHEMBL1315582
     RDKit          3D

  0  0  0  0  0  0  0  0  0  0999 V3000
M  V30 BEGIN CTAB
M  V30 COUNTS 32 35 0 0 0
M  V30 BEGIN ATOM
M  V30 1 O -0.224715 -2.452534 0.997596 0
M  V30 2 C -0.189608 -1.203506 0.983287 0
M  V30 3 C 1.022515 -0.566602 0.699821 0
M  V30 4 C 2.233864 -1.345299 0.423560 0
M  V30 5 C 3.449539 -1.022471 0.993659 0
M  V30 6 C 4.520891 -1.836218 0.653420 0
M  V30 7 C 4.367539 -2.904201 -0.206680 0
M  V30 8 F 5.498971 -3.617066 -0.453572 0
M  V30 9 C 3.142502 -3.216410 -0.771110 0
M  V30 10 C 2.073259 -2.411041 -0.436742 0
M  V30 11 N 1.099119 0.791850 0.675377 0
M  V30 12 C 0.005235 1.552769 0.924575 0
M  V30 13 C 0.004577 2.932869 0.917904 0
M  V30 14 N -1.130171 3.594294 1.177054 0
M  V30 15 C -2.296328 2.988345 1.449732 0
M  V30 16 N -2.296200 1.639425 1.456372 0
M  V30 17 C -1.191746 0.922284 1.204504 0
M  V30 18 N -1.263822 -0.422153 1.227832 0
M  V30 19 C -2.498555 -1.155144 1.517015 0
M  V30 20 C -3.000878 -2.034524 0.401580 0
M  V30 21 C -3.741088 -0.775978 0.778306 0
M  V30 22 H 3.503368 -0.175179 1.658037 0
M  V30 23 H 5.467780 -1.560014 1.116466 0
M  V30 24 H 3.120736 -4.069060 -1.431082 0
M  V30 25 H 1.137202 -2.693404 -0.901630 0
M  V30 26 H 0.950403 3.432162 0.696701 0
M  V30 27 H -3.146370 3.629060 1.643137 0
M  V30 28 H -2.577924 -1.639752 2.524118 0
M  V30 29 H -3.520942 -2.985285 0.621890 0
M  V30 30 H -2.483784 -1.992413 -0.597773 0
M  V30 31 H -3.667172 0.104259 0.106797 0
M  V30 32 H -4.670310 -0.853363 1.357222 0
M  V30 END ATOM
M  V30 BEGIN BOND
M  V30 1 2 1 2
M  V30 2 1 2 3
M  V30 3 1 3 4
M  V30 4 2 4 5
M  V30 5 1 5 6
M  V30 6 2 6 7
M  V30 7 1 7 8
M  V30 8 1 7 9
M  V30 9 2 9 10
M  V30 10 2 3 11
M  V30 11 1 11 12
M  V30 12 2 12 13
M  V30 13 1 13 14
M  V30 14 2 14 15
M  V30 15 1 15 16
M  V30 16 2 16 17
M  V30 17 1 17 18
M  V30 18 1 18 19
M  V30 19 1 19 20
M  V30 20 1 20 21
M  V30 21 1 18 2
M  V30 22 1 21 19
M  V30 23 1 10 4
M  V30 24 1 17 12
M  V30 25 1 5 22
M  V30 26 1 6 23
M  V30 27 1 9 24
M  V30 28 1 10 25
M  V30 29 1 13 26
M  V30 30 1 15 27
M  V30 31 1 19 28
M  V30 32 1 20 29
M  V30 33 1 20 30
M  V30 34 1 21 31
M  V30 35 1 21 32
M  V30 END BOND
M  V30 END CTAB
M  END
>  <Dataset>  (738) 
ChEMBL_Kinases

>  <Ligand_Instance>  (738) 
nan

>  <PDB_ID>  (738) 
nan

>  <Standardized_SMILES>  (738) 
O=c1c(-c2ccc(F)cc2)nc2cncnc2n1C1CC1

>  <Name>  (738) 
nan

>  <Pocket>  (738) 
nan

>  <ATP_Site>  (738) 
nan

>  <Peripheral>  (738) 
nan

>  <Num_H_Atoms_ProtBoundConf>  (738) 
nan

>  <Num_Resolved_Atoms>  (738) 
nan

>  <Num_Not_Resolved_Atoms>  (738) 
nan

$$$$
CHEMBL1315508
     RDKit          3D

  0  0  0  0  0  0  0  0  0  0999 V3000
M  V30 BEGIN CTAB
M  V30 COUNTS 46 49 0 0 0
M  V30 BEGIN ATOM
M  V30 1 N -2.663404 0.508324 3.708556 0
M  V30 2 C -2.709386 1.236945 2.792948 0
M  V30 3 C -2.779277 2.162645 1.665332 0
M  V30 4 C -2.125320 1.606075 0.430902 0
M  V30 5 N -0.735149 1.296387 0.572982 0
M  V30 6 C 0.156510 2.267024 0.292702 0
M  V30 7 O -0.233123 3.414405 -0.082442 0
M  V30 8 C 1.519913 2.037611 0.406735 0
M  V30 9 C 2.484449 3.093942 0.101548 0
M  V30 10 C 2.295442 3.843778 -1.044831 0
M  V30 11 C 3.169612 4.863049 -1.399476 0
M  V30 12 C 4.263563 5.138391 -0.582439 0
M  V30 13 F 5.178127 6.119635 -0.846162 0
M  V30 14 C 4.449113 4.378452 0.572997 0
M  V30 15 C 3.569619 3.371089 0.906966 0
M  V30 16 N 1.900702 0.802026 0.809523 0
M  V30 17 C 0.998539 -0.163759 1.087903 0
M  V30 18 C 1.398224 -1.414190 1.495099 0
M  V30 19 N 0.493921 -2.368938 1.769070 0
M  V30 20 C -0.823966 -2.150840 1.659928 0
M  V30 21 O -1.896481 -2.970385 1.886030 0
M  V30 22 C -1.864731 -4.297408 2.306110 0
M  V30 23 C -1.157371 -5.225939 1.419575 0
M  V30 24 C -1.943807 -5.806933 0.443342 0
M  V30 25 C -1.456722 -6.704997 -0.479903 0
M  V30 26 C -0.118496 -7.066765 -0.458947 0
M  V30 27 C 0.665381 -6.485644 0.516596 0
M  V30 28 C 0.180046 -5.586361 1.441959 0
M  V30 29 N -1.186822 -0.907923 1.256262 0
M  V30 30 C -0.344498 0.072663 0.972267 0
M  V30 31 H -3.858588 2.268471 1.425481 0
M  V30 32 H -2.430596 3.176646 1.920966 0
M  V30 33 H -2.271653 2.266694 -0.443861 0
M  V30 34 H -2.674280 0.659967 0.170731 0
M  V30 35 H 1.455129 3.648781 -1.693237 0
M  V30 36 H 3.040607 5.468569 -2.300085 0
M  V30 37 H 5.317355 4.607707 1.207944 0
M  V30 38 H 3.726611 2.787129 1.810174 0
M  V30 39 H 2.448061 -1.674520 1.609392 0
M  V30 40 H -1.363119 -4.301170 3.317149 0
M  V30 41 H -2.902915 -4.656380 2.505638 0
M  V30 42 H -2.995290 -5.612483 0.317803 0
M  V30 43 H -2.055488 -7.169828 -1.250479 0
M  V30 44 H 0.292117 -7.760409 -1.160233 0
M  V30 45 H 1.716048 -6.703247 0.613739 0
M  V30 46 H 0.759690 -5.114750 2.215644 0
M  V30 END ATOM
M  V30 BEGIN BOND
M  V30 1 3 1 2
M  V30 2 1 2 3
M  V30 3 1 3 4
M  V30 4 1 4 5
M  V30 5 1 5 6
M  V30 6 2 6 7
M  V30 7 1 6 8
M  V30 8 1 8 9
M  V30 9 2 9 10
M  V30 10 1 10 11
M  V30 11 2 11 12
M  V30 12 1 12 13
M  V30 13 1 12 14
M  V30 14 2 14 15
M  V30 15 2 8 16
M  V30 16 1 16 17
M  V30 17 2 17 18
M  V30 18 1 18 19
M  V30 19 2 19 20
M  V30 20 1 20 21
M  V30 21 1 21 22
M  V30 22 1 22 23
M  V30 23 2 23 24
M  V30 24 1 24 25
M  V30 25 2 25 26
M  V30 26 1 26 27
M  V30 27 2 27 28
M  V30 28 1 20 29
M  V30 29 2 29 30
M  V30 30 1 30 5
M  V30 31 1 15 9
M  V30 32 1 30 17
M  V30 33 1 28 23
M  V30 34 1 3 31
M  V30 35 1 3 32
M  V30 36 1 4 33
M  V30 37 1 4 34
M  V30 38 1 10 35
M  V30 39 1 11 36
M  V30 40 1 14 37
M  V30 41 1 15 38
M  V30 42 1 18 39
M  V30 43 1 22 40
M  V30 44 1 22 41
M  V30 45 1 24 42
M  V30 46 1 25 43
M  V30 47 1 26 44
M  V30 48 1 27 45
M  V30 49 1 28 46
M  V30 END BOND
M  V30 END CTAB
M  END
>  <Dataset>  (739) 
ChEMBL_Kinases

>  <Ligand_Instance>  (739) 
nan

>  <PDB_ID>  (739) 
nan

>  <Standardized_SMILES>  (739) 
N#CCCn1c(=O)c(-c2ccc(F)cc2)nc2cnc(OCc3ccccc3)nc21

>  <Name>  (739) 
nan

>  <Pocket>  (739) 
nan

>  <ATP_Site>  (739) 
nan

>  <Peripheral>  (739) 
nan

>  <Num_H_Atoms_ProtBoundConf>  (739) 
nan

>  <Num_Resolved_Atoms>  (739) 
nan

>  <Num_Not_Resolved_Atoms>  (739) 
nan

$$$$
CHEMBL1315504
     RDKit          3D

  0  0  0  0  0  0  0  0  0  0999 V3000
M  V30 BEGIN CTAB
M  V30 COUNTS 45 49 0 0 0
M  V30 BEGIN ATOM
M  V30 1 C -0.065046 -2.890596 5.480771 0
M  V30 2 C 0.698409 -2.961338 4.212547 0
M  V30 3 C 0.944474 -1.731640 3.639928 0
M  V30 4 N 1.625956 -1.633672 2.486761 0
M  V30 5 C 2.114517 -2.682835 1.806484 0
M  V30 6 C 2.866943 -2.717855 0.549698 0
M  V30 7 N 1.974476 -2.827148 -0.586356 0
M  V30 8 C 1.054586 -1.783973 -0.860112 0
M  V30 9 N 1.017490 -0.687787 -0.086207 0
M  V30 10 C 0.172767 0.335076 -0.306188 0
M  V30 11 C 0.104658 1.547364 0.500506 0
M  V30 12 C 0.929727 1.789437 1.578341 0
M  V30 13 C 0.904077 2.920965 2.365883 0
M  V30 14 C -0.013835 3.907771 2.071993 0
M  V30 15 C -0.862001 3.713493 1.003119 0
M  V30 16 C -0.795262 2.568252 0.250775 0
M  V30 17 O -1.685756 4.850974 0.920844 0
M  V30 18 C -1.675297 5.464663 2.219574 0
M  V30 19 O -0.337449 5.150372 2.613308 0
M  V30 20 N -0.696371 0.282014 -1.355852 0
M  V30 21 C -0.730194 -0.777556 -2.184810 0
M  V30 22 C -1.609424 -0.834078 -3.248826 0
M  V30 23 C -1.625791 -1.944197 -4.095093 0
M  V30 24 C -0.738293 -2.971294 -3.828966 0
M  V30 25 C 0.117078 -2.862022 -2.753370 0
M  V30 26 C 0.152482 -1.776245 -1.903128 0
M  V30 27 C 1.848816 -3.909977 2.411629 0
M  V30 28 N 1.166240 -4.035636 3.570249 0
M  V30 29 H 0.545594 -2.482177 6.301488 0
M  V30 30 H -0.992999 -2.297586 5.287324 0
M  V30 31 H -0.419950 -3.906114 5.740201 0
M  V30 32 H 0.642225 -0.765834 4.019348 0
M  V30 33 H 3.562282 -3.576807 0.573085 0
M  V30 34 H 3.515767 -1.818800 0.477237 0
M  V30 35 H 2.056196 -3.682284 -1.153841 0
M  V30 36 H 1.668278 1.072857 1.865837 0
M  V30 37 H 1.570255 3.067005 3.200655 0
M  V30 38 H -1.489844 2.481085 -0.572686 0
M  V30 39 H -1.883793 6.530362 2.183613 0
M  V30 40 H -2.370221 4.883153 2.859905 0
M  V30 41 H -2.302218 -0.005913 -3.436892 0
M  V30 42 H -2.310606 -1.991241 -4.926097 0
M  V30 43 H -0.767576 -3.821734 -4.496752 0
M  V30 44 H 0.760766 -3.719443 -2.643939 0
M  V30 45 H 2.186701 -4.842061 1.968157 0
M  V30 END ATOM
M  V30 BEGIN BOND
M  V30 1 1 1 2
M  V30 2 2 2 3
M  V30 3 1 3 4
M  V30 4 2 4 5
M  V30 5 1 5 6
M  V30 6 1 6 7
M  V30 7 1 7 8
M  V30 8 2 8 9
M  V30 9 1 9 10
M  V30 10 1 10 11
M  V30 11 2 11 12
M  V30 12 1 12 13
M  V30 13 2 13 14
M  V30 14 1 14 15
M  V30 15 2 15 16
M  V30 16 1 15 17
M  V30 17 1 17 18
M  V30 18 1 18 19
M  V30 19 2 10 20
M  V30 20 1 20 21
M  V30 21 2 21 22
M  V30 22 1 22 23
M  V30 23 2 23 24
M  V30 24 1 24 25
M  V30 25 2 25 26
M  V30 26 1 5 27
M  V30 27 2 27 28
M  V30 28 1 28 2
M  V30 29 1 26 8
M  V30 30 1 16 11
M  V30 31 1 26 21
M  V30 32 1 19 14
M  V30 33 1 1 29
M  V30 34 1 1 30
M  V30 35 1 1 31
M  V30 36 1 3 32
M  V30 37 1 6 33
M  V30 38 1 6 34
M  V30 39 1 7 35
M  V30 40 1 12 36
M  V30 41 1 13 37
M  V30 42 1 16 38
M  V30 43 1 18 39
M  V30 44 1 18 40
M  V30 45 1 22 41
M  V30 46 1 23 42
M  V30 47 1 24 43
M  V30 48 1 25 44
M  V30 49 1 27 45
M  V30 END BOND
M  V30 END CTAB
M  END
>  <Dataset>  (740) 
ChEMBL_Kinases

>  <Ligand_Instance>  (740) 
nan

>  <PDB_ID>  (740) 
nan

>  <Standardized_SMILES>  (740) 
Cc1cnc(CNc2nc(-c3ccc4c(c3)OCO4)nc3ccccc23)cn1

>  <Name>  (740) 
nan

>  <Pocket>  (740) 
nan

>  <ATP_Site>  (740) 
nan

>  <Peripheral>  (740) 
nan

>  <Num_H_Atoms_ProtBoundConf>  (740) 
nan

>  <Num_Resolved_Atoms>  (740) 
nan

>  <Num_Not_Resolved_Atoms>  (740) 
nan

$$$$
CHEMBL1315457
     RDKit          3D

  0  0  0  0  0  0  0  0  0  0999 V3000
M  V30 BEGIN CTAB
M  V30 COUNTS 86 89 0 0 0
M  V30 BEGIN ATOM
M  V30 1 C 4.572001 -2.140315 2.945179 0
M  V30 2 C 3.621851 -2.698267 3.909924 0
M  V30 3 C 4.206880 -3.443147 4.938906 0
M  V30 4 C 3.499684 -4.072569 5.938988 0
M  V30 5 N 4.128094 -4.819855 6.969142 0
M  V30 6 C 2.123659 -3.934290 5.884013 0
M  V30 7 C 1.372351 -4.549864 6.857537 0
M  V30 8 C -0.017304 -4.441194 6.836868 0
M  V30 9 C -0.568076 -3.705693 5.817007 0
M  V30 10 C 0.230643 -3.111349 4.869850 0
M  V30 11 C 1.588520 -3.194384 4.857331 0
M  V30 12 N 2.260211 -2.573200 3.875926 0 CHG=1 VAL=4
M  V30 13 C 1.683675 -1.798902 2.808568 0
M  V30 14 C 1.529646 -0.363718 3.244975 0
M  V30 15 C 0.981834 0.554367 2.218016 0
M  V30 16 C -0.430212 0.209534 1.725048 0
M  V30 17 C -1.421290 0.257821 2.793324 0
M  V30 18 C -2.832448 -0.033295 2.603309 0
M  V30 19 C -3.716273 0.722257 1.731044 0
M  V30 20 C -3.504199 0.783278 0.260619 0
M  V30 21 C -3.566133 -0.546815 -0.444829 0
M  V30 22 C -3.417384 -0.346147 -1.922124 0
M  V30 23 C -2.113165 0.268508 -2.373559 0
M  V30 24 C -0.933678 -0.574847 -2.035324 0
M  V30 25 C 0.406343 -0.095342 -2.364542 0
M  V30 26 C 0.908823 0.130340 -3.716562 0
M  V30 27 N 0.261670 1.049656 -4.586207 0 CHG=1 VAL=4
M  V30 28 C 0.553061 2.380216 -4.447933 0
M  V30 29 C 1.420307 3.038475 -3.446338 0
M  V30 30 C -0.023859 3.270827 -5.336733 0
M  V30 31 C -0.867361 2.923575 -6.348564 0
M  V30 32 N -1.457296 3.849859 -7.260056 0
M  V30 33 C -1.173310 1.587234 -6.504668 0
M  V30 34 C -2.007926 1.157756 -7.502275 0
M  V30 35 C -2.295989 -0.173458 -7.648561 0
M  V30 36 C -1.728298 -1.081529 -6.769753 0
M  V30 37 C -0.893548 -0.603349 -5.779719 0
M  V30 38 C -0.587659 0.738145 -5.611706 0
M  V30 39 H 4.248654 -1.162363 2.551628 0
M  V30 40 H 4.652199 -2.809467 2.034017 0
M  V30 41 H 5.580785 -2.024742 3.371537 0
M  V30 42 H 5.290787 -3.575297 5.015673 0
M  V30 43 H 4.038784 -4.658601 8.007190 0
M  V30 44 H 3.830322 -4.400541 7.899722 0
M  V30 45 H 1.859998 -5.124361 7.649374 0
M  V30 46 H -0.529909 -4.953588 7.637944 0
M  V30 47 H -1.646851 -3.634818 5.820280 0
M  V30 48 H -0.292516 -2.563810 4.107896 0
M  V30 49 H 2.395052 -1.809029 1.953160 0
M  V30 50 H 0.741664 -2.222472 2.405536 0
M  V30 51 H 0.913091 -0.407082 4.175291 0
M  V30 52 H 2.516260 0.001154 3.586096 0
M  V30 53 H 1.659949 0.641198 1.349104 0
M  V30 54 H 0.901762 1.580265 2.631673 0
M  V30 55 H -0.559500 0.820098 0.837151 0
M  V30 56 H -0.311820 -0.853242 1.347251 0
M  V30 57 H -1.337748 1.307730 3.257013 0
M  V30 58 H -1.041536 -0.404013 3.632211 0
M  V30 59 H -3.344309 -0.054558 3.629372 0
M  V30 60 H -2.967012 -1.139447 2.314329 0
M  V30 61 H -4.751049 0.236873 1.844692 0
M  V30 62 H -3.958772 1.760344 2.146288 0
M  V30 63 H -4.366887 1.372046 -0.215354 0
M  V30 64 H -2.624019 1.353358 -0.068692 0
M  V30 65 H -2.780024 -1.243140 -0.086348 0
M  V30 66 H -4.588476 -0.985256 -0.307488 0
M  V30 67 H -3.590671 -1.272041 -2.500161 0
M  V30 68 H -4.254573 0.345542 -2.223488 0
M  V30 69 H -2.208654 0.362488 -3.466174 0
M  V30 70 H -1.978923 1.310495 -1.971112 0
M  V30 71 H -0.987646 -0.743769 -0.915717 0
M  V30 72 H -1.098803 -1.647889 -2.422470 0
M  V30 73 H 1.182791 -0.681811 -1.734051 0
M  V30 74 H 0.499702 0.924224 -1.819697 0
M  V30 75 H 1.969112 0.549355 -3.588989 0
M  V30 76 H 1.178397 -0.837394 -4.254093 0
M  V30 77 H 0.772623 3.621308 -2.725714 0
M  V30 78 H 2.038876 3.805274 -4.001097 0
M  V30 79 H 2.072485 2.364421 -2.878331 0
M  V30 80 H 0.150080 4.358861 -5.305680 0
M  V30 81 H -1.450580 3.759816 -8.300740 0
M  V30 82 H -1.884854 4.614256 -6.707859 0
M  V30 83 H -2.420427 1.927325 -8.159944 0
M  V30 84 H -2.956941 -0.455949 -8.447870 0
M  V30 85 H -1.961635 -2.130306 -6.893934 0
M  V30 86 H -0.505607 -1.369766 -5.148169 0
M  V30 END ATOM
M  V30 BEGIN BOND
M  V30 1 1 1 2
M  V30 2 2 2 3
M  V30 3 1 3 4
M  V30 4 1 4 5
M  V30 5 2 4 6
M  V30 6 1 6 7
M  V30 7 2 7 8
M  V30 8 1 8 9
M  V30 9 2 9 10
M  V30 10 1 10 11
M  V30 11 2 11 12
M  V30 12 1 12 13
M  V30 13 1 13 14
M  V30 14 1 14 15
M  V30 15 1 15 16
M  V30 16 1 16 17
M  V30 17 1 17 18
M  V30 18 1 18 19
M  V30 19 1 19 20
M  V30 20 1 20 21
M  V30 21 1 21 22
M  V30 22 1 22 23
M  V30 23 1 23 24
M  V30 24 1 24 25
M  V30 25 1 25 26
M  V30 26 1 26 27
M  V30 27 2 27 28
M  V30 28 1 28 29
M  V30 29 1 28 30
M  V30 30 2 30 31
M  V30 31 1 31 32
M  V30 32 1 31 33
M  V30 33 2 33 34
M  V30 34 1 34 35
M  V30 35 2 35 36
M  V30 36 1 36 37
M  V30 37 2 37 38
M  V30 38 1 12 2
M  V30 39 1 38 27
M  V30 40 1 11 6
M  V30 41 1 38 33
M  V30 42 1 1 39
M  V30 43 1 1 40
M  V30 44 1 1 41
M  V30 45 1 3 42
M  V30 46 1 5 43
M  V30 47 1 5 44
M  V30 48 1 7 45
M  V30 49 1 8 46
M  V30 50 1 9 47
M  V30 51 1 10 48
M  V30 52 1 13 49
M  V30 53 1 13 50
M  V30 54 1 14 51
M  V30 55 1 14 52
M  V30 56 1 15 53
M  V30 57 1 15 54
M  V30 58 1 16 55
M  V30 59 1 16 56
M  V30 60 1 17 57
M  V30 61 1 17 58
M  V30 62 1 18 59
M  V30 63 1 18 60
M  V30 64 1 19 61
M  V30 65 1 19 62
M  V30 66 1 20 63
M  V30 67 1 20 64
M  V30 68 1 21 65
M  V30 69 1 21 66
M  V30 70 1 22 67
M  V30 71 1 22 68
M  V30 72 1 23 69
M  V30 73 1 23 70
M  V30 74 1 24 71
M  V30 75 1 24 72
M  V30 76 1 25 73
M  V30 77 1 25 74
M  V30 78 1 26 75
M  V30 79 1 26 76
M  V30 80 1 29 77
M  V30 81 1 29 78
M  V30 82 1 29 79
M  V30 83 1 30 80
M  V30 84 1 32 81
M  V30 85 1 32 82
M  V30 86 1 34 83
M  V30 87 1 35 84
M  V30 88 1 36 85
M  V30 89 1 37 86
M  V30 END BOND
M  V30 END CTAB
M  END
>  <Dataset>  (741) 
ChEMBL_Kinases

>  <Ligand_Instance>  (741) 
nan

>  <PDB_ID>  (741) 
nan

>  <Standardized_SMILES>  (741) 
Cc1cc(N)c2ccccc2[n+]1CCCCCCCCCCCCCC[n+]1c(C)cc(N)c2ccccc21

>  <Name>  (741) 
nan

>  <Pocket>  (741) 
nan

>  <ATP_Site>  (741) 
nan

>  <Peripheral>  (741) 
nan

>  <Num_H_Atoms_ProtBoundConf>  (741) 
nan

>  <Num_Resolved_Atoms>  (741) 
nan

>  <Num_Not_Resolved_Atoms>  (741) 
nan

$$$$
CHEMBL1315374
     RDKit          3D

  0  0  0  0  0  0  0  0  0  0999 V3000
M  V30 BEGIN CTAB
M  V30 COUNTS 44 47 0 0 0
M  V30 BEGIN ATOM
M  V30 1 C -0.913293 -3.005015 3.060201 0
M  V30 2 N -1.251224 -2.340764 1.843647 0
M  V30 3 C -2.644462 -2.016780 1.698900 0 CFG=2
M  V30 4 C -3.291455 -3.238908 1.051720 0
M  V30 5 C -2.109306 -4.174276 0.762608 0
M  V30 6 C -1.005648 -3.111742 0.662240 0 CFG=1
M  V30 7 C -1.350505 -2.299537 -0.556369 0
M  V30 8 C -1.614040 -0.841856 -0.223155 0
M  V30 9 N -0.381866 -0.252929 0.137707 0
M  V30 10 C 0.321789 0.761436 -0.498311 0
M  V30 11 O -0.368408 1.093363 -1.522514 0
M  V30 12 C 1.556785 1.477630 -0.292933 0
M  V30 13 N 1.876952 2.426537 -1.190346 0
M  V30 14 N 3.049309 2.983191 -0.841964 0
M  V30 15 C 3.678449 4.045883 -1.607750 0
M  V30 16 C 3.546631 2.440957 0.275331 0
M  V30 17 C 4.667531 2.611807 1.058544 0
M  V30 18 C 4.841184 1.831489 2.184934 0
M  V30 19 C 3.862882 0.886925 2.492268 0
M  V30 20 C 2.745442 0.715881 1.712328 0
M  V30 21 C 2.593879 1.502261 0.597944 0
M  V30 22 C -2.716729 -0.818003 0.782335 0
M  V30 23 H 0.166323 -3.265657 2.996242 0
M  V30 24 H -0.978204 -2.253114 3.878681 0
M  V30 25 H -1.539091 -3.872735 3.311657 0
M  V30 26 H -3.160802 -1.798560 2.651863 0
M  V30 27 H -3.802553 -3.002338 0.103431 0
M  V30 28 H -3.931309 -3.799019 1.757731 0
M  V30 29 H -2.164917 -4.629176 -0.233204 0
M  V30 30 H -1.952622 -4.876504 1.580672 0
M  V30 31 H 0.004823 -3.564677 0.638059 0
M  V30 32 H -0.445102 -2.357886 -1.221495 0
M  V30 33 H -2.216795 -2.675266 -1.132497 0
M  V30 34 H -1.973775 -0.349507 -1.156081 0
M  V30 35 H 0.099922 -0.597001 0.992249 0
M  V30 36 H 4.356971 3.603595 -2.394926 0
M  V30 37 H 4.275396 4.649960 -0.888084 0
M  V30 38 H 2.879787 4.637656 -2.079174 0
M  V30 39 H 5.399613 3.374747 0.758769 0
M  V30 40 H 5.719964 1.952278 2.815600 0
M  V30 41 H 4.047220 0.303309 3.383136 0
M  V30 42 H 2.018220 -0.021397 1.984698 0
M  V30 43 H -3.673281 -0.940343 0.212179 0
M  V30 44 H -2.825802 0.133265 1.330717 0
M  V30 END ATOM
M  V30 BEGIN BOND
M  V30 1 1 1 2
M  V30 2 1 2 3
M  V30 3 1 3 4
M  V30 4 1 4 5
M  V30 5 1 5 6
M  V30 6 1 6 7
M  V30 7 1 7 8
M  V30 8 1 8 9
M  V30 9 1 9 10
M  V30 10 2 10 11
M  V30 11 1 10 12
M  V30 12 2 12 13
M  V30 13 1 13 14
M  V30 14 1 14 15
M  V30 15 1 14 16
M  V30 16 2 16 17
M  V30 17 1 17 18
M  V30 18 2 18 19
M  V30 19 1 19 20
M  V30 20 2 20 21
M  V30 21 1 8 22
M  V30 22 1 6 2
M  V30 23 1 21 12
M  V30 24 1 22 3
M  V30 25 1 21 16
M  V30 26 1 1 23
M  V30 27 1 1 24
M  V30 28 1 1 25
M  V30 29 1 3 26 CFG=1
M  V30 30 1 4 27
M  V30 31 1 4 28
M  V30 32 1 5 29
M  V30 33 1 5 30
M  V30 34 1 6 31 CFG=3
M  V30 35 1 7 32
M  V30 36 1 7 33
M  V30 37 1 8 34
M  V30 38 1 9 35
M  V30 39 1 15 36
M  V30 40 1 15 37
M  V30 41 1 15 38
M  V30 42 1 17 39
M  V30 43 1 18 40
M  V30 44 1 19 41
M  V30 45 1 20 42
M  V30 46 1 22 43
M  V30 47 1 22 44
M  V30 END BOND
M  V30 END CTAB
M  END
>  <Dataset>  (742) 
ChEMBL_Kinases

>  <Ligand_Instance>  (742) 
nan

>  <PDB_ID>  (742) 
nan

>  <Standardized_SMILES>  (742) 
CN1[C@@H]2CC[C@H]1CC(NC(=O)c1nn(C)c3ccccc13)C2

>  <Name>  (742) 
nan

>  <Pocket>  (742) 
nan

>  <ATP_Site>  (742) 
nan

>  <Peripheral>  (742) 
nan

>  <Num_H_Atoms_ProtBoundConf>  (742) 
nan

>  <Num_Resolved_Atoms>  (742) 
nan

>  <Num_Not_Resolved_Atoms>  (742) 
nan

$$$$
CHEMBL1315373
     RDKit          3D

  0  0  0  0  0  0  0  0  0  0999 V3000
M  V30 BEGIN CTAB
M  V30 COUNTS 38 41 0 0 0
M  V30 BEGIN ATOM
M  V30 1 C -0.713642 -2.671990 4.433698 0
M  V30 2 N 0.170092 -1.928824 3.528616 0
M  V30 3 C 1.446837 -2.626873 3.628120 0
M  V30 4 C 2.412503 -1.984834 2.689925 0
M  V30 5 C 3.300648 -0.939675 2.834025 0
M  V30 6 C 3.958008 -0.753147 1.640360 0
M  V30 7 C 3.435768 -1.710487 0.796255 0
M  V30 8 O 2.536960 -2.411328 1.440452 0
M  V30 9 C -0.284017 -0.784397 2.779986 0
M  V30 10 C -0.351630 -0.624953 1.412132 0
M  V30 11 C -0.834146 0.562877 0.911870 0
M  V30 12 C -0.900064 0.723686 -0.533138 0
M  V30 13 C -1.401290 1.960337 -0.944011 0
M  V30 14 C -1.531814 2.294036 -2.279986 0
M  V30 15 C -1.148109 1.358896 -3.214809 0
M  V30 16 C -0.653081 0.137167 -2.810547 0
M  V30 17 C -0.526667 -0.186225 -1.475204 0
M  V30 18 O -0.364734 -0.562183 -3.980645 0
M  V30 19 C -1.086115 0.014182 -5.073877 0
M  V30 20 O -1.147857 1.370668 -4.618174 0
M  V30 21 N -1.220092 1.519717 1.744215 0
M  V30 22 C -1.147627 1.347948 3.095469 0
M  V30 23 N -0.675316 0.185840 3.627024 0
M  V30 24 H -0.312548 -2.669536 5.473295 0
M  V30 25 H -1.721743 -2.225686 4.486059 0
M  V30 26 H -0.840820 -3.724400 4.093739 0
M  V30 27 H 1.385378 -3.691578 3.406352 0
M  V30 28 H 1.840894 -2.552377 4.677687 0
M  V30 29 H 3.408195 -0.409251 3.745690 0
M  V30 30 H 4.717001 -0.023751 1.403695 0
M  V30 31 H 3.677415 -1.910319 -0.236654 0
M  V30 32 H -0.008110 -1.476036 0.853815 0
M  V30 33 H -1.716688 2.727977 -0.257014 0
M  V30 34 H -1.917109 3.244277 -2.613966 0
M  V30 35 H -0.147270 -1.119006 -1.140082 0
M  V30 36 H -0.550023 -0.081469 -6.035330 0
M  V30 37 H -2.123865 -0.394218 -5.095385 0
M  V30 38 H -1.490602 2.193800 3.688525 0
M  V30 END ATOM
M  V30 BEGIN BOND
M  V30 1 1 1 2
M  V30 2 1 2 3
M  V30 3 1 3 4
M  V30 4 2 4 5
M  V30 5 1 5 6
M  V30 6 2 6 7
M  V30 7 1 7 8
M  V30 8 1 2 9
M  V30 9 2 9 10
M  V30 10 1 10 11
M  V30 11 1 11 12
M  V30 12 2 12 13
M  V30 13 1 13 14
M  V30 14 2 14 15
M  V30 15 1 15 16
M  V30 16 2 16 17
M  V30 17 1 16 18
M  V30 18 1 18 19
M  V30 19 1 19 20
M  V30 20 2 11 21
M  V30 21 1 21 22
M  V30 22 2 22 23
M  V30 23 1 8 4
M  V30 24 1 23 9
M  V30 25 1 17 12
M  V30 26 1 20 15
M  V30 27 1 1 24
M  V30 28 1 1 25
M  V30 29 1 1 26
M  V30 30 1 3 27
M  V30 31 1 3 28
M  V30 32 1 5 29
M  V30 33 1 6 30
M  V30 34 1 7 31
M  V30 35 1 10 32
M  V30 36 1 13 33
M  V30 37 1 14 34
M  V30 38 1 17 35
M  V30 39 1 19 36
M  V30 40 1 19 37
M  V30 41 1 22 38
M  V30 END BOND
M  V30 END CTAB
M  END
>  <Dataset>  (743) 
ChEMBL_Kinases

>  <Ligand_Instance>  (743) 
nan

>  <PDB_ID>  (743) 
nan

>  <Standardized_SMILES>  (743) 
CN(Cc1ccco1)c1cc(-c2ccc3c(c2)OCO3)ncn1

>  <Name>  (743) 
nan

>  <Pocket>  (743) 
nan

>  <ATP_Site>  (743) 
nan

>  <Peripheral>  (743) 
nan

>  <Num_H_Atoms_ProtBoundConf>  (743) 
nan

>  <Num_Resolved_Atoms>  (743) 
nan

>  <Num_Not_Resolved_Atoms>  (743) 
nan

$$$$
CHEMBL1315318
     RDKit          3D

  0  0  0  0  0  0  0  0  0  0999 V3000
M  V30 BEGIN CTAB
M  V30 COUNTS 50 54 0 0 0
M  V30 BEGIN ATOM
M  V30 1 C 1.776435 -5.280821 3.894815 0
M  V30 2 C 2.667967 -4.218018 3.895281 0
M  V30 3 C 2.396366 -3.085373 3.177249 0
M  V30 4 C 1.232265 -2.951412 2.426049 0
M  V30 5 C 0.980923 -1.804179 1.709790 0
M  V30 6 N 1.885073 -0.708702 1.688484 0
M  V30 7 C 1.494504 0.464523 0.884555 0
M  V30 8 C 2.584778 1.483387 0.888432 0
M  V30 9 N 2.275596 2.647228 0.139983 0
M  V30 10 C 3.386362 3.565648 0.008796 0
M  V30 11 C 3.053835 4.716681 -0.880147 0
M  V30 12 O 1.793807 5.250348 -0.642822 0
M  V30 13 C 0.779382 4.333536 -0.608653 0
M  V30 14 C 1.057887 3.316511 0.485458 0
M  V30 15 N -0.167304 -1.771686 1.015488 0
M  V30 16 C -1.037386 -2.804718 1.012276 0
M  V30 17 C -2.278814 -2.774368 0.250967 0
M  V30 18 C -3.125867 -3.860398 0.303671 0
M  V30 19 C -4.319639 -3.943384 -0.374792 0
M  V30 20 C -4.652048 -2.836306 -1.151486 0
M  V30 21 C -3.846287 -1.723747 -1.242480 0
M  V30 22 C -2.646043 -1.694252 -0.532366 0
M  V30 23 O -4.438893 -0.791166 -2.086008 0
M  V30 24 C -5.441497 -1.485974 -2.827558 0
M  V30 25 O -5.743370 -2.575058 -1.949090 0
M  V30 26 N -0.723508 -3.880863 1.729885 0
M  V30 27 C 0.372373 -4.051403 2.462623 0
M  V30 28 C 0.620817 -5.208880 3.179715 0
M  V30 29 H 1.890115 -6.222328 4.424783 0
M  V30 30 H 3.536937 -4.418873 4.504195 0
M  V30 31 H 3.120400 -2.298636 3.215481 0
M  V30 32 H 2.781515 -0.642657 2.171434 0
M  V30 33 H 0.552258 0.840315 1.321799 0
M  V30 34 H 1.272318 0.111000 -0.149991 0
M  V30 35 H 3.501708 1.045581 0.446170 0
M  V30 36 H 2.825331 1.773978 1.934231 0
M  V30 37 H 3.673365 3.884475 1.030037 0
M  V30 38 H 4.219811 2.988498 -0.464828 0
M  V30 39 H 3.791824 5.527673 -0.686934 0
M  V30 40 H 3.185762 4.454463 -1.965125 0
M  V30 41 H -0.147727 4.870196 -0.304754 0
M  V30 42 H 0.606219 3.772027 -1.548352 0
M  V30 43 H 0.235321 2.620851 0.541882 0
M  V30 44 H 1.225987 3.821954 1.463866 0
M  V30 45 H -2.891454 -4.738347 0.904610 0
M  V30 46 H -4.990956 -4.779104 -0.346943 0
M  V30 47 H -1.968109 -0.852543 -0.558308 0
M  V30 48 H -6.321681 -0.845176 -2.979338 0
M  V30 49 H -5.009102 -1.874754 -3.775695 0
M  V30 50 H -0.126035 -6.007183 3.132929 0
M  V30 END ATOM
M  V30 BEGIN BOND
M  V30 1 2 1 2
M  V30 2 1 2 3
M  V30 3 2 3 4
M  V30 4 1 4 5
M  V30 5 1 5 6
M  V30 6 1 6 7
M  V30 7 1 7 8
M  V30 8 1 8 9
M  V30 9 1 9 10
M  V30 10 1 10 11
M  V30 11 1 11 12
M  V30 12 1 12 13
M  V30 13 1 13 14
M  V30 14 2 5 15
M  V30 15 1 15 16
M  V30 16 1 16 17
M  V30 17 2 17 18
M  V30 18 1 18 19
M  V30 19 2 19 20
M  V30 20 1 20 21
M  V30 21 2 21 22
M  V30 22 1 21 23
M  V30 23 1 23 24
M  V30 24 1 24 25
M  V30 25 2 16 26
M  V30 26 1 26 27
M  V30 27 2 27 28
M  V30 28 1 28 1
M  V30 29 1 27 4
M  V30 30 1 14 9
M  V30 31 1 22 17
M  V30 32 1 25 20
M  V30 33 1 1 29
M  V30 34 1 2 30
M  V30 35 1 3 31
M  V30 36 1 6 32
M  V30 37 1 7 33
M  V30 38 1 7 34
M  V30 39 1 8 35
M  V30 40 1 8 36
M  V30 41 1 10 37
M  V30 42 1 10 38
M  V30 43 1 11 39
M  V30 44 1 11 40
M  V30 45 1 13 41
M  V30 46 1 13 42
M  V30 47 1 14 43
M  V30 48 1 14 44
M  V30 49 1 18 45
M  V30 50 1 19 46
M  V30 51 1 22 47
M  V30 52 1 24 48
M  V30 53 1 24 49
M  V30 54 1 28 50
M  V30 END BOND
M  V30 END CTAB
M  END
>  <Dataset>  (744) 
ChEMBL_Kinases

>  <Ligand_Instance>  (744) 
nan

>  <PDB_ID>  (744) 
nan

>  <Standardized_SMILES>  (744) 
c1ccc2c(NCCN3CCOCC3)nc(-c3ccc4c(c3)OCO4)nc2c1

>  <Name>  (744) 
nan

>  <Pocket>  (744) 
nan

>  <ATP_Site>  (744) 
nan

>  <Peripheral>  (744) 
nan

>  <Num_H_Atoms_ProtBoundConf>  (744) 
nan

>  <Num_Resolved_Atoms>  (744) 
nan

>  <Num_Not_Resolved_Atoms>  (744) 
nan

$$$$
CHEMBL1315268
     RDKit          3D

  0  0  0  0  0  0  0  0  0  0999 V3000
M  V30 BEGIN CTAB
M  V30 COUNTS 41 44 0 0 0
M  V30 BEGIN ATOM
M  V30 1 O 0.302642 -4.174889 3.647994 0
M  V30 2 C 1.063733 -3.416729 2.999313 0
M  V30 3 C 2.355724 -3.877687 2.842281 0
M  V30 4 N 3.200900 -3.080165 2.145992 0
M  V30 5 C 2.770687 -1.898993 1.643285 0
M  V30 6 C 3.682231 -1.133800 0.944336 0
M  V30 7 N 3.303322 0.048843 0.425503 0
M  V30 8 C 2.017059 0.453068 0.611418 0
M  V30 9 N 1.616534 1.702468 0.063789 0
M  V30 10 C 0.306410 2.318984 0.146477 0
M  V30 11 C 0.037392 3.203752 -1.051504 0
M  V30 12 O 0.950048 4.256142 -1.055342 0
M  V30 13 C 2.129607 3.967251 -0.382415 0
M  V30 14 C 2.544787 2.531237 -0.678716 0
M  V30 15 N 1.126821 -0.288701 1.290995 0
M  V30 16 C 1.462608 -1.494647 1.835932 0
M  V30 17 N 0.586633 -2.253018 2.520730 0
M  V30 18 C -0.768755 -1.805617 2.704120 0
M  V30 19 C -1.692774 -2.243854 1.630934 0
M  V30 20 C -1.971328 -1.558534 0.466311 0
M  V30 21 C -2.839656 -2.022773 -0.487940 0
M  V30 22 C -3.475953 -3.221321 -0.303851 0
M  V30 23 F -4.343599 -3.694378 -1.247921 0
M  V30 24 C -3.227397 -3.938381 0.844003 0
M  V30 25 C -2.344831 -3.453535 1.800521 0
M  V30 26 H 2.680863 -4.813986 3.245722 0
M  V30 27 H 4.719470 -1.408147 0.766579 0
M  V30 28 H 0.289785 2.924183 1.080693 0
M  V30 29 H -0.450988 1.540242 0.239092 0
M  V30 30 H 0.133063 2.567782 -1.964633 0
M  V30 31 H -1.016218 3.544912 -0.975658 0
M  V30 32 H 2.064870 4.132594 0.713945 0
M  V30 33 H 2.888802 4.685568 -0.768315 0
M  V30 34 H 3.574438 2.327332 -0.388901 0
M  V30 35 H 2.352272 2.353587 -1.756334 0
M  V30 36 H -0.786427 -0.680655 2.786604 0
M  V30 37 H -1.195224 -2.136382 3.692699 0
M  V30 38 H -1.476448 -0.626407 0.323899 0
M  V30 39 H -3.002362 -1.431770 -1.364497 0
M  V30 40 H -3.763753 -4.882523 0.931169 0
M  V30 41 H -2.252154 -4.117103 2.636773 0
M  V30 END ATOM
M  V30 BEGIN BOND
M  V30 1 2 1 2
M  V30 2 1 2 3
M  V30 3 2 3 4
M  V30 4 1 4 5
M  V30 5 2 5 6
M  V30 6 1 6 7
M  V30 7 2 7 8
M  V30 8 1 8 9
M  V30 9 1 9 10
M  V30 10 1 10 11
M  V30 11 1 11 12
M  V30 12 1 12 13
M  V30 13 1 13 14
M  V30 14 1 8 15
M  V30 15 2 15 16
M  V30 16 1 16 17
M  V30 17 1 17 18
M  V30 18 1 18 19
M  V30 19 2 19 20
M  V30 20 1 20 21
M  V30 21 2 21 22
M  V30 22 1 22 23
M  V30 23 1 22 24
M  V30 24 2 24 25
M  V30 25 1 17 2
M  V30 26 1 25 19
M  V30 27 1 16 5
M  V30 28 1 14 9
M  V30 29 1 3 26
M  V30 30 1 6 27
M  V30 31 1 10 28
M  V30 32 1 10 29
M  V30 33 1 11 30
M  V30 34 1 11 31
M  V30 35 1 13 32
M  V30 36 1 13 33
M  V30 37 1 14 34
M  V30 38 1 14 35
M  V30 39 1 18 36
M  V30 40 1 18 37
M  V30 41 1 20 38
M  V30 42 1 21 39
M  V30 43 1 24 40
M  V30 44 1 25 41
M  V30 END BOND
M  V30 END CTAB
M  END
>  <Dataset>  (745) 
ChEMBL_Kinases

>  <Ligand_Instance>  (745) 
nan

>  <PDB_ID>  (745) 
nan

>  <Standardized_SMILES>  (745) 
O=c1cnc2cnc(N3CCOCC3)nc2n1Cc1ccc(F)cc1

>  <Name>  (745) 
nan

>  <Pocket>  (745) 
nan

>  <ATP_Site>  (745) 
nan

>  <Peripheral>  (745) 
nan

>  <Num_H_Atoms_ProtBoundConf>  (745) 
nan

>  <Num_Resolved_Atoms>  (745) 
nan

>  <Num_Not_Resolved_Atoms>  (745) 
nan

$$$$
CHEMBL1315184
     RDKit          3D

  0  0  0  0  0  0  0  0  0  0999 V3000
M  V30 BEGIN CTAB
M  V30 COUNTS 50 53 0 0 0
M  V30 BEGIN ATOM
M  V30 1 C 0.321359 -6.212477 1.872212 0
M  V30 2 O 1.435890 -5.594973 2.431984 0
M  V30 3 C 1.995371 -4.395608 2.089336 0
M  V30 4 C 3.112281 -3.956138 2.777405 0
M  V30 5 C 3.687062 -2.734228 2.433052 0
M  V30 6 C 3.162275 -1.938558 1.407627 0
M  V30 7 C 2.064418 -2.353896 0.719780 0
M  V30 8 C 1.356055 -1.700333 -0.360260 0
M  V30 9 C 1.845706 -0.488614 -0.740516 0
M  V30 10 C 1.247139 0.209578 -1.737998 0
M  V30 11 N 1.396423 1.462008 -2.408729 0
M  V30 12 C 0.504713 2.557322 -2.270404 0
M  V30 13 C 0.562596 3.267963 -0.967992 0
M  V30 14 C 0.305667 2.422658 0.211863 0
M  V30 15 C 1.295503 2.121269 1.161800 0
M  V30 16 N 0.849153 1.378194 2.168715 0
M  V30 17 C -0.451271 1.174592 1.898846 0
M  V30 18 C -1.384944 0.461225 2.619978 0
M  V30 19 C -2.677543 0.406820 2.098196 0
M  V30 20 C -3.030088 1.035011 0.909223 0
M  V30 21 O -4.342985 0.919098 0.474820 0
M  V30 22 C -5.223893 0.162076 1.284396 0
M  V30 23 C -2.075430 1.754358 0.189277 0
M  V30 24 C -0.806623 1.795937 0.719908 0
M  V30 25 N 0.159484 -0.295246 -2.362175 0
M  V30 26 C -0.331842 -1.509175 -1.982113 0
M  V30 27 N 0.260788 -2.199130 -0.994182 0
M  V30 28 C 1.515407 -3.583540 1.091873 0
M  V30 29 H -0.150228 -6.899442 2.609618 0
M  V30 30 H -0.468009 -5.484201 1.557519 0
M  V30 31 H 0.583466 -6.811517 0.977363 0
M  V30 32 H 3.512112 -4.576509 3.570110 0
M  V30 33 H 4.559087 -2.383101 2.963945 0
M  V30 34 H 3.562809 -0.994031 1.103543 0
M  V30 35 H 2.683114 0.085670 -0.384004 0
M  V30 36 H 2.225400 1.610997 -3.062618 0
M  V30 37 H -0.543244 2.155592 -2.460667 0
M  V30 38 H 0.617593 3.312261 -3.091826 0
M  V30 39 H -0.130781 4.152690 -0.955036 0
M  V30 40 H 1.575467 3.729248 -0.877783 0
M  V30 41 H 2.334754 2.442809 1.119824 0
M  V30 42 H 1.376809 1.028046 2.985370 0
M  V30 43 H -1.101454 -0.023167 3.543399 0
M  V30 44 H -3.356337 -0.176274 2.725254 0
M  V30 45 H -6.237886 0.096049 0.856063 0
M  V30 46 H -4.770724 -0.851176 1.431220 0
M  V30 47 H -5.254851 0.632877 2.287406 0
M  V30 48 H -2.315023 2.247135 -0.725474 0
M  V30 49 H -1.180510 -2.097671 -2.336776 0
M  V30 50 H 0.627285 -4.003919 0.596890 0
M  V30 END ATOM
M  V30 BEGIN BOND
M  V30 1 1 1 2
M  V30 2 1 2 3
M  V30 3 2 3 4
M  V30 4 1 4 5
M  V30 5 2 5 6
M  V30 6 1 6 7
M  V30 7 1 7 8
M  V30 8 2 8 9
M  V30 9 1 9 10
M  V30 10 1 10 11
M  V30 11 1 11 12
M  V30 12 1 12 13
M  V30 13 1 13 14
M  V30 14 2 14 15
M  V30 15 1 15 16
M  V30 16 1 16 17
M  V30 17 2 17 18
M  V30 18 1 18 19
M  V30 19 2 19 20
M  V30 20 1 20 21
M  V30 21 1 21 22
M  V30 22 1 20 23
M  V30 23 2 23 24
M  V30 24 2 10 25
M  V30 25 1 25 26
M  V30 26 2 26 27
M  V30 27 2 7 28
M  V30 28 1 28 3
M  V30 29 1 27 8
M  V30 30 1 24 14
M  V30 31 1 24 17
M  V30 32 1 1 29
M  V30 33 1 1 30
M  V30 34 1 1 31
M  V30 35 1 4 32
M  V30 36 1 5 33
M  V30 37 1 6 34
M  V30 38 1 9 35
M  V30 39 1 11 36
M  V30 40 1 12 37
M  V30 41 1 12 38
M  V30 42 1 13 39
M  V30 43 1 13 40
M  V30 44 1 15 41
M  V30 45 1 16 42
M  V30 46 1 18 43
M  V30 47 1 19 44
M  V30 48 1 22 45
M  V30 49 1 22 46
M  V30 50 1 22 47
M  V30 51 1 23 48
M  V30 52 1 26 49
M  V30 53 1 28 50
M  V30 END BOND
M  V30 END CTAB
M  END
>  <Dataset>  (746) 
ChEMBL_Kinases

>  <Ligand_Instance>  (746) 
nan

>  <PDB_ID>  (746) 
nan

>  <Standardized_SMILES>  (746) 
COc1cccc(-c2cc(NCCc3c[nH]c4ccc(OC)cc34)ncn2)c1

>  <Name>  (746) 
nan

>  <Pocket>  (746) 
nan

>  <ATP_Site>  (746) 
nan

>  <Peripheral>  (746) 
nan

>  <Num_H_Atoms_ProtBoundConf>  (746) 
nan

>  <Num_Resolved_Atoms>  (746) 
nan

>  <Num_Not_Resolved_Atoms>  (746) 
nan

$$$$
CHEMBL1315175
     RDKit          3D

  0  0  0  0  0  0  0  0  0  0999 V3000
M  V30 BEGIN CTAB
M  V30 COUNTS 27 29 0 0 0
M  V30 BEGIN ATOM
M  V30 1 O 1.596802 -2.261143 3.177409 0
M  V30 2 C 0.951729 -1.363048 2.598007 0
M  V30 3 C 0.639712 -1.199434 1.182540 0
M  V30 4 C 1.039419 -2.067345 0.245097 0
M  V30 5 C 0.722442 -1.880130 -1.158541 0
M  V30 6 C 0.216091 -2.873179 -2.022534 0
M  V30 7 C 0.004923 -2.556853 -3.328794 0
M  V30 8 C 0.271410 -1.304711 -3.827995 0
M  V30 9 C 0.769201 -0.329917 -2.980297 0
M  V30 10 C 1.010632 -0.584888 -1.616455 0
M  V30 11 O -0.106686 -0.039196 1.009423 0
M  V30 12 C -0.302235 0.573068 2.245690 0
M  V30 13 C -0.978420 1.749675 2.590279 0
M  V30 14 C -1.031201 2.149042 3.905006 0
M  V30 15 C -0.410223 1.373907 4.858744 0
M  V30 16 C 0.255307 0.217707 4.517748 0
M  V30 17 C 0.315682 -0.193896 3.202487 0
M  V30 18 H 1.617542 -2.954868 0.429287 0
M  V30 19 H 0.046144 -3.811541 -1.491942 0
M  V30 20 H -0.387446 -3.426190 -3.839112 0
M  V30 21 H 0.069699 -1.143012 -4.871063 0
M  V30 22 H 0.991096 0.661860 -3.354051 0
M  V30 23 H 1.402534 0.231106 -1.033615 0
M  V30 24 H -1.446479 2.313006 1.793626 0
M  V30 25 H -1.582859 3.076681 4.058875 0
M  V30 26 H -0.534603 1.813119 5.857008 0
M  V30 27 H 0.705447 -0.314181 5.331408 0
M  V30 END ATOM
M  V30 BEGIN BOND
M  V30 1 2 1 2
M  V30 2 1 2 3
M  V30 3 2 3 4
M  V30 4 1 4 5
M  V30 5 2 5 6
M  V30 6 1 6 7
M  V30 7 2 7 8
M  V30 8 1 8 9
M  V30 9 2 9 10
M  V30 10 1 3 11
M  V30 11 1 11 12
M  V30 12 2 12 13
M  V30 13 1 13 14
M  V30 14 2 14 15
M  V30 15 1 15 16
M  V30 16 2 16 17
M  V30 17 1 17 2
M  V30 18 1 10 5
M  V30 19 1 17 12
M  V30 20 1 4 18
M  V30 21 1 6 19
M  V30 22 1 7 20
M  V30 23 1 8 21
M  V30 24 1 9 22
M  V30 25 1 10 23
M  V30 26 1 13 24
M  V30 27 1 14 25
M  V30 28 1 15 26
M  V30 29 1 16 27
M  V30 END BOND
M  V30 END CTAB
M  END
>  <Dataset>  (747) 
ChEMBL_Kinases

>  <Ligand_Instance>  (747) 
nan

>  <PDB_ID>  (747) 
nan

>  <Standardized_SMILES>  (747) 
O=C1/C(=C/c2ccccc2)Oc2ccccc21

>  <Name>  (747) 
(Z)-AURONE

>  <Pocket>  (747) 
nan

>  <ATP_Site>  (747) 
nan

>  <Peripheral>  (747) 
nan

>  <Num_H_Atoms_ProtBoundConf>  (747) 
nan

>  <Num_Resolved_Atoms>  (747) 
nan

>  <Num_Not_Resolved_Atoms>  (747) 
nan

$$$$
CHEMBL1315160
     RDKit          3D

  0  0  0  0  0  0  0  0  0  0999 V3000
M  V30 BEGIN CTAB
M  V30 COUNTS 53 56 0 0 0
M  V30 BEGIN ATOM
M  V30 1 C 2.889383 -4.926190 3.810352 0
M  V30 2 C 3.375741 -4.552122 2.446865 0
M  V30 3 N 2.865919 -3.234071 2.036395 0
M  V30 4 C 3.643899 -2.051044 2.357442 0
M  V30 5 C 4.624626 -1.713556 1.260299 0
M  V30 6 C 1.620836 -3.259476 1.343885 0
M  V30 7 O 1.122907 -4.385990 1.173025 0
M  V30 8 N 0.999789 -2.064458 0.883932 0
M  V30 9 C -0.267761 -1.998910 0.170684 0 CFG=1
M  V30 10 C -1.285768 -1.205618 0.915350 0
M  V30 11 C -2.084960 -0.220348 0.164603 0 CFG=1
M  V30 12 C -2.411397 1.020195 0.906519 0
M  V30 13 C -2.397207 1.138570 2.283558 0
M  V30 14 C -2.718325 2.349304 2.878107 0
M  V30 15 C -3.061305 3.476190 2.157895 0
M  V30 16 C -3.080049 3.372994 0.775522 0
M  V30 17 N -3.354753 4.222534 -0.222698 0
M  V30 18 C -3.221262 3.600303 -1.432154 0
M  V30 19 C -2.841508 2.287987 -1.163946 0
M  V30 20 C -2.757078 2.159027 0.207931 0
M  V30 21 C -2.518622 1.045770 -1.912021 0
M  V30 22 C -1.491228 0.216046 -1.156669 0 CFG=2
M  V30 23 N -1.187619 -0.995089 -1.875118 0
M  V30 24 C -0.896495 -0.769341 -3.273517 0
M  V30 25 C -0.008591 -1.540494 -1.226057 0
M  V30 26 H 2.573628 -4.033033 4.411561 0
M  V30 27 H 3.688882 -5.441373 4.350835 0
M  V30 28 H 1.999414 -5.603683 3.809079 0
M  V30 29 H 4.481587 -4.459919 2.483334 0
M  V30 30 H 3.151019 -5.296385 1.672273 0
M  V30 31 H 2.926037 -1.208133 2.430482 0
M  V30 32 H 4.120670 -2.127159 3.351725 0
M  V30 33 H 5.595748 -2.187614 1.480212 0
M  V30 34 H 4.772962 -0.618632 1.235409 0
M  V30 35 H 4.172948 -2.038026 0.310157 0
M  V30 36 H 1.436864 -1.128292 1.038649 0
M  V30 37 H -0.598168 -3.076493 0.080874 0
M  V30 38 H -1.922842 -1.908359 1.496113 0
M  V30 39 H -0.726292 -0.640335 1.718196 0
M  V30 40 H -3.065910 -0.675098 -0.098254 0
M  V30 41 H -2.134075 0.276592 2.867995 0
M  V30 42 H -2.691778 2.387435 3.959359 0
M  V30 43 H -3.312525 4.420998 2.604464 0
M  V30 44 H -3.634441 5.223291 -0.143524 0
M  V30 45 H -3.358048 3.959854 -2.442837 0
M  V30 46 H -2.130945 1.335909 -2.910194 0
M  V30 47 H -3.465505 0.467324 -2.015665 0
M  V30 48 H -0.602063 0.835446 -0.953979 0
M  V30 49 H -0.057027 -0.069284 -3.429530 0
M  V30 50 H -0.580632 -1.743283 -3.705345 0
M  V30 51 H -1.759667 -0.437315 -3.847555 0
M  V30 52 H 0.314632 -2.388522 -1.895689 0
M  V30 53 H 0.832425 -0.812109 -1.300727 0
M  V30 END ATOM
M  V30 BEGIN BOND
M  V30 1 1 1 2
M  V30 2 1 2 3
M  V30 3 1 3 4
M  V30 4 1 4 5
M  V30 5 1 3 6
M  V30 6 2 6 7
M  V30 7 1 6 8
M  V30 8 1 8 9
M  V30 9 1 9 10
M  V30 10 1 10 11
M  V30 11 1 11 12
M  V30 12 2 12 13
M  V30 13 1 13 14
M  V30 14 2 14 15
M  V30 15 1 15 16
M  V30 16 1 16 17
M  V30 17 1 17 18
M  V30 18 2 18 19
M  V30 19 1 19 20
M  V30 20 1 19 21
M  V30 21 1 21 22
M  V30 22 1 22 23
M  V30 23 1 23 24
M  V30 24 1 23 25
M  V30 25 1 25 9
M  V30 26 1 22 11
M  V30 27 1 20 12
M  V30 28 2 20 16
M  V30 29 1 1 26
M  V30 30 1 1 27
M  V30 31 1 1 28
M  V30 32 1 2 29
M  V30 33 1 2 30
M  V30 34 1 4 31
M  V30 35 1 4 32
M  V30 36 1 5 33
M  V30 37 1 5 34
M  V30 38 1 5 35
M  V30 39 1 8 36
M  V30 40 1 9 37 CFG=3
M  V30 41 1 10 38
M  V30 42 1 10 39
M  V30 43 1 11 40 CFG=3
M  V30 44 1 13 41
M  V30 45 1 14 42
M  V30 46 1 15 43
M  V30 47 1 17 44
M  V30 48 1 18 45
M  V30 49 1 21 46
M  V30 50 1 21 47
M  V30 51 1 22 48 CFG=1
M  V30 52 1 24 49
M  V30 53 1 24 50
M  V30 54 1 24 51
M  V30 55 1 25 52
M  V30 56 1 25 53
M  V30 END BOND
M  V30 END CTAB
M  END
>  <Dataset>  (748) 
ChEMBL_Kinases

>  <Ligand_Instance>  (748) 
nan

>  <PDB_ID>  (748) 
nan

>  <Standardized_SMILES>  (748) 
CCN(CC)C(=O)N[C@H]1C[C@H]2c3cccc4[nH]cc(c34)C[C@@H]2N(C)C1

>  <Name>  (748) 
nan

>  <Pocket>  (748) 
nan

>  <ATP_Site>  (748) 
nan

>  <Peripheral>  (748) 
nan

>  <Num_H_Atoms_ProtBoundConf>  (748) 
nan

>  <Num_Resolved_Atoms>  (748) 
nan

>  <Num_Not_Resolved_Atoms>  (748) 
nan

$$$$
CHEMBL1313598
     RDKit          3D

  0  0  0  0  0  0  0  0  0  0999 V3000
M  V30 BEGIN CTAB
M  V30 COUNTS 48 51 0 0 0
M  V30 BEGIN ATOM
M  V30 1 C -0.128866 -1.890565 4.250537 0
M  V30 2 C -0.385309 -1.568645 2.786211 0
M  V30 3 N 0.619600 -2.021645 1.920729 0
M  V30 4 C 1.889980 -1.417658 1.922237 0
M  V30 5 C 1.951917 -0.044251 1.329116 0
M  V30 6 O 3.158017 0.358807 1.435760 0
M  V30 7 N 1.044318 0.868490 0.706403 0
M  V30 8 C 1.877444 2.009229 0.394876 0
M  V30 9 C 2.446397 1.897229 -0.853851 0
M  V30 10 C 3.254131 2.991848 -1.184326 0
M  V30 11 C 3.448862 4.055694 -0.343690 0
M  V30 12 C 2.812820 4.052672 0.906222 0
M  V30 13 C 1.995372 3.018706 1.325811 0
M  V30 14 O 3.148261 5.230032 1.602315 0
M  V30 15 C 4.181593 5.879104 0.887838 0
M  V30 16 O 4.162602 5.245906 -0.378100 0
M  V30 17 C 0.432178 -3.208632 1.180355 0
M  V30 18 C -0.781531 -3.107707 0.336178 0
M  V30 19 N -0.816414 -2.566117 -0.888214 0
M  V30 20 C -1.943696 -2.503480 -1.618409 0
M  V30 21 O -1.990913 -1.946446 -2.881243 0
M  V30 22 C -3.084288 -3.037128 -1.028061 0
M  V30 23 C -4.307039 -3.018923 -1.709555 0
M  V30 24 C -5.443680 -3.560243 -1.102366 0
M  V30 25 C -5.377730 -4.110528 0.155612 0
M  V30 26 C -4.187411 -4.143582 0.854177 0
M  V30 27 C -3.061393 -3.606994 0.252411 0
M  V30 28 N -1.891058 -3.628304 0.913571 0
M  V30 29 H -0.514834 -2.921343 4.477858 0
M  V30 30 H 0.901584 -1.719456 4.557789 0
M  V30 31 H -0.786186 -1.221894 4.842736 0
M  V30 32 H -1.359605 -2.016167 2.536520 0
M  V30 33 H -0.447952 -0.447698 2.759711 0
M  V30 34 H 2.372433 -1.404381 2.935658 0
M  V30 35 H 2.572095 -2.052044 1.288694 0
M  V30 36 H 0.118364 0.414402 0.677924 0
M  V30 37 H 2.304701 1.073758 -1.520750 0
M  V30 38 H 3.757856 3.019655 -2.146846 0
M  V30 39 H 1.474614 2.935743 2.252689 0
M  V30 40 H 3.970231 6.976708 0.805693 0
M  V30 41 H 5.181106 5.711915 1.388821 0
M  V30 42 H 0.454123 -4.156097 1.762493 0
M  V30 43 H 1.285013 -3.282490 0.448490 0
M  V30 44 H -2.477266 -1.049781 -2.949750 0
M  V30 45 H -4.382423 -2.584653 -2.715900 0
M  V30 46 H -6.412428 -3.557277 -1.616546 0
M  V30 47 H -6.230254 -4.551086 0.687393 0
M  V30 48 H -4.061313 -4.561895 1.849503 0
M  V30 END ATOM
M  V30 BEGIN BOND
M  V30 1 1 1 2
M  V30 2 1 2 3
M  V30 3 1 3 4
M  V30 4 1 4 5
M  V30 5 2 5 6
M  V30 6 1 5 7
M  V30 7 1 7 8
M  V30 8 2 8 9
M  V30 9 1 9 10
M  V30 10 2 10 11
M  V30 11 1 11 12
M  V30 12 2 12 13
M  V30 13 1 12 14
M  V30 14 1 14 15
M  V30 15 1 15 16
M  V30 16 1 3 17
M  V30 17 1 17 18
M  V30 18 2 18 19
M  V30 19 1 19 20
M  V30 20 1 20 21
M  V30 21 2 20 22
M  V30 22 1 22 23
M  V30 23 2 23 24
M  V30 24 1 24 25
M  V30 25 2 25 26
M  V30 26 1 26 27
M  V30 27 2 27 28
M  V30 28 1 13 8
M  V30 29 1 28 18
M  V30 30 1 16 11
M  V30 31 1 27 22
M  V30 32 1 1 29
M  V30 33 1 1 30
M  V30 34 1 1 31
M  V30 35 1 2 32
M  V30 36 1 2 33
M  V30 37 1 4 34
M  V30 38 1 4 35
M  V30 39 1 7 36
M  V30 40 1 9 37
M  V30 41 1 10 38
M  V30 42 1 13 39
M  V30 43 1 15 40
M  V30 44 1 15 41
M  V30 45 1 17 42
M  V30 46 1 17 43
M  V30 47 1 21 44
M  V30 48 1 23 45
M  V30 49 1 24 46
M  V30 50 1 25 47
M  V30 51 1 26 48
M  V30 END BOND
M  V30 END CTAB
M  END
>  <Dataset>  (749) 
ChEMBL_Kinases

>  <Ligand_Instance>  (749) 
nan

>  <PDB_ID>  (749) 
nan

>  <Standardized_SMILES>  (749) 
CCN(CC(=O)Nc1ccc2c(c1)OCO2)Cc1nc(O)c2ccccc2n1

>  <Name>  (749) 
nan

>  <Pocket>  (749) 
nan

>  <ATP_Site>  (749) 
nan

>  <Peripheral>  (749) 
nan

>  <Num_H_Atoms_ProtBoundConf>  (749) 
nan

>  <Num_Resolved_Atoms>  (749) 
nan

>  <Num_Not_Resolved_Atoms>  (749) 
nan

$$$$
CHEMBL1313748
     RDKit          3D

  0  0  0  0  0  0  0  0  0  0999 V3000
M  V30 BEGIN CTAB
M  V30 COUNTS 23 24 0 0 0
M  V30 BEGIN ATOM
M  V30 1 O 1.465822 -0.731927 5.470942 0
M  V30 2 C 1.387449 -0.665716 4.216666 0
M  V30 3 C 1.540285 0.620360 3.448438 0
M  V30 4 C 1.780970 0.144281 2.019931 0
M  V30 5 N 0.857054 -0.981307 1.975265 0 CHG=1 VAL=4
M  V30 6 C -0.016110 -1.316396 1.086056 0
M  V30 7 C -0.269682 -0.575772 -0.146172 0
M  V30 8 C -0.180928 -1.073405 -1.430953 0
M  V30 9 C -0.450290 -0.255784 -2.517590 0
M  V30 10 C -0.815273 1.080399 -2.346406 0
M  V30 11 C -0.906260 1.586978 -1.054926 0
M  V30 12 C -0.633313 0.756030 0.028497 0
M  V30 13 N 1.156696 -1.640472 3.180309 0 CHG=-1 VAL=2
M  V30 14 H 0.607795 1.179515 3.555763 0
M  V30 15 H 2.432597 1.119180 3.867702 0
M  V30 16 H 1.603387 0.906675 1.266453 0
M  V30 17 H 2.809677 -0.300625 2.009903 0
M  V30 18 H -0.631606 -2.197520 1.208912 0
M  V30 19 H 0.104857 -2.113530 -1.520833 0
M  V30 20 H -0.367518 -0.692651 -3.520519 0
M  V30 21 H -1.022848 1.709563 -3.190430 0
M  V30 22 H -1.190949 2.621697 -0.975193 0
M  V30 23 H -0.747166 1.297268 0.977298 0
M  V30 END ATOM
M  V30 BEGIN BOND
M  V30 1 2 1 2
M  V30 2 1 2 3
M  V30 3 1 3 4
M  V30 4 1 4 5
M  V30 5 2 5 6
M  V30 6 1 6 7
M  V30 7 2 7 8
M  V30 8 1 8 9
M  V30 9 2 9 10
M  V30 10 1 10 11
M  V30 11 2 11 12
M  V30 12 1 5 13
M  V30 13 1 13 2
M  V30 14 1 12 7
M  V30 15 1 3 14
M  V30 16 1 3 15
M  V30 17 1 4 16
M  V30 18 1 4 17
M  V30 19 1 6 18
M  V30 20 1 8 19
M  V30 21 1 9 20
M  V30 22 1 10 21
M  V30 23 1 11 22
M  V30 24 1 12 23
M  V30 END BOND
M  V30 END CTAB
M  END
>  <Dataset>  (750) 
ChEMBL_Kinases

>  <Ligand_Instance>  (750) 
nan

>  <PDB_ID>  (750) 
nan

>  <Standardized_SMILES>  (750) 
O=C1CC/[N+](=C\c2ccccc2)[N-]1

>  <Name>  (750) 
nan

>  <Pocket>  (750) 
nan

>  <ATP_Site>  (750) 
nan

>  <Peripheral>  (750) 
nan

>  <Num_H_Atoms_ProtBoundConf>  (750) 
nan

>  <Num_Resolved_Atoms>  (750) 
nan

>  <Num_Not_Resolved_Atoms>  (750) 
nan

$$$$
CHEMBL1313751
     RDKit          3D

  0  0  0  0  0  0  0  0  0  0999 V3000
M  V30 BEGIN CTAB
M  V30 COUNTS 55 58 0 0 0
M  V30 BEGIN ATOM
M  V30 1 C 2.821666 -0.537416 5.233789 0
M  V30 2 O 2.719012 -0.931518 3.905615 0
M  V30 3 C 3.593498 -1.683903 3.174859 0
M  V30 4 C 4.701770 -2.081125 3.878564 0
M  V30 5 C 5.637457 -2.843686 3.221637 0
M  V30 6 C 5.437271 -3.177880 1.905514 0
M  V30 7 C 4.298626 -2.736722 1.279275 0
M  V30 8 C 3.320739 -1.974749 1.863461 0
M  V30 9 C 2.175782 -1.576233 1.100414 0
M  V30 10 C 1.094690 -0.868759 1.338524 0
M  V30 11 C 0.074319 -0.626593 0.327166 0
M  V30 12 C -1.029231 0.031632 0.608055 0
M  V30 13 C -2.121917 0.346465 -0.306104 0
M  V30 14 O -2.272804 0.106931 -1.508124 0
M  V30 15 N -3.103099 1.046147 0.446539 0
M  V30 16 C -4.380615 1.610399 0.123383 0
M  V30 17 C -5.190251 2.265553 1.027318 0
M  V30 18 C -6.408141 2.782411 0.644506 0
M  V30 19 C -6.883051 2.677175 -0.645333 0
M  V30 20 C -6.076891 2.022512 -1.553914 0
M  V30 21 C -4.855749 1.504931 -1.167751 0
M  V30 22 N -2.605019 1.131743 1.724700 0
M  V30 23 C -1.449077 0.584922 1.884693 0
M  V30 24 C -0.735136 0.563366 3.185019 0
M  V30 25 C 0.245649 -1.162085 -1.015755 0
M  V30 26 C 1.297418 -0.896433 -1.896422 0
M  V30 27 C 1.405233 -1.479928 -3.131984 0
M  V30 28 C 0.456657 -2.377444 -3.571837 0
M  V30 29 C 0.586406 -3.001895 -4.913000 0
M  V30 30 C -0.594654 -2.672909 -2.747306 0
M  V30 31 C -0.676926 -2.081736 -1.529963 0
M  V30 32 H 1.781049 -0.253500 5.562538 0
M  V30 33 H 3.187676 -1.336197 5.910919 0
M  V30 34 H 3.403454 0.403063 5.285487 0
M  V30 35 H 4.891910 -1.838379 4.909896 0
M  V30 36 H 6.531657 -3.185218 3.727942 0
M  V30 37 H 6.182240 -3.768201 1.431335 0
M  V30 38 H 4.248710 -3.065633 0.231371 0
M  V30 39 H 2.179421 -1.954570 0.057424 0
M  V30 40 H 1.246846 -0.599436 2.357047 0
M  V30 41 H -4.812154 2.345688 2.041156 0
M  V30 42 H -6.953198 3.275599 1.446602 0
M  V30 43 H -7.846949 3.098891 -0.900926 0
M  V30 44 H -6.477906 1.956931 -2.556167 0
M  V30 45 H -4.347867 1.030786 -1.969174 0
M  V30 46 H -0.646596 -0.462875 3.595469 0
M  V30 47 H 0.159538 1.189198 3.232830 0
M  V30 48 H -1.423389 1.056327 3.952668 0
M  V30 49 H 2.036375 -0.179535 -1.527776 0
M  V30 50 H 2.255720 -1.205564 -3.732102 0
M  V30 51 H 1.634013 -3.199040 -5.143356 0
M  V30 52 H 0.059163 -2.422851 -5.705218 0
M  V30 53 H 0.042897 -3.991482 -4.887522 0
M  V30 54 H -1.310469 -3.381730 -3.138515 0
M  V30 55 H -1.560688 -2.416381 -0.960221 0
M  V30 END ATOM
M  V30 BEGIN BOND
M  V30 1 1 1 2
M  V30 2 1 2 3
M  V30 3 2 3 4
M  V30 4 1 4 5
M  V30 5 2 5 6
M  V30 6 1 6 7
M  V30 7 2 7 8
M  V30 8 1 8 9
M  V30 9 2 9 10
M  V30 10 1 10 11
M  V30 11 2 11 12
M  V30 12 1 12 13
M  V30 13 2 13 14
M  V30 14 1 13 15
M  V30 15 1 15 16
M  V30 16 2 16 17
M  V30 17 1 17 18
M  V30 18 2 18 19
M  V30 19 1 19 20
M  V30 20 2 20 21
M  V30 21 1 15 22
M  V30 22 2 22 23
M  V30 23 1 23 24
M  V30 24 1 11 25
M  V30 25 2 25 26
M  V30 26 1 26 27
M  V30 27 2 27 28
M  V30 28 1 28 29
M  V30 29 1 28 30
M  V30 30 2 30 31
M  V30 31 1 8 3
M  V30 32 1 23 12
M  V30 33 1 31 25
M  V30 34 1 21 16
M  V30 35 1 1 32
M  V30 36 1 1 33
M  V30 37 1 1 34
M  V30 38 1 4 35
M  V30 39 1 5 36
M  V30 40 1 6 37
M  V30 41 1 7 38
M  V30 42 1 9 39
M  V30 43 1 10 40
M  V30 44 1 17 41
M  V30 45 1 18 42
M  V30 46 1 19 43
M  V30 47 1 20 44
M  V30 48 1 21 45
M  V30 49 1 24 46
M  V30 50 1 24 47
M  V30 51 1 24 48
M  V30 52 1 26 49
M  V30 53 1 27 50
M  V30 54 1 29 51
M  V30 55 1 29 52
M  V30 56 1 29 53
M  V30 57 1 30 54
M  V30 58 1 31 55
M  V30 END BOND
M  V30 END CTAB
M  END
>  <Dataset>  (751) 
ChEMBL_Kinases

>  <Ligand_Instance>  (751) 
nan

>  <PDB_ID>  (751) 
nan

>  <Standardized_SMILES>  (751) 
COc1ccccc1/C=C/C(=C1/C(=O)N(c2ccccc2)N=C1C)c1ccc(C)cc1

>  <Name>  (751) 
nan

>  <Pocket>  (751) 
nan

>  <ATP_Site>  (751) 
nan

>  <Peripheral>  (751) 
nan

>  <Num_H_Atoms_ProtBoundConf>  (751) 
nan

>  <Num_Resolved_Atoms>  (751) 
nan

>  <Num_Not_Resolved_Atoms>  (751) 
nan

$$$$
CHEMBL1313757
     RDKit          3D

  0  0  0  0  0  0  0  0  0  0999 V3000
M  V30 BEGIN CTAB
M  V30 COUNTS 43 46 0 0 0
M  V30 BEGIN ATOM
M  V30 1 C 4.231605 -4.816939 1.230288 0
M  V30 2 N 3.713738 -3.460898 1.469274 0
M  V30 3 C 2.627859 -3.394471 2.450133 0
M  V30 4 C 4.105986 -2.237217 0.889506 0
M  V30 5 O 3.535774 -1.141876 1.246946 0
M  V30 6 C 5.045369 -1.683922 -0.097226 0
M  V30 7 S 4.147606 -1.062567 -1.567592 0
M  V30 8 C 3.094143 0.322466 -1.042623 0
M  V30 9 N 2.912505 1.632991 -0.825234 0
M  V30 10 N 1.692886 1.837660 -0.378487 0
M  V30 11 C 1.054498 0.631768 -0.300019 0
M  V30 12 C -0.332215 0.601411 0.177190 0
M  V30 13 C -1.001544 1.736158 0.569149 0
M  V30 14 C -2.293374 1.644525 1.001465 0
M  V30 15 C -3.020317 2.853619 1.432393 0
M  V30 16 C -2.560930 4.190542 1.491476 0
M  V30 17 C -3.433738 5.108219 1.932467 0
M  V30 18 C -4.791592 4.727920 2.328424 0
M  V30 19 S -4.702601 2.838673 1.996167 0
M  V30 20 N -2.916654 0.481213 1.051606 0
M  V30 21 C -2.349439 -0.689316 0.690121 0
M  V30 22 C -3.063457 -1.863622 0.771336 0
M  V30 23 C -2.431281 -3.005653 0.393713 0
M  V30 24 C -1.108082 -3.025553 -0.063965 0
M  V30 25 C -0.477070 -1.787110 -0.108466 0
M  V30 26 C -1.042727 -0.585120 0.254326 0
M  V30 27 O 1.962191 -0.189861 -0.711465 0
M  V30 28 H 4.903232 -4.856531 0.359867 0
M  V30 29 H 4.732424 -5.189188 2.163217 0
M  V30 30 H 3.369012 -5.483342 1.070429 0
M  V30 31 H 2.675302 -2.378262 2.942744 0
M  V30 32 H 1.686326 -3.510790 1.886023 0
M  V30 33 H 2.740470 -4.200592 3.171205 0
M  V30 34 H 5.712072 -0.896422 0.269787 0
M  V30 35 H 5.697243 -2.519060 -0.490436 0
M  V30 36 H -0.522692 2.701818 0.539947 0
M  V30 37 H -1.561994 4.453894 1.197467 0
M  V30 38 H -3.262775 6.168237 2.044590 0
M  V30 39 H -5.583044 5.259870 2.680514 0
M  V30 40 H -4.078358 -1.846872 1.124036 0
M  V30 41 H -3.024870 -3.927089 0.471235 0
M  V30 42 H -0.643223 -3.953255 -0.354366 0
M  V30 43 H 0.536704 -1.864838 -0.468374 0
M  V30 END ATOM
M  V30 BEGIN BOND
M  V30 1 1 1 2
M  V30 2 1 2 3
M  V30 3 1 2 4
M  V30 4 2 4 5
M  V30 5 1 4 6
M  V30 6 1 6 7
M  V30 7 1 7 8
M  V30 8 2 8 9
M  V30 9 1 9 10
M  V30 10 2 10 11
M  V30 11 1 11 12
M  V30 12 2 12 13
M  V30 13 1 13 14
M  V30 14 1 14 15
M  V30 15 2 15 16
M  V30 16 1 16 17
M  V30 17 2 17 18
M  V30 18 1 18 19
M  V30 19 2 14 20
M  V30 20 1 20 21
M  V30 21 2 21 22
M  V30 22 1 22 23
M  V30 23 2 23 24
M  V30 24 1 24 25
M  V30 25 2 25 26
M  V30 26 1 11 27
M  V30 27 1 27 8
M  V30 28 1 26 12
M  V30 29 1 19 15
M  V30 30 1 26 21
M  V30 31 1 1 28
M  V30 32 1 1 29
M  V30 33 1 1 30
M  V30 34 1 3 31
M  V30 35 1 3 32
M  V30 36 1 3 33
M  V30 37 1 6 34
M  V30 38 1 6 35
M  V30 39 1 13 36
M  V30 40 1 16 37
M  V30 41 1 17 38
M  V30 42 1 18 39
M  V30 43 1 22 40
M  V30 44 1 23 41
M  V30 45 1 24 42
M  V30 46 1 25 43
M  V30 END BOND
M  V30 END CTAB
M  END
>  <Dataset>  (752) 
ChEMBL_Kinases

>  <Ligand_Instance>  (752) 
nan

>  <PDB_ID>  (752) 
nan

>  <Standardized_SMILES>  (752) 
CN(C)C(=O)CSc1nnc(-c2cc(-c3cccs3)nc3ccccc23)o1

>  <Name>  (752) 
nan

>  <Pocket>  (752) 
nan

>  <ATP_Site>  (752) 
nan

>  <Peripheral>  (752) 
nan

>  <Num_H_Atoms_ProtBoundConf>  (752) 
nan

>  <Num_Resolved_Atoms>  (752) 
nan

>  <Num_Not_Resolved_Atoms>  (752) 
nan

$$$$
CHEMBL1313970
     RDKit          3D

  0  0  0  0  0  0  0  0  0  0999 V3000
M  V30 BEGIN CTAB
M  V30 COUNTS 47 48 0 0 0
M  V30 BEGIN ATOM
M  V30 1 C 2.317067 -6.369426 -0.559971 0
M  V30 2 N 1.862429 -4.971120 -0.432412 0
M  V30 3 C 2.804014 -3.953195 -0.901169 0
M  V30 4 O 3.923017 -4.171690 -1.390708 0
M  V30 5 N 1.980175 -2.891645 -0.580995 0
M  V30 6 C 2.746856 -1.624070 -0.874869 0
M  V30 7 O 3.951768 -1.700289 -1.360224 0
M  V30 8 C 2.710464 -0.146253 -0.841716 0
M  V30 9 C 3.799379 0.338897 0.118593 0
M  V30 10 O 1.437659 0.247183 -0.353854 0
M  V30 11 C 0.662336 1.205442 -0.982323 0
M  V30 12 O 1.273106 1.636617 -2.011805 0
M  V30 13 C -0.641598 1.786337 -0.710500 0
M  V30 14 C -1.035374 2.836016 -1.542946 0
M  V30 15 C -2.263898 3.409980 -1.321587 0
M  V30 16 C -3.112998 2.991844 -0.318143 0
M  V30 17 Cl -4.651562 3.786484 -0.126730 0
M  V30 18 C -2.660756 1.955905 0.458758 0
M  V30 19 S -3.832173 1.462734 1.686015 0
M  V30 20 O -5.162595 1.202825 1.065804 0
M  V30 21 O -4.032883 2.606933 2.670959 0
M  V30 22 N -3.313422 0.082383 2.556037 0
M  V30 23 C -2.194268 -0.105184 3.367954 0
M  V30 24 C -1.416712 -1.259891 3.200638 0
M  V30 25 C -0.305940 -1.567792 3.930163 0
M  V30 26 C -0.003974 -0.628252 4.866689 0
M  V30 27 F 1.105572 -0.866407 5.648077 0
M  V30 28 C -0.637076 0.551595 5.175629 0
M  V30 29 C -1.749881 0.741119 4.357201 0
M  V30 30 C -1.441196 1.302110 0.327134 0
M  V30 31 H 2.327287 -6.729001 -1.582448 0
M  V30 32 H 1.676294 -7.028437 0.057038 0
M  V30 33 H 3.325347 -6.442435 -0.085675 0
M  V30 34 H 0.885899 -4.873542 -0.013988 0
M  V30 35 H 1.375804 -2.097181 -0.346682 0
M  V30 36 H 2.885662 0.329536 -1.784373 0
M  V30 37 H 3.380241 0.588541 1.120594 0
M  V30 38 H 4.299773 1.247111 -0.245398 0
M  V30 39 H 4.562243 -0.464509 0.147151 0
M  V30 40 H -0.440875 3.232649 -2.343014 0
M  V30 41 H -2.571455 4.231669 -1.976572 0
M  V30 42 H -3.892336 -0.801720 2.503486 0
M  V30 43 H -1.763418 -1.946195 2.404947 0
M  V30 44 H 0.275101 -2.464385 3.781257 0
M  V30 45 H -0.340280 1.246733 5.931440 0
M  V30 46 H -2.365388 1.636747 4.475205 0
M  V30 47 H -1.147354 0.500960 0.958929 0
M  V30 END ATOM
M  V30 BEGIN BOND
M  V30 1 1 1 2
M  V30 2 1 2 3
M  V30 3 2 3 4
M  V30 4 1 3 5
M  V30 5 1 5 6
M  V30 6 2 6 7
M  V30 7 1 6 8
M  V30 8 1 8 9
M  V30 9 1 8 10
M  V30 10 1 10 11
M  V30 11 2 11 12
M  V30 12 1 11 13
M  V30 13 2 13 14
M  V30 14 1 14 15
M  V30 15 2 15 16
M  V30 16 1 16 17
M  V30 17 1 16 18
M  V30 18 1 18 19
M  V30 19 2 19 20
M  V30 20 2 19 21
M  V30 21 1 19 22
M  V30 22 1 22 23
M  V30 23 2 23 24
M  V30 24 1 24 25
M  V30 25 2 25 26
M  V30 26 1 26 27
M  V30 27 1 26 28
M  V30 28 2 28 29
M  V30 29 2 18 30
M  V30 30 1 30 13
M  V30 31 1 29 23
M  V30 32 1 1 31
M  V30 33 1 1 32
M  V30 34 1 1 33
M  V30 35 1 2 34
M  V30 36 1 5 35
M  V30 37 1 8 36
M  V30 38 1 9 37
M  V30 39 1 9 38
M  V30 40 1 9 39
M  V30 41 1 14 40
M  V30 42 1 15 41
M  V30 43 1 22 42
M  V30 44 1 24 43
M  V30 45 1 25 44
M  V30 46 1 28 45
M  V30 47 1 29 46
M  V30 48 1 30 47
M  V30 END BOND
M  V30 END CTAB
M  END
>  <Dataset>  (753) 
ChEMBL_Kinases

>  <Ligand_Instance>  (753) 
nan

>  <PDB_ID>  (753) 
nan

>  <Standardized_SMILES>  (753) 
CNC(=O)NC(=O)C(C)OC(=O)c1ccc(Cl)c(S(=O)(=O)Nc2ccc(F)cc2)c1

>  <Name>  (753) 
nan

>  <Pocket>  (753) 
nan

>  <ATP_Site>  (753) 
nan

>  <Peripheral>  (753) 
nan

>  <Num_H_Atoms_ProtBoundConf>  (753) 
nan

>  <Num_Resolved_Atoms>  (753) 
nan

>  <Num_Not_Resolved_Atoms>  (753) 
nan

$$$$
CHEMBL1314107
     RDKit          3D

  0  0  0  0  0  0  0  0  0  0999 V3000
M  V30 BEGIN CTAB
M  V30 COUNTS 43 45 0 0 0
M  V30 BEGIN ATOM
M  V30 1 C 0.783815 -3.309901 -0.292726 0
M  V30 2 O 0.548136 -1.913115 -0.155790 0
M  V30 3 C 0.535416 -1.192744 -1.337008 0
M  V30 4 C 0.725850 -1.694932 -2.602259 0
M  V30 5 C 0.696965 -0.902498 -3.730227 0
M  V30 6 C 0.891627 -1.437257 -4.984397 0
M  V30 7 C 0.864385 -0.645675 -6.129962 0
M  V30 8 C 0.633081 0.704454 -5.957044 0
M  V30 9 C 0.438946 1.232959 -4.697445 0
M  V30 10 C 0.465934 0.446725 -3.558841 0
M  V30 11 C 0.272210 0.968308 -2.291497 0
M  V30 12 C 0.306164 0.148176 -1.170824 0
M  V30 13 C 0.078473 0.903407 0.055865 0
M  V30 14 O -0.131281 2.136520 0.197022 0
M  V30 15 O 0.051177 0.387196 1.319460 0
M  V30 16 C -0.173345 1.153535 2.489204 0
M  V30 17 C -0.117387 0.191567 3.616134 0
M  V30 18 O 0.087156 -0.483415 2.555704 0
M  V30 19 N -0.143323 -0.365542 4.922427 0
M  V30 20 C -0.388989 0.535740 6.028097 0
M  V30 21 C 0.206604 -0.057223 7.267008 0
M  V30 22 O 0.215357 -1.430598 7.294576 0
M  V30 23 C 0.951773 -1.987751 6.249665 0
M  V30 24 C 0.082687 -1.793712 4.999620 0
M  V30 25 H 0.707351 -3.851570 0.653176 0
M  V30 26 H 0.123093 -3.753496 -1.069645 0
M  V30 27 H 1.819030 -3.387214 -0.723017 0
M  V30 28 H 0.900341 -2.736986 -2.689193 0
M  V30 29 H 1.073563 -2.502183 -5.114980 0
M  V30 30 H 1.015524 -1.048950 -7.125774 0
M  V30 31 H 0.592592 1.409604 -6.790892 0
M  V30 32 H 0.257864 2.301239 -4.582852 0
M  V30 33 H 0.098219 2.053855 -2.290376 0
M  V30 34 H -1.155734 1.658135 2.512988 0
M  V30 35 H 0.574641 1.968516 2.598514 0
M  V30 36 H -1.486741 0.646839 6.175997 0
M  V30 37 H 0.066764 1.532645 5.865280 0
M  V30 38 H -0.397470 0.272469 8.147110 0
M  V30 39 H 1.233680 0.373191 7.442592 0
M  V30 40 H 1.874778 -1.400429 6.067626 0
M  V30 41 H 1.111462 -3.042013 6.483448 0
M  V30 42 H 0.596380 -2.173290 4.118565 0
M  V30 43 H -0.911800 -2.293972 5.123464 0
M  V30 END ATOM
M  V30 BEGIN BOND
M  V30 1 1 1 2
M  V30 2 1 2 3
M  V30 3 2 3 4
M  V30 4 1 4 5
M  V30 5 2 5 6
M  V30 6 1 6 7
M  V30 7 2 7 8
M  V30 8 1 8 9
M  V30 9 2 9 10
M  V30 10 1 10 11
M  V30 11 2 11 12
M  V30 12 1 12 13
M  V30 13 2 13 14
M  V30 14 1 13 15
M  V30 15 1 15 16
M  V30 16 1 16 17
M  V30 17 2 17 18
M  V30 18 1 17 19
M  V30 19 1 19 20
M  V30 20 1 20 21
M  V30 21 1 21 22
M  V30 22 1 22 23
M  V30 23 1 23 24
M  V30 24 1 12 3
M  V30 25 1 24 19
M  V30 26 1 10 5
M  V30 27 1 1 25
M  V30 28 1 1 26
M  V30 29 1 1 27
M  V30 30 1 4 28
M  V30 31 1 6 29
M  V30 32 1 7 30
M  V30 33 1 8 31
M  V30 34 1 9 32
M  V30 35 1 11 33
M  V30 36 1 16 34
M  V30 37 1 16 35
M  V30 38 1 20 36
M  V30 39 1 20 37
M  V30 40 1 21 38
M  V30 41 1 21 39
M  V30 42 1 23 40
M  V30 43 1 23 41
M  V30 44 1 24 42
M  V30 45 1 24 43
M  V30 END BOND
M  V30 END CTAB
M  END
>  <Dataset>  (754) 
ChEMBL_Kinases

>  <Ligand_Instance>  (754) 
nan

>  <PDB_ID>  (754) 
nan

>  <Standardized_SMILES>  (754) 
COc1cc2ccccc2cc1C(=O)OCC(=O)N1CCOCC1

>  <Name>  (754) 
nan

>  <Pocket>  (754) 
nan

>  <ATP_Site>  (754) 
nan

>  <Peripheral>  (754) 
nan

>  <Num_H_Atoms_ProtBoundConf>  (754) 
nan

>  <Num_Resolved_Atoms>  (754) 
nan

>  <Num_Not_Resolved_Atoms>  (754) 
nan

$$$$
CHEMBL1314222
     RDKit          3D

  0  0  0  0  0  0  0  0  0  0999 V3000
M  V30 BEGIN CTAB
M  V30 COUNTS 46 49 0 0 0
M  V30 BEGIN ATOM
M  V30 1 C 0.991437 -3.672656 2.335362 0
M  V30 2 S 2.055622 -4.527138 1.178230 0
M  V30 3 O 2.513158 -5.797252 1.828062 0
M  V30 4 O 1.275963 -4.796740 -0.074971 0
M  V30 5 N 3.463899 -3.571606 0.889803 0
M  V30 6 C 3.572080 -2.268204 0.330724 0
M  V30 7 C 4.531971 -1.943738 -0.634579 0
M  V30 8 C 4.647534 -0.688554 -1.183782 0
M  V30 9 C 3.772101 0.291205 -0.757743 0
M  V30 10 C 2.807331 0.010929 0.196149 0
M  V30 11 C 1.970825 1.158528 0.523898 0
M  V30 12 C 2.470513 2.441149 0.482393 0
M  V30 13 C 1.655656 3.534356 0.797393 0
M  V30 14 C 0.368048 3.222339 1.136883 0
M  V30 15 N -0.438076 4.237695 1.443032 0
M  V30 16 C -1.719197 4.149129 1.797524 0
M  V30 17 N -2.267456 2.937077 1.857987 0
M  V30 18 C -1.558862 1.846911 1.573329 0
M  V30 19 N -1.968934 0.475436 1.576056 0
M  V30 20 C -2.375290 -0.879572 1.579092 0
M  V30 21 C -3.437144 -1.239946 0.672793 0
M  V30 22 C -4.791663 -1.262310 0.833245 0
M  V30 23 C -5.659628 -1.634199 -0.151994 0
M  V30 24 C -4.991368 -2.020676 -1.441142 0
M  V30 25 S -3.156688 -1.786849 -1.038847 0
M  V30 26 C -0.229839 1.973511 1.208459 0
M  V30 27 C 0.657664 0.954578 0.878775 0
M  V30 28 C 2.724527 -1.255659 0.720555 0
M  V30 29 H 0.384918 -4.399233 2.922600 0
M  V30 30 H 1.587056 -3.102777 3.078081 0
M  V30 31 H 0.272946 -3.048314 1.788295 0
M  V30 32 H 4.444736 -3.911222 1.127310 0
M  V30 33 H 5.184567 -2.757068 -0.922198 0
M  V30 34 H 5.423292 -0.536002 -1.925020 0
M  V30 35 H 3.925711 1.251983 -1.235621 0
M  V30 36 H 3.498318 2.641191 0.207480 0
M  V30 37 H 1.993723 4.553603 0.781374 0
M  V30 38 H -2.381960 4.964907 2.048152 0
M  V30 39 H -2.985252 0.643768 1.890801 0
M  V30 40 H -2.571643 -1.325330 2.593845 0
M  V30 41 H -1.466052 -1.487068 1.249533 0
M  V30 42 H -5.186299 -0.968370 1.793088 0
M  V30 43 H -6.729533 -1.675513 -0.098731 0
M  V30 44 H -5.653048 -2.342654 -2.312697 0
M  V30 45 H 0.301567 -0.050236 0.901714 0
M  V30 46 H 1.961063 -1.385880 1.443209 0
M  V30 END ATOM
M  V30 BEGIN BOND
M  V30 1 1 1 2
M  V30 2 2 2 3
M  V30 3 2 2 4
M  V30 4 1 2 5
M  V30 5 1 5 6
M  V30 6 2 6 7
M  V30 7 1 7 8
M  V30 8 2 8 9
M  V30 9 1 9 10
M  V30 10 1 10 11
M  V30 11 2 11 12
M  V30 12 1 12 13
M  V30 13 2 13 14
M  V30 14 1 14 15
M  V30 15 2 15 16
M  V30 16 1 16 17
M  V30 17 2 17 18
M  V30 18 1 18 19
M  V30 19 1 19 20
M  V30 20 1 20 21
M  V30 21 2 21 22
M  V30 22 1 22 23
M  V30 23 2 23 24
M  V30 24 1 24 25
M  V30 25 1 18 26
M  V30 26 2 26 27
M  V30 27 2 10 28
M  V30 28 1 28 6
M  V30 29 1 27 11
M  V30 30 1 26 14
M  V30 31 1 25 21
M  V30 32 1 1 29
M  V30 33 1 1 30
M  V30 34 1 1 31
M  V30 35 1 5 32
M  V30 36 1 7 33
M  V30 37 1 8 34
M  V30 38 1 9 35
M  V30 39 1 12 36
M  V30 40 1 13 37
M  V30 41 1 16 38
M  V30 42 1 19 39
M  V30 43 1 20 40
M  V30 44 1 20 41
M  V30 45 1 22 42
M  V30 46 1 23 43
M  V30 47 1 24 44
M  V30 48 1 27 45
M  V30 49 1 28 46
M  V30 END BOND
M  V30 END CTAB
M  END
>  <Dataset>  (755) 
ChEMBL_Kinases

>  <Ligand_Instance>  (755) 
nan

>  <PDB_ID>  (755) 
nan

>  <Standardized_SMILES>  (755) 
CS(=O)(=O)Nc1cccc(-c2ccc3ncnc(NCc4cccs4)c3c2)c1

>  <Name>  (755) 
nan

>  <Pocket>  (755) 
nan

>  <ATP_Site>  (755) 
nan

>  <Peripheral>  (755) 
nan

>  <Num_H_Atoms_ProtBoundConf>  (755) 
nan

>  <Num_Resolved_Atoms>  (755) 
nan

>  <Num_Not_Resolved_Atoms>  (755) 
nan

$$$$
CHEMBL1314388
     RDKit          3D

  0  0  0  0  0  0  0  0  0  0999 V3000
M  V30 BEGIN CTAB
M  V30 COUNTS 41 45 0 0 0
M  V30 BEGIN ATOM
M  V30 1 C 3.679502 -5.190564 3.147034 0
M  V30 2 C 3.971918 -4.696347 4.443684 0
M  V30 3 S 3.178106 -3.025860 4.417060 0
M  V30 4 C 2.556343 -3.145531 2.739748 0
M  V30 5 C 1.781594 -2.106036 2.012602 0
M  V30 6 N 0.359227 -2.231896 2.197732 0
M  V30 7 C -0.494480 -1.295347 1.552687 0
M  V30 8 N -0.004298 -0.323989 0.795517 0
M  V30 9 C -0.749548 0.594213 0.157215 0
M  V30 10 C -0.089940 1.619574 -0.651128 0
M  V30 11 C -0.843159 2.569382 -1.312481 0
M  V30 12 C -0.204489 3.538873 -2.077714 0
M  V30 13 C 1.189019 3.532920 -2.162543 0
M  V30 14 C 1.932084 2.578593 -1.497162 0
M  V30 15 C 1.288590 1.622827 -0.741875 0
M  V30 16 O 3.275557 2.820099 -1.763660 0
M  V30 17 C 3.403614 3.785383 -2.793231 0
M  V30 18 O 2.101269 4.342716 -2.825990 0
M  V30 19 N -2.091407 0.578860 0.254656 0
M  V30 20 C -2.682810 -0.386643 1.013938 0
M  V30 21 C -4.061600 -0.426535 1.132097 0
M  V30 22 C -4.644147 -1.407094 1.902086 0
M  V30 23 C -3.853205 -2.353919 2.558856 0
M  V30 24 C -2.493068 -2.262233 2.403189 0
M  V30 25 C -1.857346 -1.301708 1.644761 0
M  V30 26 C 2.966446 -4.424436 2.271405 0
M  V30 27 H 4.019848 -6.181057 2.840324 0
M  V30 28 H 4.542889 -5.281337 5.177922 0
M  V30 29 H 2.084854 -1.079332 2.360886 0
M  V30 30 H 2.075204 -2.112677 0.929523 0
M  V30 31 H 0.067955 -3.019443 2.804779 0
M  V30 32 H -1.928806 2.595339 -1.262324 0
M  V30 33 H -0.731946 4.310842 -2.620669 0
M  V30 34 H 1.908750 0.876899 -0.224319 0
M  V30 35 H 3.662888 3.233339 -3.729447 0
M  V30 36 H 4.173443 4.551295 -2.545039 0
M  V30 37 H -4.648255 0.313259 0.616924 0
M  V30 38 H -5.723541 -1.478629 2.024698 0
M  V30 39 H -4.316172 -3.136640 3.173347 0
M  V30 40 H -1.932266 -3.005177 2.922350 0
M  V30 41 H 2.684220 -4.688032 1.267642 0
M  V30 END ATOM
M  V30 BEGIN BOND
M  V30 1 2 1 2
M  V30 2 1 2 3
M  V30 3 1 3 4
M  V30 4 1 4 5
M  V30 5 1 5 6
M  V30 6 1 6 7
M  V30 7 2 7 8
M  V30 8 1 8 9
M  V30 9 1 9 10
M  V30 10 2 10 11
M  V30 11 1 11 12
M  V30 12 2 12 13
M  V30 13 1 13 14
M  V30 14 2 14 15
M  V30 15 1 14 16
M  V30 16 1 16 17
M  V30 17 1 17 18
M  V30 18 2 9 19
M  V30 19 1 19 20
M  V30 20 2 20 21
M  V30 21 1 21 22
M  V30 22 2 22 23
M  V30 23 1 23 24
M  V30 24 2 24 25
M  V30 25 2 4 26
M  V30 26 1 26 1
M  V30 27 1 25 7
M  V30 28 1 15 10
M  V30 29 1 25 20
M  V30 30 1 18 13
M  V30 31 1 1 27
M  V30 32 1 2 28
M  V30 33 1 5 29
M  V30 34 1 5 30
M  V30 35 1 6 31
M  V30 36 1 11 32
M  V30 37 1 12 33
M  V30 38 1 15 34
M  V30 39 1 17 35
M  V30 40 1 17 36
M  V30 41 1 21 37
M  V30 42 1 22 38
M  V30 43 1 23 39
M  V30 44 1 24 40
M  V30 45 1 26 41
M  V30 END BOND
M  V30 END CTAB
M  END
>  <Dataset>  (756) 
ChEMBL_Kinases

>  <Ligand_Instance>  (756) 
nan

>  <PDB_ID>  (756) 
nan

>  <Standardized_SMILES>  (756) 
c1csc(CNc2nc(-c3ccc4c(c3)OCO4)nc3ccccc23)c1

>  <Name>  (756) 
nan

>  <Pocket>  (756) 
nan

>  <ATP_Site>  (756) 
nan

>  <Peripheral>  (756) 
nan

>  <Num_H_Atoms_ProtBoundConf>  (756) 
nan

>  <Num_Resolved_Atoms>  (756) 
nan

>  <Num_Not_Resolved_Atoms>  (756) 
nan

$$$$
CHEMBL1315145
     RDKit          3D

  0  0  0  0  0  0  0  0  0  0999 V3000
M  V30 BEGIN CTAB
M  V30 COUNTS 44 47 0 0 0
M  V30 BEGIN ATOM
M  V30 1 N 3.972683 -1.886328 3.612134 0
M  V30 2 C 2.986767 -2.285122 3.171874 0
M  V30 3 C 1.749579 -2.806492 2.633424 0
M  V30 4 C 1.497829 -2.387732 1.205186 0
M  V30 5 N 1.419196 -0.952981 1.050080 0
M  V30 6 C 2.463426 -0.143830 0.787295 0
M  V30 7 O 3.605124 -0.694260 0.667826 0
M  V30 8 C 2.301286 1.231616 0.652534 0
M  V30 9 C 3.451008 2.085401 0.367536 0
M  V30 10 C 3.501772 3.117802 -0.573850 0
M  V30 11 C 4.653941 3.836493 -0.731636 0
M  V30 12 C 5.798398 3.618321 -0.018065 0
M  V30 13 C 5.725225 2.580831 0.918089 0
M  V30 14 C 4.590462 1.821677 1.121414 0
M  V30 15 N 1.059437 1.761086 0.790578 0
M  V30 16 C -0.012844 0.985703 1.053929 0
M  V30 17 C -1.285395 1.507974 1.197715 0
M  V30 18 N -2.333464 0.686488 1.462515 0
M  V30 19 C -2.125386 -0.644590 1.584690 0
M  V30 20 N -3.142037 -1.606725 1.860781 0
M  V30 21 C -3.798933 -2.185669 0.736521 0
M  V30 22 C -3.441246 -1.808947 -0.542716 0
M  V30 23 C -4.025475 -2.318679 -1.702739 0
M  V30 24 C -5.036589 -3.271543 -1.535174 0
M  V30 25 C -5.403357 -3.657220 -0.242228 0
M  V30 26 C -4.801849 -3.130061 0.879724 0
M  V30 27 N -0.887941 -1.177475 1.447801 0
M  V30 28 C 0.193979 -0.387325 1.181213 0
M  V30 29 H 0.891496 -2.553679 3.301665 0
M  V30 30 H 1.815147 -3.921849 2.618003 0
M  V30 31 H 2.375016 -2.783126 0.619945 0
M  V30 32 H 0.557275 -2.864240 0.883568 0
M  V30 33 H 2.565603 3.227302 -1.093159 0
M  V30 34 H 4.604041 4.626905 -1.491900 0
M  V30 35 H 6.681828 4.206033 -0.173290 0
M  V30 36 H 6.626581 2.387041 1.500599 0
M  V30 37 H 4.654632 1.034599 1.884941 0
M  V30 38 H -1.457960 2.568602 1.101456 0
M  V30 39 H -3.422415 -1.900574 2.805713 0
M  V30 40 H -2.655825 -1.067962 -0.697794 0
M  V30 41 H -3.687976 -1.970788 -2.677034 0
M  V30 42 H -5.511907 -3.688420 -2.412178 0
M  V30 43 H -6.196359 -4.401677 -0.198793 0
M  V30 44 H -5.116888 -3.457401 1.869397 0
M  V30 END ATOM
M  V30 BEGIN BOND
M  V30 1 3 1 2
M  V30 2 1 2 3
M  V30 3 1 3 4
M  V30 4 1 4 5
M  V30 5 1 5 6
M  V30 6 2 6 7
M  V30 7 1 6 8
M  V30 8 1 8 9
M  V30 9 2 9 10
M  V30 10 1 10 11
M  V30 11 2 11 12
M  V30 12 1 12 13
M  V30 13 2 13 14
M  V30 14 2 8 15
M  V30 15 1 15 16
M  V30 16 2 16 17
M  V30 17 1 17 18
M  V30 18 2 18 19
M  V30 19 1 19 20
M  V30 20 1 20 21
M  V30 21 2 21 22
M  V30 22 1 22 23
M  V30 23 2 23 24
M  V30 24 1 24 25
M  V30 25 2 25 26
M  V30 26 1 19 27
M  V30 27 2 27 28
M  V30 28 1 28 5
M  V30 29 1 14 9
M  V30 30 1 28 16
M  V30 31 1 26 21
M  V30 32 1 3 29
M  V30 33 1 3 30
M  V30 34 1 4 31
M  V30 35 1 4 32
M  V30 36 1 10 33
M  V30 37 1 11 34
M  V30 38 1 12 35
M  V30 39 1 13 36
M  V30 40 1 14 37
M  V30 41 1 17 38
M  V30 42 1 20 39
M  V30 43 1 22 40
M  V30 44 1 23 41
M  V30 45 1 24 42
M  V30 46 1 25 43
M  V30 47 1 26 44
M  V30 END BOND
M  V30 END CTAB
M  END
>  <Dataset>  (757) 
ChEMBL_Kinases

>  <Ligand_Instance>  (757) 
nan

>  <PDB_ID>  (757) 
nan

>  <Standardized_SMILES>  (757) 
N#CCCn1c(=O)c(-c2ccccc2)nc2cnc(Nc3ccccc3)nc21

>  <Name>  (757) 
nan

>  <Pocket>  (757) 
nan

>  <ATP_Site>  (757) 
nan

>  <Peripheral>  (757) 
nan

>  <Num_H_Atoms_ProtBoundConf>  (757) 
nan

>  <Num_Resolved_Atoms>  (757) 
nan

>  <Num_Not_Resolved_Atoms>  (757) 
nan

$$$$
CHEMBL1314622
     RDKit          3D

  0  0  0  0  0  0  0  0  0  0999 V3000
M  V30 BEGIN CTAB
M  V30 COUNTS 34 34 0 0 0
M  V30 BEGIN ATOM
M  V30 1 O 1.028660 -5.223505 3.213034 0
M  V30 2 C 0.366812 -4.336865 2.606161 0
M  V30 3 O 0.197313 -3.192777 3.414510 0
M  V30 4 C -0.277837 -4.181215 1.281825 0
M  V30 5 C -0.320217 -2.792548 0.783893 0
M  V30 6 C 0.951964 -2.098017 0.433196 0 CFG=1
M  V30 7 N 0.534957 -0.723874 0.035773 0
M  V30 8 C 0.400094 0.165262 -1.092990 0
M  V30 9 O 0.744861 -0.384387 -2.172054 0
M  V30 10 C -0.089456 1.492704 -0.808960 0
M  V30 11 C 0.914262 2.444248 -1.020209 0
M  V30 12 C 0.684106 3.809968 -0.802162 0
M  V30 13 C -0.568670 4.246291 -0.364419 0
M  V30 14 C -1.556324 3.298163 -0.157353 0
M  V30 15 C -1.298045 1.985136 -0.379282 0
M  V30 16 C -2.302641 0.960910 -0.187991 0
M  V30 17 O -3.427208 1.286618 0.207808 0
M  V30 18 O -2.224098 -0.399163 -0.380135 0
M  V30 19 C 2.027485 -2.076682 1.393853 0
M  V30 20 O 2.647702 -3.148745 1.702624 0
M  V30 21 O 2.975559 -1.709364 2.319947 0
M  V30 22 H 0.257519 -3.186372 4.406477 0
M  V30 23 H 0.144530 -4.905345 0.541861 0
M  V30 24 H -1.340270 -4.538348 1.440349 0
M  V30 25 H -0.982002 -2.771539 -0.137350 0
M  V30 26 H -0.931392 -2.191467 1.527313 0
M  V30 27 H 1.367790 -2.534781 -0.544330 0
M  V30 28 H 0.257783 -0.356476 0.992181 0
M  V30 29 H 1.946807 2.278894 -1.360765 0
M  V30 30 H 1.414087 4.591086 -0.946312 0
M  V30 31 H -0.769921 5.301596 -0.188457 0
M  V30 32 H -2.543612 3.563615 0.179874 0
M  V30 33 H -2.975037 -1.000476 -0.671492 0
M  V30 34 H 2.742831 -1.216029 3.191826 0
M  V30 END ATOM
M  V30 BEGIN BOND
M  V30 1 2 1 2
M  V30 2 1 2 3
M  V30 3 1 2 4
M  V30 4 1 4 5
M  V30 5 1 5 6
M  V30 6 1 6 7
M  V30 7 1 7 8
M  V30 8 2 8 9
M  V30 9 1 8 10
M  V30 10 2 10 11
M  V30 11 1 11 12
M  V30 12 2 12 13
M  V30 13 1 13 14
M  V30 14 2 14 15
M  V30 15 1 15 16
M  V30 16 2 16 17
M  V30 17 1 16 18
M  V30 18 1 6 19
M  V30 19 2 19 20
M  V30 20 1 19 21
M  V30 21 1 15 10
M  V30 22 1 3 22
M  V30 23 1 4 23
M  V30 24 1 4 24
M  V30 25 1 5 25
M  V30 26 1 5 26
M  V30 27 1 6 27 CFG=3
M  V30 28 1 7 28
M  V30 29 1 11 29
M  V30 30 1 12 30
M  V30 31 1 13 31
M  V30 32 1 14 32
M  V30 33 1 18 33
M  V30 34 1 21 34
M  V30 END BOND
M  V30 END CTAB
M  END
>  <Dataset>  (758) 
ChEMBL_Kinases

>  <Ligand_Instance>  (758) 
nan

>  <PDB_ID>  (758) 
nan

>  <Standardized_SMILES>  (758) 
O=C(O)CC[C@@H](NC(=O)c1ccccc1C(=O)O)C(=O)O

>  <Name>  (758) 
nan

>  <Pocket>  (758) 
nan

>  <ATP_Site>  (758) 
nan

>  <Peripheral>  (758) 
nan

>  <Num_H_Atoms_ProtBoundConf>  (758) 
nan

>  <Num_Resolved_Atoms>  (758) 
nan

>  <Num_Not_Resolved_Atoms>  (758) 
nan

$$$$
CHEMBL1314647
     RDKit          3D

  0  0  0  0  0  0  0  0  0  0999 V3000
M  V30 BEGIN CTAB
M  V30 COUNTS 48 51 0 0 0
M  V30 BEGIN ATOM
M  V30 1 C -0.745442 -0.436812 4.710763 0
M  V30 2 O -0.060809 -0.899981 3.606497 0
M  V30 3 C 1.309402 -0.793374 3.725108 0
M  V30 4 C 2.024533 -1.316938 2.482080 0
M  V30 5 N 1.566847 -0.515956 1.361824 0
M  V30 6 C 2.234711 0.625579 1.020777 0
M  V30 7 O 3.244570 1.013522 1.649485 0
M  V30 8 C 1.831865 1.419281 -0.041152 0
M  V30 9 C 2.533823 2.641412 -0.418683 0
M  V30 10 C 2.798886 2.875087 -1.754102 0
M  V30 11 C 3.468268 4.044534 -2.093379 0
M  V30 12 C 3.860330 4.955914 -1.106621 0
M  V30 13 C 3.588539 4.706684 0.212319 0
M  V30 14 C 3.992448 5.646486 1.233403 0
M  V30 15 N 4.314065 6.406198 2.042709 0
M  V30 16 C 2.933776 3.561370 0.536816 0
M  V30 17 N 0.733260 1.034442 -0.756919 0
M  V30 18 C 0.084405 -0.091403 -0.411210 0
M  V30 19 C -1.025047 -0.499100 -1.117707 0
M  V30 20 N -1.657360 -1.623703 -0.757286 0
M  V30 21 C -1.294734 -2.412387 0.262106 0
M  V30 22 N -1.938068 -3.607328 0.672254 0
M  V30 23 C -3.070757 -4.211185 0.111351 0
M  V30 24 C -3.791390 -3.754038 -0.965903 0
M  V30 25 C -4.905372 -4.356641 -1.509990 0
M  V30 26 C -5.357929 -5.524209 -0.940837 0
M  V30 27 C -4.676203 -6.032105 0.142846 0
M  V30 28 C -3.575825 -5.374773 0.627120 0
M  V30 29 N -0.211257 -1.984697 0.926798 0
M  V30 30 C 0.487614 -0.877873 0.644885 0
M  V30 31 H -1.838005 -0.578927 4.487547 0
M  V30 32 H -0.639488 0.651053 4.885712 0
M  V30 33 H -0.550791 -1.010200 5.637551 0
M  V30 34 H 1.543492 0.273510 3.882827 0
M  V30 35 H 1.627866 -1.407250 4.602056 0
M  V30 36 H 3.105738 -1.296131 2.615854 0
M  V30 37 H 1.679950 -2.351599 2.284178 0
M  V30 38 H 2.504661 2.180065 -2.552593 0
M  V30 39 H 3.704121 4.282295 -3.125409 0
M  V30 40 H 4.380973 5.857467 -1.412607 0
M  V30 41 H 2.697898 3.322478 1.563177 0
M  V30 42 H -1.372636 0.089643 -1.951799 0
M  V30 43 H -1.512405 -4.105131 1.502924 0
M  V30 44 H -3.498020 -2.849912 -1.460952 0
M  V30 45 H -5.435023 -3.955331 -2.357686 0
M  V30 46 H -6.216495 -6.068498 -1.291808 0
M  V30 47 H -5.034697 -6.961279 0.597367 0
M  V30 48 H -3.100261 -5.857470 1.493034 0
M  V30 END ATOM
M  V30 BEGIN BOND
M  V30 1 1 1 2
M  V30 2 1 2 3
M  V30 3 1 3 4
M  V30 4 1 4 5
M  V30 5 1 5 6
M  V30 6 2 6 7
M  V30 7 1 6 8
M  V30 8 1 8 9
M  V30 9 2 9 10
M  V30 10 1 10 11
M  V30 11 2 11 12
M  V30 12 1 12 13
M  V30 13 1 13 14
M  V30 14 3 14 15
M  V30 15 2 13 16
M  V30 16 2 8 17
M  V30 17 1 17 18
M  V30 18 2 18 19
M  V30 19 1 19 20
M  V30 20 2 20 21
M  V30 21 1 21 22
M  V30 22 1 22 23
M  V30 23 2 23 24
M  V30 24 1 24 25
M  V30 25 2 25 26
M  V30 26 1 26 27
M  V30 27 2 27 28
M  V30 28 1 21 29
M  V30 29 2 29 30
M  V30 30 1 30 5
M  V30 31 1 16 9
M  V30 32 1 30 18
M  V30 33 1 28 23
M  V30 34 1 1 31
M  V30 35 1 1 32
M  V30 36 1 1 33
M  V30 37 1 3 34
M  V30 38 1 3 35
M  V30 39 1 4 36
M  V30 40 1 4 37
M  V30 41 1 10 38
M  V30 42 1 11 39
M  V30 43 1 12 40
M  V30 44 1 16 41
M  V30 45 1 19 42
M  V30 46 1 22 43
M  V30 47 1 24 44
M  V30 48 1 25 45
M  V30 49 1 26 46
M  V30 50 1 27 47
M  V30 51 1 28 48
M  V30 END BOND
M  V30 END CTAB
M  END
>  <Dataset>  (759) 
ChEMBL_Kinases

>  <Ligand_Instance>  (759) 
nan

>  <PDB_ID>  (759) 
nan

>  <Standardized_SMILES>  (759) 
COCCn1c(=O)c(-c2cccc(C#N)c2)nc2cnc(Nc3ccccc3)nc21

>  <Name>  (759) 
nan

>  <Pocket>  (759) 
nan

>  <ATP_Site>  (759) 
nan

>  <Peripheral>  (759) 
nan

>  <Num_H_Atoms_ProtBoundConf>  (759) 
nan

>  <Num_Resolved_Atoms>  (759) 
nan

>  <Num_Not_Resolved_Atoms>  (759) 
nan

$$$$
CHEMBL1314674
     RDKit          3D

  0  0  0  0  0  0  0  0  0  0999 V3000
M  V30 BEGIN CTAB
M  V30 COUNTS 43 45 0 0 0
M  V30 BEGIN ATOM
M  V30 1 C 3.188181 -3.888051 -1.154852 0
M  V30 2 N 1.823768 -3.436971 -1.206316 0
M  V30 3 C 0.867927 -4.466657 -1.564014 0
M  V30 4 C -0.531137 -3.981255 -1.619373 0
M  V30 5 C -1.469121 -3.955321 -0.578349 0
M  V30 6 C -2.668203 -3.420189 -1.062362 0
M  V30 7 C -2.376680 -3.153949 -2.375178 0
M  V30 8 O -1.145775 -3.484692 -2.668200 0
M  V30 9 C 1.696550 -2.015681 -0.882371 0
M  V30 10 C 1.436097 -1.525679 0.414820 0
M  V30 11 C 1.337019 -0.150615 0.691999 0
M  V30 12 C 1.052121 0.261168 2.047708 0
M  V30 13 C 0.900706 -0.661691 3.046238 0
M  V30 14 C 0.640609 -0.213489 4.316240 0
M  V30 15 C 0.537391 1.159056 4.558935 0
M  V30 16 C 0.695855 2.053757 3.527286 0
M  V30 17 N 0.601979 3.466767 3.726498 0
M  V30 18 S -0.214989 4.686038 2.847274 0
M  V30 19 C -1.961227 4.428088 2.824977 0
M  V30 20 O 0.068017 6.003996 3.480380 0
M  V30 21 O 0.365786 4.697679 1.460559 0
M  V30 22 C 0.962450 1.639235 2.215001 0
M  V30 23 N 1.547379 0.197700 -0.493031 0
M  V30 24 C 1.770491 0.240825 -1.693825 0
M  V30 25 N 1.850473 -1.100957 -1.875014 0
M  V30 26 H 3.370443 -4.599234 -0.336985 0
M  V30 27 H 3.418638 -4.435765 -2.115737 0
M  V30 28 H 3.940336 -3.077309 -1.045529 0
M  V30 29 H 0.892081 -5.234560 -0.750733 0
M  V30 30 H 1.140478 -4.969296 -2.510665 0
M  V30 31 H -1.266832 -4.300450 0.424301 0
M  V30 32 H -3.586670 -3.259179 -0.532797 0
M  V30 33 H -3.156066 -2.715210 -3.017921 0
M  V30 34 H 1.332837 -2.364444 1.122680 0
M  V30 35 H 0.962975 -1.723917 2.949076 0
M  V30 36 H 0.508883 -0.893371 5.157531 0
M  V30 37 H 0.337974 1.613247 5.503369 0
M  V30 38 H 1.169043 3.707168 4.587078 0
M  V30 39 H -2.383707 4.785226 3.787622 0
M  V30 40 H -2.233164 3.354813 2.702740 0
M  V30 41 H -2.418173 5.022211 2.018080 0
M  V30 42 H 1.083634 2.338464 1.410280 0
M  V30 43 H 1.886588 0.993112 -2.448631 0
M  V30 END ATOM
M  V30 BEGIN BOND
M  V30 1 1 1 2
M  V30 2 1 2 3
M  V30 3 1 3 4
M  V30 4 2 4 5
M  V30 5 1 5 6
M  V30 6 2 6 7
M  V30 7 1 7 8
M  V30 8 1 2 9
M  V30 9 2 9 10
M  V30 10 1 10 11
M  V30 11 1 11 12
M  V30 12 2 12 13
M  V30 13 1 13 14
M  V30 14 2 14 15
M  V30 15 1 15 16
M  V30 16 1 16 17
M  V30 17 1 17 18
M  V30 18 1 18 19
M  V30 19 2 18 20
M  V30 20 2 18 21
M  V30 21 2 16 22
M  V30 22 2 11 23
M  V30 23 1 23 24
M  V30 24 2 24 25
M  V30 25 1 8 4
M  V30 26 1 25 9
M  V30 27 1 22 12
M  V30 28 1 1 26
M  V30 29 1 1 27
M  V30 30 1 1 28
M  V30 31 1 3 29
M  V30 32 1 3 30
M  V30 33 1 5 31
M  V30 34 1 6 32
M  V30 35 1 7 33
M  V30 36 1 10 34
M  V30 37 1 13 35
M  V30 38 1 14 36
M  V30 39 1 15 37
M  V30 40 1 17 38
M  V30 41 1 19 39
M  V30 42 1 19 40
M  V30 43 1 19 41
M  V30 44 1 22 42
M  V30 45 1 24 43
M  V30 END BOND
M  V30 END CTAB
M  END
>  <Dataset>  (760) 
ChEMBL_Kinases

>  <Ligand_Instance>  (760) 
nan

>  <PDB_ID>  (760) 
nan

>  <Standardized_SMILES>  (760) 
CN(Cc1ccco1)c1cc(-c2cccc(NS(C)(=O)=O)c2)ncn1

>  <Name>  (760) 
nan

>  <Pocket>  (760) 
nan

>  <ATP_Site>  (760) 
nan

>  <Peripheral>  (760) 
nan

>  <Num_H_Atoms_ProtBoundConf>  (760) 
nan

>  <Num_Resolved_Atoms>  (760) 
nan

>  <Num_Not_Resolved_Atoms>  (760) 
nan

$$$$
CHEMBL1314749
     RDKit          3D

  0  0  0  0  0  0  0  0  0  0999 V3000
M  V30 BEGIN CTAB
M  V30 COUNTS 100 105 0 0 0
M  V30 BEGIN ATOM
M  V30 1 C -2.294368 -6.076036 6.255923 0
M  V30 2 C -1.297357 -5.432317 5.280723 0
M  V30 3 C -1.747343 -5.679410 3.875149 0
M  V30 4 C -1.170020 -3.989912 5.653964 0
M  V30 5 C -0.208388 -3.222936 4.768386 0
M  V30 6 C -0.146127 -1.786793 5.230994 0
M  V30 7 C 0.793306 -0.982686 4.400190 0
M  V30 8 C 2.187904 -1.607565 4.507335 0
M  V30 9 C 0.840019 0.442254 4.810298 0
M  V30 10 C 0.628297 1.558750 4.134833 0
M  V30 11 C 0.289862 1.308181 2.740124 0
M  V30 12 C 0.059439 2.435228 1.965722 0
M  V30 13 O 0.139600 3.722507 2.474233 0
M  V30 14 C -0.266809 2.260855 0.616371 0
M  V30 15 C -0.361257 0.982936 0.052604 0
M  V30 16 C -0.120459 -0.124581 0.870713 0
M  V30 17 C -0.204307 -1.471703 0.297906 0
M  V30 18 C -1.579366 -1.988426 0.051169 0
M  V30 19 C -1.646221 -3.372459 -0.530941 0
M  V30 20 C -1.004130 -4.422497 0.347405 0
M  V30 21 C -1.030208 -3.349923 -1.901719 0
M  V30 22 C 0.206896 0.043212 2.222500 0
M  V30 23 O 0.448015 -1.044937 3.039782 0
M  V30 24 O -0.688334 0.913288 -1.279350 0
M  V30 25 C -0.712283 1.932681 -2.216513 0
M  V30 26 C -0.148553 3.218986 -1.690810 0
M  V30 27 C -0.458017 4.438586 -2.486579 0
M  V30 28 C -0.798116 3.913989 -3.889179 0
M  V30 29 C -2.183213 3.350914 -3.695253 0
M  V30 30 C -2.072755 2.109039 -2.885202 0
M  V30 31 C -2.035320 0.947132 -3.862174 0
M  V30 32 C -2.833367 -0.181813 -3.246377 0
M  V30 33 C -2.716341 1.252307 -5.176825 0
M  V30 34 O -0.723961 0.660009 -4.106593 0
M  V30 35 C 0.093139 1.583959 -3.474580 0
M  V30 36 C 1.413728 0.958872 -3.108282 0
M  V30 37 C 2.218193 0.609302 -4.344035 0
M  V30 38 C 3.535501 -0.015648 -3.902170 0
M  V30 39 C 3.306883 -1.262676 -3.098232 0
M  V30 40 C 4.366846 -0.211111 -5.093953 0
M  V30 41 O 4.750287 -1.366961 -5.414014 0
M  V30 42 O 4.711817 0.888038 -5.840756 0
M  V30 43 C 0.247792 2.884066 -4.214848 0
M  V30 44 O 0.467396 2.695178 -5.564214 0
M  V30 45 C -0.509269 3.417882 -0.239731 0
M  V30 46 O -0.988055 4.447605 0.315763 0
M  V30 47 H -1.781388 -6.150101 7.234218 0
M  V30 48 H -2.597040 -7.063267 5.903213 0
M  V30 49 H -3.128582 -5.357971 6.413083 0
M  V30 50 H -0.355732 -5.996071 5.442870 0
M  V30 51 H -2.235288 -6.693319 3.816247 0
M  V30 52 H -0.879239 -5.698642 3.175612 0
M  V30 53 H -2.526347 -4.964110 3.530164 0
M  V30 54 H -2.139448 -3.458527 5.619661 0
M  V30 55 H -0.768295 -3.955333 6.685431 0
M  V30 56 H -0.478666 -3.254222 3.707246 0
M  V30 57 H 0.797256 -3.682075 4.968131 0
M  V30 58 H -1.147782 -1.332514 5.336374 0
M  V30 59 H 0.270186 -1.831888 6.280740 0
M  V30 60 H 2.964104 -0.940490 4.080176 0
M  V30 61 H 2.212320 -2.568340 3.954970 0
M  V30 62 H 2.341069 -1.857296 5.576548 0
M  V30 63 H 1.105894 0.458142 5.877252 0
M  V30 64 H 0.718027 2.507276 4.643496 0
M  V30 65 H -0.563715 4.080339 3.124584 0
M  V30 66 H 0.271425 -2.196981 1.026764 0
M  V30 67 H 0.455650 -1.585058 -0.611608 0
M  V30 68 H -2.024724 -1.316752 -0.715952 0
M  V30 69 H -2.132459 -1.935057 1.014542 0
M  V30 70 H -2.733713 -3.652816 -0.571269 0
M  V30 71 H -1.679941 -4.629914 1.185136 0
M  V30 72 H -0.963861 -5.358778 -0.276904 0
M  V30 73 H 0.041924 -4.197739 0.622642 0
M  V30 74 H -1.837241 -3.579324 -2.642042 0
M  V30 75 H -0.542441 -2.407485 -2.170143 0
M  V30 76 H -0.335919 -4.222023 -1.969880 0
M  V30 77 H 0.958003 3.122102 -1.720698 0
M  V30 78 H -1.373303 4.973422 -2.098322 0
M  V30 79 H 0.344451 5.188307 -2.496911 0
M  V30 80 H -0.732204 4.708424 -4.648293 0
M  V30 81 H -2.771358 4.085178 -3.068944 0
M  V30 82 H -2.714452 3.295043 -4.638633 0
M  V30 83 H -2.895307 2.001413 -2.161939 0
M  V30 84 H -2.224486 -1.092178 -3.252574 0
M  V30 85 H -3.750152 -0.443144 -3.836303 0
M  V30 86 H -3.219790 0.090856 -2.241723 0
M  V30 87 H -3.761948 1.603713 -5.066900 0
M  V30 88 H -2.837951 0.236417 -5.663194 0
M  V30 89 H -2.104682 1.813253 -5.892215 0
M  V30 90 H 2.046061 1.603796 -2.498384 0
M  V30 91 H 1.222391 0.023122 -2.561362 0
M  V30 92 H 1.644709 -0.117971 -4.951715 0
M  V30 93 H 2.390170 1.505090 -4.963681 0
M  V30 94 H 4.018614 0.743935 -3.224701 0
M  V30 95 H 4.230537 -1.859383 -3.075644 0
M  V30 96 H 2.452239 -1.804102 -3.545922 0
M  V30 97 H 3.008512 -0.945906 -2.060072 0
M  V30 98 H 5.540208 0.883654 -6.429173 0
M  V30 99 H 1.215528 3.323508 -3.822569 0
M  V30 100 H 0.813415 3.528728 -5.970435 0
M  V30 END ATOM
M  V30 BEGIN BOND
M  V30 1 1 1 2
M  V30 2 1 2 3
M  V30 3 1 2 4
M  V30 4 1 4 5
M  V30 5 1 5 6
M  V30 6 1 6 7
M  V30 7 1 7 8
M  V30 8 1 7 9
M  V30 9 2 9 10
M  V30 10 1 10 11
M  V30 11 1 11 12
M  V30 12 1 12 13
M  V30 13 2 12 14
M  V30 14 1 14 15
M  V30 15 2 15 16
M  V30 16 1 16 17
M  V30 17 1 17 18
M  V30 18 1 18 19
M  V30 19 1 19 20
M  V30 20 1 19 21
M  V30 21 1 16 22
M  V30 22 1 22 23
M  V30 23 1 15 24
M  V30 24 1 24 25
M  V30 25 1 25 26
M  V30 26 1 26 27
M  V30 27 1 27 28
M  V30 28 1 28 29
M  V30 29 1 29 30
M  V30 30 1 30 31
M  V30 31 1 31 32
M  V30 32 1 31 33
M  V30 33 1 31 34
M  V30 34 1 34 35
M  V30 35 1 35 36
M  V30 36 1 36 37
M  V30 37 1 37 38
M  V30 38 1 38 39
M  V30 39 1 38 40
M  V30 40 2 40 41
M  V30 41 1 40 42
M  V30 42 1 35 43
M  V30 43 1 43 44
M  V30 44 1 26 45
M  V30 45 2 45 46
M  V30 46 1 23 7
M  V30 47 1 30 25
M  V30 48 2 22 11
M  V30 49 1 35 25
M  V30 50 1 45 14
M  V30 51 1 43 28
M  V30 52 1 1 47
M  V30 53 1 1 48
M  V30 54 1 1 49
M  V30 55 1 2 50
M  V30 56 1 3 51
M  V30 57 1 3 52
M  V30 58 1 3 53
M  V30 59 1 4 54
M  V30 60 1 4 55
M  V30 61 1 5 56
M  V30 62 1 5 57
M  V30 63 1 6 58
M  V30 64 1 6 59
M  V30 65 1 8 60
M  V30 66 1 8 61
M  V30 67 1 8 62
M  V30 68 1 9 63
M  V30 69 1 10 64
M  V30 70 1 13 65
M  V30 71 1 17 66
M  V30 72 1 17 67
M  V30 73 1 18 68
M  V30 74 1 18 69
M  V30 75 1 19 70
M  V30 76 1 20 71
M  V30 77 1 20 72
M  V30 78 1 20 73
M  V30 79 1 21 74
M  V30 80 1 21 75
M  V30 81 1 21 76
M  V30 82 1 26 77
M  V30 83 1 27 78
M  V30 84 1 27 79
M  V30 85 1 28 80
M  V30 86 1 29 81
M  V30 87 1 29 82
M  V30 88 1 30 83
M  V30 89 1 32 84
M  V30 90 1 32 85
M  V30 91 1 32 86
M  V30 92 1 33 87
M  V30 93 1 33 88
M  V30 94 1 33 89
M  V30 95 1 36 90
M  V30 96 1 36 91
M  V30 97 1 37 92
M  V30 98 1 37 93
M  V30 99 1 38 94
M  V30 100 1 39 95
M  V30 101 1 39 96
M  V30 102 1 39 97
M  V30 103 1 42 98
M  V30 104 1 43 99
M  V30 105 1 44 100
M  V30 END BOND
M  V30 END CTAB
M  END
>  <Dataset>  (761) 
ChEMBL_Kinases

>  <Ligand_Instance>  (761) 
nan

>  <PDB_ID>  (761) 
nan

>  <Standardized_SMILES>  (761) 
CC(C)CCCC1(C)C=Cc2c(O)c3c(c(CCC(C)C)c2O1)OC12C(CC4CC1C(C)(C)OC2(CCC(C)C(=O)O)C4O)C3=O

>  <Name>  (761) 
DECAHYDROGAMBOGIC ACID

>  <Pocket>  (761) 
nan

>  <ATP_Site>  (761) 
nan

>  <Peripheral>  (761) 
nan

>  <Num_H_Atoms_ProtBoundConf>  (761) 
nan

>  <Num_Resolved_Atoms>  (761) 
nan

>  <Num_Not_Resolved_Atoms>  (761) 
nan

$$$$
CHEMBL1314875
     RDKit          3D

  0  0  0  0  0  0  0  0  0  0999 V3000
M  V30 BEGIN CTAB
M  V30 COUNTS 44 47 0 0 0
M  V30 BEGIN ATOM
M  V30 1 C -0.832844 -4.437616 0.630127 0
M  V30 2 C -0.975843 -3.341843 -0.369470 0
M  V30 3 C -1.911498 -3.493808 -1.354866 0
M  V30 4 C -2.030621 -2.468368 -2.276900 0
M  V30 5 C -1.215475 -1.346948 -2.172445 0
M  V30 6 C -0.268878 -1.208263 -1.163880 0
M  V30 7 C 0.487287 0.034639 -1.225254 0
M  V30 8 C 0.747615 0.599754 -2.432639 0
M  V30 9 C 1.467844 1.787489 -2.495317 0
M  V30 10 C 1.880459 2.326269 -1.294993 0
M  V30 11 N 2.568186 3.465217 -1.403425 0
M  V30 12 C 3.052332 4.139694 -0.367333 0
M  V30 13 N 2.801523 3.593785 0.813005 0
M  V30 14 C 2.133417 2.468152 1.084740 0
M  V30 15 N 1.855663 1.873883 2.343136 0
M  V30 16 C 1.585189 1.293353 3.584836 0
M  V30 17 C 0.783570 0.008872 3.540329 0
M  V30 18 C 1.350647 -1.246792 3.452887 0
M  V30 19 C 0.485331 -2.344288 3.422089 0
M  V30 20 C -0.876663 -2.133017 3.479219 0
M  V30 21 C -1.453025 -0.883881 3.566613 0
M  V30 22 F -2.790223 -0.680265 3.622537 0
M  V30 23 C -0.599226 0.204012 3.597275 0
M  V30 24 C 1.661388 1.822646 -0.033354 0
M  V30 25 C 0.943715 0.652884 -0.090822 0
M  V30 26 C -0.166347 -2.235472 -0.259932 0
M  V30 27 H -0.624499 -5.393220 0.085305 0
M  V30 28 H 0.051904 -4.268089 1.300401 0
M  V30 29 H -1.735605 -4.499041 1.262797 0
M  V30 30 H -2.515300 -4.381070 -1.388881 0
M  V30 31 H -2.775201 -2.611567 -3.044164 0
M  V30 32 H -1.431471 -0.626342 -2.974613 0
M  V30 33 H 0.411686 0.153060 -3.349123 0
M  V30 34 H 1.671748 2.230241 -3.437244 0
M  V30 35 H 3.614903 5.063096 -0.381038 0
M  V30 36 H 2.358557 2.636094 2.908269 0
M  V30 37 H 1.088532 1.953227 4.365726 0
M  V30 38 H 2.532041 0.940428 4.097604 0
M  V30 39 H 2.430312 -1.296713 3.413887 0
M  V30 40 H 0.934557 -3.315624 3.353825 0
M  V30 41 H -1.556365 -2.986202 3.455617 0
M  V30 42 H -1.042132 1.185709 3.665983 0
M  V30 43 H 0.718858 0.176858 0.843604 0
M  V30 44 H 0.581837 -2.081753 0.503472 0
M  V30 END ATOM
M  V30 BEGIN BOND
M  V30 1 1 1 2
M  V30 2 2 2 3
M  V30 3 1 3 4
M  V30 4 2 4 5
M  V30 5 1 5 6
M  V30 6 1 6 7
M  V30 7 2 7 8
M  V30 8 1 8 9
M  V30 9 2 9 10
M  V30 10 1 10 11
M  V30 11 2 11 12
M  V30 12 1 12 13
M  V30 13 2 13 14
M  V30 14 1 14 15
M  V30 15 1 15 16
M  V30 16 1 16 17
M  V30 17 2 17 18
M  V30 18 1 18 19
M  V30 19 2 19 20
M  V30 20 1 20 21
M  V30 21 1 21 22
M  V30 22 2 21 23
M  V30 23 1 14 24
M  V30 24 2 24 25
M  V30 25 2 6 26
M  V30 26 1 26 2
M  V30 27 1 25 7
M  V30 28 1 24 10
M  V30 29 1 23 17
M  V30 30 1 1 27
M  V30 31 1 1 28
M  V30 32 1 1 29
M  V30 33 1 3 30
M  V30 34 1 4 31
M  V30 35 1 5 32
M  V30 36 1 8 33
M  V30 37 1 9 34
M  V30 38 1 12 35
M  V30 39 1 15 36
M  V30 40 1 16 37
M  V30 41 1 16 38
M  V30 42 1 18 39
M  V30 43 1 19 40
M  V30 44 1 20 41
M  V30 45 1 23 42
M  V30 46 1 25 43
M  V30 47 1 26 44
M  V30 END BOND
M  V30 END CTAB
M  END
>  <Dataset>  (762) 
ChEMBL_Kinases

>  <Ligand_Instance>  (762) 
nan

>  <PDB_ID>  (762) 
nan

>  <Standardized_SMILES>  (762) 
Cc1cccc(-c2ccc3ncnc(NCc4cccc(F)c4)c3c2)c1

>  <Name>  (762) 
nan

>  <Pocket>  (762) 
nan

>  <ATP_Site>  (762) 
nan

>  <Peripheral>  (762) 
nan

>  <Num_H_Atoms_ProtBoundConf>  (762) 
nan

>  <Num_Resolved_Atoms>  (762) 
nan

>  <Num_Not_Resolved_Atoms>  (762) 
nan

$$$$
CHEMBL1314982
     RDKit          3D

  0  0  0  0  0  0  0  0  0  0999 V3000
M  V30 BEGIN CTAB
M  V30 COUNTS 57 62 0 0 0
M  V30 BEGIN ATOM
M  V30 1 C 4.706221 1.570254 3.792104 0
M  V30 2 O 3.926984 1.850975 2.645939 0
M  V30 3 C 3.038518 0.879733 2.187584 0
M  V30 4 C 2.979981 -0.313173 2.899167 0
M  V30 5 C 2.111734 -1.291592 2.468560 0
M  V30 6 C 1.341054 -1.066343 1.367665 0
M  V30 7 C 1.376932 0.108333 0.643865 0
M  V30 8 C 2.250377 1.093544 1.074378 0
M  V30 9 O 2.407371 2.324004 0.459366 0
M  V30 10 C 3.325976 2.591656 -0.565983 0
M  V30 11 C 0.555434 0.511674 -0.518871 0
M  V30 12 C -0.437450 1.587884 -0.185334 0
M  V30 13 C -1.407477 1.233295 0.847970 0
M  V30 14 C -2.627252 0.641489 0.584004 0
M  V30 15 C -3.574506 0.290130 1.538545 0
M  V30 16 C -3.251404 0.562743 2.849694 0
M  V30 17 C -2.056754 1.152445 3.216278 0
M  V30 18 C -1.174003 1.467915 2.198557 0
M  V30 19 N -0.095101 -0.667715 -1.048093 0
M  V30 20 C -0.510123 -0.467098 -2.398893 0
M  V30 21 C -1.661288 -1.343801 -2.786751 0
M  V30 22 C -1.724891 -2.557129 -1.979519 0
M  V30 23 C -2.564068 -3.514155 -2.517738 0
M  V30 24 C -2.808913 -4.753641 -1.921093 0
M  V30 25 C -2.164069 -5.019649 -0.721483 0
M  V30 26 C -1.320574 -4.082999 -0.161354 0
M  V30 27 C -1.116376 -2.879971 -0.792673 0
M  V30 28 C -0.227847 -1.853032 -0.277362 0
M  V30 29 C 0.452915 -2.090127 0.829649 0
M  V30 30 O -2.556603 -6.307842 -0.312709 0
M  V30 31 C -3.150746 -6.967388 -1.440483 0
M  V30 32 O -3.573737 -5.866409 -2.222822 0
M  V30 33 H 5.230804 2.491920 4.119113 0
M  V30 34 H 4.071274 1.216616 4.647715 0
M  V30 35 H 5.448859 0.753519 3.619624 0
M  V30 36 H 3.560961 -0.557868 3.778376 0
M  V30 37 H 2.031141 -2.238312 2.991001 0
M  V30 38 H 2.867795 3.396142 -1.194254 0
M  V30 39 H 4.262381 3.036151 -0.135861 0
M  V30 40 H 3.567387 1.740715 -1.212995 0
M  V30 41 H 1.263696 0.932863 -1.260608 0
M  V30 42 H -0.984656 1.839451 -1.111756 0
M  V30 43 H 0.119397 2.538842 0.050612 0
M  V30 44 H -2.904156 0.417338 -0.438020 0
M  V30 45 H -4.506917 -0.168901 1.265501 0
M  V30 46 H -3.944527 0.314417 3.642082 0
M  V30 47 H -1.816767 1.360534 4.250186 0
M  V30 48 H -0.222746 1.936686 2.482060 0
M  V30 49 H -0.757895 0.590622 -2.656273 0
M  V30 50 H 0.386545 -0.765099 -3.031394 0
M  V30 51 H -2.589326 -0.748623 -2.516436 0
M  V30 52 H -1.678089 -1.561699 -3.880854 0
M  V30 53 H -3.118031 -3.410486 -3.450136 0
M  V30 54 H -0.848409 -4.337776 0.766080 0
M  V30 55 H 0.415945 -3.004332 1.398000 0
M  V30 56 H -3.937948 -7.669174 -1.169073 0
M  V30 57 H -2.325021 -7.441308 -2.013766 0
M  V30 END ATOM
M  V30 BEGIN BOND
M  V30 1 1 1 2
M  V30 2 1 2 3
M  V30 3 2 3 4
M  V30 4 1 4 5
M  V30 5 2 5 6
M  V30 6 1 6 7
M  V30 7 2 7 8
M  V30 8 1 8 9
M  V30 9 1 9 10
M  V30 10 1 7 11
M  V30 11 1 11 12
M  V30 12 1 12 13
M  V30 13 2 13 14
M  V30 14 1 14 15
M  V30 15 2 15 16
M  V30 16 1 16 17
M  V30 17 2 17 18
M  V30 18 1 11 19
M  V30 19 1 19 20
M  V30 20 1 20 21
M  V30 21 1 21 22
M  V30 22 2 22 23
M  V30 23 1 23 24
M  V30 24 2 24 25
M  V30 25 1 25 26
M  V30 26 2 26 27
M  V30 27 1 27 28
M  V30 28 2 28 29
M  V30 29 1 25 30
M  V30 30 1 30 31
M  V30 31 1 31 32
M  V30 32 1 8 3
M  V30 33 1 18 13
M  V30 34 1 28 19
M  V30 35 1 29 6
M  V30 36 1 27 22
M  V30 37 1 32 24
M  V30 38 1 1 33
M  V30 39 1 1 34
M  V30 40 1 1 35
M  V30 41 1 4 36
M  V30 42 1 5 37
M  V30 43 1 10 38
M  V30 44 1 10 39
M  V30 45 1 10 40
M  V30 46 1 11 41
M  V30 47 1 12 42
M  V30 48 1 12 43
M  V30 49 1 14 44
M  V30 50 1 15 45
M  V30 51 1 16 46
M  V30 52 1 17 47
M  V30 53 1 18 48
M  V30 54 1 20 49
M  V30 55 1 20 50
M  V30 56 1 21 51
M  V30 57 1 21 52
M  V30 58 1 23 53
M  V30 59 1 26 54
M  V30 60 1 29 55
M  V30 61 1 31 56
M  V30 62 1 31 57
M  V30 END BOND
M  V30 END CTAB
M  END
>  <Dataset>  (763) 
ChEMBL_Kinases

>  <Ligand_Instance>  (763) 
nan

>  <PDB_ID>  (763) 
nan

>  <Standardized_SMILES>  (763) 
COc1ccc2c(c1OC)C(Cc1ccccc1)N1CCc3cc4c(cc3C1=C2)OCO4

>  <Name>  (763) 
nan

>  <Pocket>  (763) 
nan

>  <ATP_Site>  (763) 
nan

>  <Peripheral>  (763) 
nan

>  <Num_H_Atoms_ProtBoundConf>  (763) 
nan

>  <Num_Resolved_Atoms>  (763) 
nan

>  <Num_Not_Resolved_Atoms>  (763) 
nan

$$$$
CHEMBL1315083
     RDKit          3D

  0  0  0  0  0  0  0  0  0  0999 V3000
M  V30 BEGIN CTAB
M  V30 COUNTS 44 46 0 0 0
M  V30 BEGIN ATOM
M  V30 1 C -0.586220 -3.950603 2.912710 0
M  V30 2 O -1.397660 -3.469889 1.888373 0
M  V30 3 C -0.863905 -2.833529 0.794802 0
M  V30 4 C -1.845691 -2.428751 -0.115764 0
M  V30 5 C -1.500117 -1.769558 -1.280496 0
M  V30 6 C -0.175605 -1.493430 -1.574834 0
M  V30 7 C 0.277955 -0.756305 -2.813582 0
M  V30 8 N 0.548520 0.636905 -2.459632 0
M  V30 9 C 1.408135 1.131736 -1.442583 0
M  V30 10 C 2.732360 1.547694 -1.389894 0
M  V30 11 C 3.225608 1.970231 -0.178636 0
M  V30 12 N 2.441851 1.976086 0.911967 0
M  V30 13 C 1.159164 1.579133 0.888348 0
M  V30 14 C 0.327715 1.601547 2.106470 0
M  V30 15 C 0.854287 2.047828 3.298716 0
M  V30 16 C 0.070116 2.074085 4.454506 0
M  V30 17 C -1.230489 1.631616 4.310454 0
M  V30 18 C -1.770106 1.183849 3.128027 0
M  V30 19 C -3.124733 0.728671 3.008041 0
M  V30 20 N -4.231966 0.335288 2.914256 0
M  V30 21 C -0.983327 1.160093 1.979006 0
M  V30 22 N 0.679214 1.166083 -0.297089 0
M  V30 23 C 0.815430 -1.896437 -0.667744 0
M  V30 24 O 2.116986 -1.603081 -1.001096 0
M  V30 25 C 3.240464 -1.925018 -0.226870 0
M  V30 26 C 0.435336 -2.539225 0.461449 0
M  V30 27 H -0.412053 -5.053536 2.838219 0
M  V30 28 H 0.392606 -3.435535 2.946545 0
M  V30 29 H -1.124532 -3.737502 3.880749 0
M  V30 30 H -2.913437 -2.594469 0.018475 0
M  V30 31 H -2.218140 -1.439021 -2.009341 0
M  V30 32 H 1.158822 -1.233804 -3.267404 0
M  V30 33 H -0.554851 -0.798737 -3.528266 0
M  V30 34 H 0.061009 1.404964 -3.008953 0
M  V30 35 H 3.159093 1.457852 -2.369047 0
M  V30 36 H 4.259311 2.272643 -0.236074 0
M  V30 37 H 1.885789 2.380504 3.335891 0
M  V30 38 H 0.473536 2.421542 5.390632 0
M  V30 39 H -1.906931 1.623281 5.179895 0
M  V30 40 H -1.378848 0.818539 1.056692 0
M  V30 41 H 3.010208 -2.216755 0.808096 0
M  V30 42 H 3.927918 -1.029808 -0.187703 0
M  V30 43 H 3.799408 -2.744079 -0.767533 0
M  V30 44 H 1.155657 -2.871916 1.187808 0
M  V30 END ATOM
M  V30 BEGIN BOND
M  V30 1 1 1 2
M  V30 2 1 2 3
M  V30 3 2 3 4
M  V30 4 1 4 5
M  V30 5 2 5 6
M  V30 6 1 6 7
M  V30 7 1 7 8
M  V30 8 1 8 9
M  V30 9 2 9 10
M  V30 10 1 10 11
M  V30 11 2 11 12
M  V30 12 1 12 13
M  V30 13 1 13 14
M  V30 14 2 14 15
M  V30 15 1 15 16
M  V30 16 2 16 17
M  V30 17 1 17 18
M  V30 18 1 18 19
M  V30 19 3 19 20
M  V30 20 2 18 21
M  V30 21 2 13 22
M  V30 22 1 6 23
M  V30 23 1 23 24
M  V30 24 1 24 25
M  V30 25 2 23 26
M  V30 26 1 26 3
M  V30 27 1 22 9
M  V30 28 1 21 14
M  V30 29 1 1 27
M  V30 30 1 1 28
M  V30 31 1 1 29
M  V30 32 1 4 30
M  V30 33 1 5 31
M  V30 34 1 7 32
M  V30 35 1 7 33
M  V30 36 1 8 34
M  V30 37 1 10 35
M  V30 38 1 11 36
M  V30 39 1 15 37
M  V30 40 1 16 38
M  V30 41 1 17 39
M  V30 42 1 21 40
M  V30 43 1 25 41
M  V30 44 1 25 42
M  V30 45 1 25 43
M  V30 46 1 26 44
M  V30 END BOND
M  V30 END CTAB
M  END
>  <Dataset>  (764) 
ChEMBL_Kinases

>  <Ligand_Instance>  (764) 
nan

>  <PDB_ID>  (764) 
nan

>  <Standardized_SMILES>  (764) 
COc1ccc(CNc2ccnc(-c3cccc(C#N)c3)n2)c(OC)c1

>  <Name>  (764) 
nan

>  <Pocket>  (764) 
nan

>  <ATP_Site>  (764) 
nan

>  <Peripheral>  (764) 
nan

>  <Num_H_Atoms_ProtBoundConf>  (764) 
nan

>  <Num_Resolved_Atoms>  (764) 
nan

>  <Num_Not_Resolved_Atoms>  (764) 
nan

$$$$
CHEMBL1315091
     RDKit          3D

  0  0  0  0  0  0  0  0  0  0999 V3000
M  V30 BEGIN CTAB
M  V30 COUNTS 32 34 0 0 0
M  V30 BEGIN ATOM
M  V30 1 C 1.659639 -2.319346 4.020587 0
M  V30 2 O 1.264088 -2.243603 2.665489 0
M  V30 3 C -0.028172 -2.736930 2.635007 0
M  V30 4 C -0.617006 -2.729805 1.244730 0
M  V30 5 N -0.681058 -1.419745 0.671538 0
M  V30 6 C 0.322628 -0.904595 -0.055221 0
M  V30 7 O 1.319112 -1.647277 -0.198167 0
M  V30 8 C 0.332852 0.339470 -0.634157 0
M  V30 9 C 1.431418 0.906382 -1.431089 0
M  V30 10 C 2.599435 0.355017 -1.746099 0
M  V30 11 C 3.505145 1.035606 -2.501511 0
M  V30 12 C 3.055541 2.395838 -2.909785 0
M  V30 13 S 1.341530 2.477312 -2.111889 0
M  V30 14 N -0.783377 1.055254 -0.420448 0
M  V30 15 C -1.820963 0.596541 0.296794 0
M  V30 16 C -2.938471 1.387823 0.476280 0
M  V30 17 N -3.949237 0.884848 1.200861 0
M  V30 18 C -3.931708 -0.347255 1.760754 0
M  V30 19 N -2.822545 -1.115985 1.574929 0
M  V30 20 C -1.776892 -0.663160 0.856484 0
M  V30 21 H 2.671497 -1.959264 4.200093 0
M  V30 22 H 0.963114 -1.737040 4.666285 0
M  V30 23 H 1.548346 -3.385513 4.374275 0
M  V30 24 H -0.098862 -3.790729 3.006763 0
M  V30 25 H -0.638038 -2.149806 3.354022 0
M  V30 26 H -1.627059 -3.181855 1.293247 0
M  V30 27 H 0.020881 -3.382180 0.617720 0
M  V30 28 H 2.934492 -0.630945 -1.454628 0
M  V30 29 H 4.489252 0.775475 -2.861223 0
M  V30 30 H 3.742338 3.096670 -3.567830 0
M  V30 31 H -2.993842 2.371508 0.049435 0
M  V30 32 H -4.796191 -0.677009 2.334129 0
M  V30 END ATOM
M  V30 BEGIN BOND
M  V30 1 1 1 2
M  V30 2 1 2 3
M  V30 3 1 3 4
M  V30 4 1 4 5
M  V30 5 1 5 6
M  V30 6 2 6 7
M  V30 7 1 6 8
M  V30 8 1 8 9
M  V30 9 2 9 10
M  V30 10 1 10 11
M  V30 11 2 11 12
M  V30 12 1 12 13
M  V30 13 2 8 14
M  V30 14 1 14 15
M  V30 15 2 15 16
M  V30 16 1 16 17
M  V30 17 2 17 18
M  V30 18 1 18 19
M  V30 19 2 19 20
M  V30 20 1 20 5
M  V30 21 1 13 9
M  V30 22 1 20 15
M  V30 23 1 1 21
M  V30 24 1 1 22
M  V30 25 1 1 23
M  V30 26 1 3 24
M  V30 27 1 3 25
M  V30 28 1 4 26
M  V30 29 1 4 27
M  V30 30 1 10 28
M  V30 31 1 11 29
M  V30 32 1 12 30
M  V30 33 1 16 31
M  V30 34 1 18 32
M  V30 END BOND
M  V30 END CTAB
M  END
>  <Dataset>  (765) 
ChEMBL_Kinases

>  <Ligand_Instance>  (765) 
nan

>  <PDB_ID>  (765) 
nan

>  <Standardized_SMILES>  (765) 
COCCn1c(=O)c(-c2cccs2)nc2cncnc21

>  <Name>  (765) 
nan

>  <Pocket>  (765) 
nan

>  <ATP_Site>  (765) 
nan

>  <Peripheral>  (765) 
nan

>  <Num_H_Atoms_ProtBoundConf>  (765) 
nan

>  <Num_Resolved_Atoms>  (765) 
nan

>  <Num_Not_Resolved_Atoms>  (765) 
nan

$$$$
CHEMBL1314416
     RDKit          3D

  0  0  0  0  0  0  0  0  0  0999 V3000
M  V30 BEGIN CTAB
M  V30 COUNTS 38 41 0 0 0
M  V30 BEGIN ATOM
M  V30 1 O 0.315840 -0.888806 2.484095 0
M  V30 2 C 0.315308 -0.059552 1.538119 0
M  V30 3 C 1.542705 0.498449 1.216705 0
M  V30 4 C 2.763917 0.144535 1.933834 0
M  V30 5 C 3.866537 -0.102274 1.164658 0
M  V30 6 C 5.066068 -0.446055 1.794327 0
M  V30 7 C 5.114753 -0.529622 3.176037 0
M  V30 8 Cl 6.642677 -0.964823 3.925613 0
M  V30 9 C 3.997650 -0.279199 3.948094 0
M  V30 10 C 2.817721 0.059732 3.313702 0
M  V30 11 N 1.594781 1.392133 0.210747 0
M  V30 12 C 0.471022 1.744182 -0.479223 0
M  V30 13 C 0.536395 2.662080 -1.509364 0
M  V30 14 N -0.601655 2.999551 -2.186347 0
M  V30 15 C -1.775929 2.408556 -1.813654 0
M  V30 16 N -1.790357 1.518451 -0.802142 0
M  V30 17 C -0.714899 1.147508 -0.103051 0
M  V30 18 N -0.837554 0.248318 0.891061 0
M  V30 19 C -2.104217 -0.358429 1.257901 0
M  V30 20 C -2.370058 -1.607918 0.513136 0
M  V30 21 C -3.034144 -1.667740 -0.696085 0
M  V30 22 C -3.279654 -2.836569 -1.387133 0
M  V30 23 C -2.845916 -4.035328 -0.860734 0
M  V30 24 F -3.082278 -5.185652 -1.531353 0
M  V30 25 C -2.180735 -4.040938 0.336543 0
M  V30 26 C -1.961760 -2.859917 0.982376 0
M  V30 27 H 3.845176 -0.041870 0.095968 0
M  V30 28 H 5.936305 -0.640977 1.189649 0
M  V30 29 H 4.025247 -0.342622 5.044023 0
M  V30 30 H 1.897759 0.270634 3.858477 0
M  V30 31 H 1.466468 3.128754 -1.802941 0
M  V30 32 H -2.714210 2.630254 -2.307320 0
M  V30 33 H -2.024820 -0.619848 2.335016 0
M  V30 34 H -2.944824 0.361564 1.181901 0
M  V30 35 H -3.386855 -0.756716 -1.137645 0
M  V30 36 H -3.808305 -2.846194 -2.341661 0
M  V30 37 H -1.852193 -4.988242 0.726900 0
M  V30 38 H -1.431249 -2.936543 1.921948 0
M  V30 END ATOM
M  V30 BEGIN BOND
M  V30 1 2 1 2
M  V30 2 1 2 3
M  V30 3 1 3 4
M  V30 4 2 4 5
M  V30 5 1 5 6
M  V30 6 2 6 7
M  V30 7 1 7 8
M  V30 8 1 7 9
M  V30 9 2 9 10
M  V30 10 2 3 11
M  V30 11 1 11 12
M  V30 12 2 12 13
M  V30 13 1 13 14
M  V30 14 2 14 15
M  V30 15 1 15 16
M  V30 16 2 16 17
M  V30 17 1 17 18
M  V30 18 1 18 19
M  V30 19 1 19 20
M  V30 20 2 20 21
M  V30 21 1 21 22
M  V30 22 2 22 23
M  V30 23 1 23 24
M  V30 24 1 23 25
M  V30 25 2 25 26
M  V30 26 1 18 2
M  V30 27 1 26 20
M  V30 28 1 10 4
M  V30 29 1 17 12
M  V30 30 1 5 27
M  V30 31 1 6 28
M  V30 32 1 9 29
M  V30 33 1 10 30
M  V30 34 1 13 31
M  V30 35 1 15 32
M  V30 36 1 19 33
M  V30 37 1 19 34
M  V30 38 1 21 35
M  V30 39 1 22 36
M  V30 40 1 25 37
M  V30 41 1 26 38
M  V30 END BOND
M  V30 END CTAB
M  END
>  <Dataset>  (766) 
ChEMBL_Kinases

>  <Ligand_Instance>  (766) 
nan

>  <PDB_ID>  (766) 
nan

>  <Standardized_SMILES>  (766) 
O=c1c(-c2ccc(Cl)cc2)nc2cncnc2n1Cc1ccc(F)cc1

>  <Name>  (766) 
nan

>  <Pocket>  (766) 
nan

>  <ATP_Site>  (766) 
nan

>  <Peripheral>  (766) 
nan

>  <Num_H_Atoms_ProtBoundConf>  (766) 
nan

>  <Num_Resolved_Atoms>  (766) 
nan

>  <Num_Not_Resolved_Atoms>  (766) 
nan

$$$$
CHEMBL1307925
     RDKit          3D

  0  0  0  0  0  0  0  0  0  0999 V3000
M  V30 BEGIN CTAB
M  V30 COUNTS 42 45 0 0 0
M  V30 BEGIN ATOM
M  V30 1 O 4.456930 0.309694 2.031799 0
M  V30 2 N 4.356057 -0.906189 1.875972 0 CHG=1 VAL=4
M  V30 3 O 5.501670 -1.486725 2.367376 0 CHG=-1 VAL=1
M  V30 4 C 3.216144 -1.537265 1.279564 0
M  V30 5 C 3.466042 -2.698250 0.572146 0
M  V30 6 C 2.364528 -3.329611 -0.018048 0
M  V30 7 C 1.106713 -2.762542 0.138868 0
M  V30 8 C 0.898603 -1.605823 0.850464 0
M  V30 9 C 1.980967 -0.956572 1.449010 0
M  V30 10 N 1.750137 0.226271 2.173494 0
M  V30 11 C 1.824281 1.452338 1.422484 0
M  V30 12 C 2.112453 1.398097 0.060989 0
M  V30 13 C 2.187234 2.581710 -0.680386 0
M  V30 14 C 1.966827 3.764536 -0.008945 0
M  V30 15 C 1.677389 3.881543 1.338244 0
M  V30 16 C 1.616750 2.681759 2.017176 0
M  V30 17 Cl 1.254925 2.677284 3.750346 0
M  V30 18 N -0.344274 -1.290202 0.847732 0
M  V30 19 C -1.034392 -2.293545 0.085950 0
M  V30 20 C -1.833596 -1.725646 -1.052820 0
M  V30 21 C -3.109215 -1.147562 -0.479138 0
M  V30 22 C -3.015414 -0.847891 0.992783 0
M  V30 23 C -2.684490 -2.026426 1.847978 0
M  V30 24 C -1.971039 -3.058991 1.024820 0
M  V30 25 N -0.008639 -3.193139 -0.323965 0
M  V30 26 H 4.475659 -3.098403 0.481685 0
M  V30 27 H 2.541475 -4.245733 -0.579647 0
M  V30 28 H 1.532212 0.307768 3.191778 0
M  V30 29 H 2.284912 0.467309 -0.463167 0
M  V30 30 H 2.408582 2.530472 -1.722644 0
M  V30 31 H 2.034944 4.667814 -0.627879 0
M  V30 32 H 1.513049 4.833948 1.816035 0
M  V30 33 H -1.296744 -0.994703 -1.652686 0
M  V30 34 H -2.106954 -2.597586 -1.698106 0
M  V30 35 H -3.288893 -0.155856 -0.976189 0
M  V30 36 H -3.988976 -1.757095 -0.730062 0
M  V30 37 H -2.317360 0.017529 1.112744 0
M  V30 38 H -4.020650 -0.467766 1.289321 0
M  V30 39 H -2.011501 -1.662661 2.675008 0
M  V30 40 H -3.581177 -2.437464 2.371685 0
M  V30 41 H -1.336312 -3.745496 1.599717 0
M  V30 42 H -2.713963 -3.561477 0.380227 0
M  V30 END ATOM
M  V30 BEGIN BOND
M  V30 1 2 1 2
M  V30 2 1 2 3
M  V30 3 1 2 4
M  V30 4 1 4 5
M  V30 5 2 5 6
M  V30 6 1 6 7
M  V30 7 1 7 8
M  V30 8 1 8 9
M  V30 9 1 9 10
M  V30 10 1 10 11
M  V30 11 2 11 12
M  V30 12 1 12 13
M  V30 13 2 13 14
M  V30 14 1 14 15
M  V30 15 2 15 16
M  V30 16 1 16 17
M  V30 17 2 8 18
M  V30 18 1 18 19
M  V30 19 1 19 20
M  V30 20 1 20 21
M  V30 21 1 21 22
M  V30 22 1 22 23
M  V30 23 1 23 24
M  V30 24 1 19 25
M  V30 25 2 9 4
M  V30 26 1 16 11
M  V30 27 1 24 19
M  V30 28 2 25 7
M  V30 29 1 5 26
M  V30 30 1 6 27
M  V30 31 1 10 28
M  V30 32 1 12 29
M  V30 33 1 13 30
M  V30 34 1 14 31
M  V30 35 1 15 32
M  V30 36 1 20 33
M  V30 37 1 20 34
M  V30 38 1 21 35
M  V30 39 1 21 36
M  V30 40 1 22 37
M  V30 41 1 22 38
M  V30 42 1 23 39
M  V30 43 1 23 40
M  V30 44 1 24 41
M  V30 45 1 24 42
M  V30 END BOND
M  V30 END CTAB
M  END
>  <Dataset>  (767) 
ChEMBL_Kinases

>  <Ligand_Instance>  (767) 
nan

>  <PDB_ID>  (767) 
nan

>  <Standardized_SMILES>  (767) 
O=[N+]([O-])c1ccc2c(c1Nc1ccccc1Cl)=NC1(CCCCC1)N=2

>  <Name>  (767) 
nan

>  <Pocket>  (767) 
nan

>  <ATP_Site>  (767) 
nan

>  <Peripheral>  (767) 
nan

>  <Num_H_Atoms_ProtBoundConf>  (767) 
nan

>  <Num_Resolved_Atoms>  (767) 
nan

>  <Num_Not_Resolved_Atoms>  (767) 
nan

$$$$
CHEMBL1307891
     RDKit          3D

  0  0  0  0  0  0  0  0  0  0999 V3000
M  V30 BEGIN CTAB
M  V30 COUNTS 52 54 0 0 0
M  V30 BEGIN ATOM
M  V30 1 C -0.801764 -7.319853 -2.176253 0
M  V30 2 O -1.452429 -6.508760 -3.108216 0
M  V30 3 C -1.057055 -5.209966 -3.408186 0
M  V30 4 C 0.031785 -4.653329 -2.775049 0
M  V30 5 C 0.434829 -3.368598 -3.062040 0
M  V30 6 C -0.241563 -2.587212 -4.000267 0
M  V30 7 O -0.069024 -1.319406 -4.470045 0
M  V30 8 C 0.911872 -0.387075 -4.096475 0
M  V30 9 C 0.755710 -0.063920 -2.660965 0
M  V30 10 O 1.694021 0.780292 -2.421349 0
M  V30 11 N -0.078653 -0.409544 -1.590430 0
M  V30 12 C 0.170266 0.185549 -0.322098 0
M  V30 13 C -0.473485 1.373474 -0.028069 0
M  V30 14 C -0.283701 2.012371 1.181466 0
M  V30 15 C 0.553479 1.495850 2.146686 0
M  V30 16 N 0.806527 2.078169 3.419038 0
M  V30 17 C 1.707115 1.625725 4.454379 0
M  V30 18 C 1.019793 1.320036 5.755216 0
M  V30 19 C -0.426168 1.691286 5.810417 0
M  V30 20 C -1.309030 0.592630 5.220119 0
M  V30 21 C -0.686853 3.017277 5.150755 0
M  V30 22 C 0.194046 3.273597 3.957711 0
M  V30 23 C 1.194531 0.311493 1.852054 0
M  V30 24 C 1.009337 -0.332028 0.645262 0
M  V30 25 C -1.347270 -3.170409 -4.634579 0
M  V30 26 C -1.757209 -4.477242 -4.342579 0
M  V30 27 H -1.081228 -8.383999 -2.404899 0
M  V30 28 H 0.284675 -7.217895 -2.190804 0
M  V30 29 H -1.178389 -7.168144 -1.125427 0
M  V30 30 H 0.620364 -5.168825 -2.037683 0
M  V30 31 H 1.259787 -2.804426 -2.650637 0
M  V30 32 H 1.916966 -0.802919 -4.309012 0
M  V30 33 H 0.706060 0.534420 -4.679896 0
M  V30 34 H -0.795036 -1.085167 -1.932953 0
M  V30 35 H -1.147801 1.843971 -0.732490 0
M  V30 36 H -0.800705 2.935689 1.377778 0
M  V30 37 H 2.471382 2.444670 4.603495 0
M  V30 38 H 2.325944 0.749781 4.140381 0
M  V30 39 H 1.131385 0.230047 6.024733 0
M  V30 40 H 1.563680 1.850899 6.562910 0
M  V30 41 H -0.735584 1.785868 6.872767 0
M  V30 42 H -1.948216 0.108516 5.988451 0
M  V30 43 H -2.006484 1.078546 4.492463 0
M  V30 44 H -0.712332 -0.205776 4.746541 0
M  V30 45 H -0.547681 3.811669 5.902869 0
M  V30 46 H -1.753429 3.034569 4.846647 0
M  V30 47 H 0.961880 4.044878 4.199903 0
M  V30 48 H -0.430476 3.735458 3.170580 0
M  V30 49 H 1.878586 -0.243733 2.467478 0
M  V30 50 H 1.476142 -1.261345 0.343246 0
M  V30 51 H -1.992638 -2.727375 -5.383245 0
M  V30 52 H -2.601613 -4.966328 -4.806012 0
M  V30 END ATOM
M  V30 BEGIN BOND
M  V30 1 1 1 2
M  V30 2 1 2 3
M  V30 3 2 3 4
M  V30 4 1 4 5
M  V30 5 2 5 6
M  V30 6 1 6 7
M  V30 7 1 7 8
M  V30 8 1 8 9
M  V30 9 2 9 10
M  V30 10 1 9 11
M  V30 11 1 11 12
M  V30 12 2 12 13
M  V30 13 1 13 14
M  V30 14 2 14 15
M  V30 15 1 15 16
M  V30 16 1 16 17
M  V30 17 1 17 18
M  V30 18 1 18 19
M  V30 19 1 19 20
M  V30 20 1 19 21
M  V30 21 1 21 22
M  V30 22 1 15 23
M  V30 23 2 23 24
M  V30 24 1 6 25
M  V30 25 2 25 26
M  V30 26 1 26 3
M  V30 27 1 24 12
M  V30 28 1 22 16
M  V30 29 1 1 27
M  V30 30 1 1 28
M  V30 31 1 1 29
M  V30 32 1 4 30
M  V30 33 1 5 31
M  V30 34 1 8 32
M  V30 35 1 8 33
M  V30 36 1 11 34
M  V30 37 1 13 35
M  V30 38 1 14 36
M  V30 39 1 17 37
M  V30 40 1 17 38
M  V30 41 1 18 39
M  V30 42 1 18 40
M  V30 43 1 19 41
M  V30 44 1 20 42
M  V30 45 1 20 43
M  V30 46 1 20 44
M  V30 47 1 21 45
M  V30 48 1 21 46
M  V30 49 1 22 47
M  V30 50 1 22 48
M  V30 51 1 23 49
M  V30 52 1 24 50
M  V30 53 1 25 51
M  V30 54 1 26 52
M  V30 END BOND
M  V30 END CTAB
M  END
>  <Dataset>  (768) 
ChEMBL_Kinases

>  <Ligand_Instance>  (768) 
nan

>  <PDB_ID>  (768) 
nan

>  <Standardized_SMILES>  (768) 
COc1ccc(OCC(=O)Nc2ccc(N3CCC(C)CC3)cc2)cc1

>  <Name>  (768) 
nan

>  <Pocket>  (768) 
nan

>  <ATP_Site>  (768) 
nan

>  <Peripheral>  (768) 
nan

>  <Num_H_Atoms_ProtBoundConf>  (768) 
nan

>  <Num_Resolved_Atoms>  (768) 
nan

>  <Num_Not_Resolved_Atoms>  (768) 
nan

$$$$
CHEMBL1307753
     RDKit          3D

  0  0  0  0  0  0  0  0  0  0999 V3000
M  V30 BEGIN CTAB
M  V30 COUNTS 38 38 0 0 0
M  V30 BEGIN ATOM
M  V30 1 C -1.619475 -2.906832 3.474188 0
M  V30 2 C -0.216952 -3.233543 3.851809 0
M  V30 3 C 0.755945 -3.481579 2.751988 0
M  V30 4 O 1.008177 -2.447026 1.858758 0
M  V30 5 C 0.234218 -1.821776 0.970175 0
M  V30 6 O -0.962355 -2.065573 0.737662 0
M  V30 7 N 0.974872 -0.789841 0.283434 0
M  V30 8 C 0.591089 0.128338 -0.726528 0
M  V30 9 C 0.690341 -0.353992 -2.015617 0
M  V30 10 C 1.148895 -1.726735 -2.320529 0
M  V30 11 C 0.351590 0.466045 -3.071729 0
M  V30 12 C -0.083646 1.757980 -2.854682 0
M  V30 13 C -0.152542 2.156347 -1.543742 0
M  V30 14 C 0.168709 1.399794 -0.406469 0
M  V30 15 C 0.056324 1.957818 0.947460 0
M  V30 16 C 1.399042 2.513639 1.380526 0
M  V30 17 C -0.592673 1.112309 1.975262 0
M  V30 18 H -2.028167 -3.551650 2.681549 0
M  V30 19 H -2.300671 -3.123929 4.365412 0
M  V30 20 H -1.712381 -1.828133 3.298081 0
M  V30 21 H 0.221550 -2.464286 4.544277 0
M  V30 22 H -0.257950 -4.189182 4.448572 0
M  V30 23 H 0.422505 -4.422560 2.184700 0
M  V30 24 H 1.743216 -3.769602 3.210193 0
M  V30 25 H 1.965094 -0.519006 0.406627 0
M  V30 26 H 1.747312 -1.668508 -3.275444 0
M  V30 27 H 1.811766 -2.131952 -1.533527 0
M  V30 28 H 0.286455 -2.384846 -2.566067 0
M  V30 29 H 0.417827 0.119522 -4.094821 0
M  V30 30 H -0.363189 2.448637 -3.631414 0
M  V30 31 H -0.498233 3.185389 -1.352294 0
M  V30 32 H -0.592900 2.885061 0.846426 0
M  V30 33 H 1.611018 3.397428 0.709449 0
M  V30 34 H 1.295163 2.889584 2.410812 0
M  V30 35 H 2.236555 1.822864 1.217841 0
M  V30 36 H -1.399783 0.474090 1.613199 0
M  V30 37 H -1.091208 1.754855 2.769464 0
M  V30 38 H 0.209180 0.589718 2.537179 0
M  V30 END ATOM
M  V30 BEGIN BOND
M  V30 1 1 1 2
M  V30 2 1 2 3
M  V30 3 1 3 4
M  V30 4 1 4 5
M  V30 5 2 5 6
M  V30 6 1 5 7
M  V30 7 1 7 8
M  V30 8 2 8 9
M  V30 9 1 9 10
M  V30 10 1 9 11
M  V30 11 2 11 12
M  V30 12 1 12 13
M  V30 13 2 13 14
M  V30 14 1 14 15
M  V30 15 1 15 16
M  V30 16 1 15 17
M  V30 17 1 14 8
M  V30 18 1 1 18
M  V30 19 1 1 19
M  V30 20 1 1 20
M  V30 21 1 2 21
M  V30 22 1 2 22
M  V30 23 1 3 23
M  V30 24 1 3 24
M  V30 25 1 7 25
M  V30 26 1 10 26
M  V30 27 1 10 27
M  V30 28 1 10 28
M  V30 29 1 11 29
M  V30 30 1 12 30
M  V30 31 1 13 31
M  V30 32 1 15 32
M  V30 33 1 16 33
M  V30 34 1 16 34
M  V30 35 1 16 35
M  V30 36 1 17 36
M  V30 37 1 17 37
M  V30 38 1 17 38
M  V30 END BOND
M  V30 END CTAB
M  END
>  <Dataset>  (769) 
ChEMBL_Kinases

>  <Ligand_Instance>  (769) 
nan

>  <PDB_ID>  (769) 
nan

>  <Standardized_SMILES>  (769) 
CCCOC(=O)Nc1c(C)cccc1C(C)C

>  <Name>  (769) 
nan

>  <Pocket>  (769) 
nan

>  <ATP_Site>  (769) 
nan

>  <Peripheral>  (769) 
nan

>  <Num_H_Atoms_ProtBoundConf>  (769) 
nan

>  <Num_Resolved_Atoms>  (769) 
nan

>  <Num_Not_Resolved_Atoms>  (769) 
nan

$$$$
CHEMBL130774
     RDKit          3D

  0  0  0  0  0  0  0  0  0  0999 V3000
M  V30 BEGIN CTAB
M  V30 COUNTS 77 82 0 0 0
M  V30 BEGIN ATOM
M  V30 1 O -0.826262 0.826811 4.228939 0
M  V30 2 C 0.314022 0.640076 3.672491 0
M  V30 3 N 1.431115 0.224456 4.455492 0
M  V30 4 C 2.468448 0.139466 3.471212 0
M  V30 5 O 3.635049 -0.217936 3.856798 0
M  V30 6 C 1.949070 0.497636 2.165744 0
M  V30 7 C 0.673356 0.801689 2.243226 0
M  V30 8 C -0.293122 1.238059 1.276745 0
M  V30 9 C -1.019421 0.616523 0.294747 0
M  V30 10 N -1.807260 1.487532 -0.346803 0
M  V30 11 C -1.630222 2.744021 0.194871 0
M  V30 12 C -2.123531 4.045885 0.003801 0
M  V30 13 C -1.762271 5.150437 0.714526 0
M  V30 14 C -0.831354 4.997245 1.714034 0
M  V30 15 C -0.329279 3.734792 1.925591 0
M  V30 16 C -0.685018 2.581898 1.207337 0
M  V30 17 C -2.742892 1.382191 -1.403532 0
M  V30 18 C -3.144454 0.125067 -2.009504 0
M  V30 19 O -3.660247 -0.893849 -1.242619 0
M  V30 20 C -4.392752 -1.688107 -2.156122 0
M  V30 21 C -5.084744 -2.857015 -1.595863 0
M  V30 22 O -4.456427 -3.871938 -1.061980 0
M  V30 23 C -3.418291 -3.835106 -0.198293 0
M  V30 24 C -3.251219 -5.273674 0.274403 0
M  V30 25 O -2.310404 -5.655069 1.075767 0
M  V30 26 C -1.826100 -5.122273 2.191378 0
M  V30 27 C -0.977591 -3.911663 1.756878 0
M  V30 28 O 0.031634 -4.419982 0.905000 0
M  V30 29 C 0.784742 -3.394799 0.411222 0
M  V30 30 C 1.917056 -3.883207 -0.475288 0
M  V30 31 O 2.696378 -2.897377 -0.996476 0
M  V30 32 C 2.054788 -2.084963 -1.878009 0
M  V30 33 C 2.947953 -0.917834 -2.317502 0
M  V30 34 N 3.342779 -0.158732 -1.124491 0
M  V30 35 C 2.433230 -0.215567 -0.132465 0
M  V30 36 C 2.813499 0.477423 0.995739 0
M  V30 37 C 4.044703 0.987846 0.646653 0
M  V30 38 C 4.903413 1.768801 1.388643 0
M  V30 39 C 6.105671 2.147324 0.777725 0
M  V30 40 C 6.383590 1.729681 -0.529361 0
M  V30 41 C 5.512949 0.941999 -1.272008 0
M  V30 42 C 4.347178 0.591422 -0.641333 0
M  V30 43 H 1.456066 0.038855 5.475653 0
M  V30 44 H -1.071966 -0.409180 -0.045189 0
M  V30 45 H -2.858893 4.206937 -0.774752 0
M  V30 46 H -2.195353 6.111392 0.496323 0
M  V30 47 H -0.517498 5.846085 2.301019 0
M  V30 48 H 0.390380 3.675759 2.715454 0
M  V30 49 H -2.397757 2.054517 -2.282820 0
M  V30 50 H -3.725376 1.933881 -1.149440 0
M  V30 51 H -2.368582 -0.340207 -2.680347 0
M  V30 52 H -3.976445 0.373397 -2.753855 0
M  V30 53 H -3.653436 -2.028588 -2.938518 0
M  V30 54 H -5.111133 -1.059682 -2.728707 0
M  V30 55 H -5.781905 -3.309567 -2.416769 0
M  V30 56 H -5.853875 -2.420545 -0.845984 0
M  V30 57 H -2.542018 -3.438236 -0.722678 0
M  V30 58 H -3.685089 -3.143728 0.629323 0
M  V30 59 H -3.139754 -5.846788 -0.719896 0
M  V30 60 H -4.309734 -5.575023 0.571399 0
M  V30 61 H -2.563812 -4.814778 2.958473 0
M  V30 62 H -1.118979 -5.810522 2.694416 0
M  V30 63 H -0.405307 -3.525297 2.649361 0
M  V30 64 H -1.483713 -3.102677 1.315523 0
M  V30 65 H 0.130934 -2.732170 -0.162003 0
M  V30 66 H 1.156286 -2.798112 1.269495 0
M  V30 67 H 1.451478 -4.514843 -1.263375 0
M  V30 68 H 2.561619 -4.589661 0.120529 0
M  V30 69 H 1.957457 -2.699430 -2.837187 0
M  V30 70 H 1.036577 -1.776023 -1.659128 0
M  V30 71 H 2.354079 -0.322796 -3.031042 0
M  V30 72 H 3.862130 -1.252673 -2.823891 0
M  V30 73 H 1.475414 -0.710050 -0.106586 0
M  V30 74 H 4.692784 2.088906 2.387428 0
M  V30 75 H 6.841879 2.758272 1.278694 0
M  V30 76 H 7.325188 2.027123 -1.005731 0
M  V30 77 H 5.712334 0.613274 -2.276831 0
M  V30 END ATOM
M  V30 BEGIN BOND
M  V30 1 2 1 2
M  V30 2 1 2 3
M  V30 3 1 3 4
M  V30 4 2 4 5
M  V30 5 1 4 6
M  V30 6 2 6 7
M  V30 7 1 7 8
M  V30 8 2 8 9
M  V30 9 1 9 10
M  V30 10 1 10 11
M  V30 11 2 11 12
M  V30 12 1 12 13
M  V30 13 2 13 14
M  V30 14 1 14 15
M  V30 15 2 15 16
M  V30 16 1 10 17
M  V30 17 1 17 18
M  V30 18 1 18 19
M  V30 19 1 19 20
M  V30 20 1 20 21
M  V30 21 1 21 22
M  V30 22 1 22 23
M  V30 23 1 23 24
M  V30 24 1 24 25
M  V30 25 1 25 26
M  V30 26 1 26 27
M  V30 27 1 27 28
M  V30 28 1 28 29
M  V30 29 1 29 30
M  V30 30 1 30 31
M  V30 31 1 31 32
M  V30 32 1 32 33
M  V30 33 1 33 34
M  V30 34 1 34 35
M  V30 35 2 35 36
M  V30 36 1 36 37
M  V30 37 2 37 38
M  V30 38 1 38 39
M  V30 39 2 39 40
M  V30 40 1 40 41
M  V30 41 2 41 42
M  V30 42 1 7 2
M  V30 43 1 16 8
M  V30 44 1 42 34
M  V30 45 1 36 6
M  V30 46 1 42 37
M  V30 47 1 16 11
M  V30 48 1 3 43
M  V30 49 1 9 44
M  V30 50 1 12 45
M  V30 51 1 13 46
M  V30 52 1 14 47
M  V30 53 1 15 48
M  V30 54 1 17 49
M  V30 55 1 17 50
M  V30 56 1 18 51
M  V30 57 1 18 52
M  V30 58 1 20 53
M  V30 59 1 20 54
M  V30 60 1 21 55
M  V30 61 1 21 56
M  V30 62 1 23 57
M  V30 63 1 23 58
M  V30 64 1 24 59
M  V30 65 1 24 60
M  V30 66 1 26 61
M  V30 67 1 26 62
M  V30 68 1 27 63
M  V30 69 1 27 64
M  V30 70 1 29 65
M  V30 71 1 29 66
M  V30 72 1 30 67
M  V30 73 1 30 68
M  V30 74 1 32 69
M  V30 75 1 32 70
M  V30 76 1 33 71
M  V30 77 1 33 72
M  V30 78 1 35 73
M  V30 79 1 38 74
M  V30 80 1 39 75
M  V30 81 1 40 76
M  V30 82 1 41 77
M  V30 END BOND
M  V30 END CTAB
M  END
>  <Dataset>  (770) 
ChEMBL_Kinases

>  <Ligand_Instance>  (770) 
nan

>  <PDB_ID>  (770) 
nan

>  <Standardized_SMILES>  (770) 
O=C1NC(=O)C2=C1c1cn(c3ccccc13)CCOCCOCCOCCOCCOCCn1cc2c2ccccc21

>  <Name>  (770) 
nan

>  <Pocket>  (770) 
nan

>  <ATP_Site>  (770) 
nan

>  <Peripheral>  (770) 
nan

>  <Num_H_Atoms_ProtBoundConf>  (770) 
nan

>  <Num_Resolved_Atoms>  (770) 
nan

>  <Num_Not_Resolved_Atoms>  (770) 
nan

$$$$
CHEMBL1307730
     RDKit          3D

  0  0  0  0  0  0  0  0  0  0999 V3000
M  V30 BEGIN CTAB
M  V30 COUNTS 45 47 0 0 0
M  V30 BEGIN ATOM
M  V30 1 N 7.023142 -3.407937 -0.522533 0
M  V30 2 C 5.909873 -2.554341 -0.664543 0
M  V30 3 O 4.854906 -3.012783 -0.229477 0
M  V30 4 C 5.912973 -1.231524 -1.259796 0
M  V30 5 C 7.079242 -0.725540 -1.740467 0
M  V30 6 C 7.017297 0.599157 -2.322460 0
M  V30 7 S 5.187731 1.040693 -2.123672 0
M  V30 8 C 4.780327 -0.446173 -1.366872 0
M  V30 9 N 3.445180 -0.745001 -0.942654 0
M  V30 10 C 2.429669 0.214126 -1.153287 0
M  V30 11 O 2.664708 1.341382 -1.711025 0
M  V30 12 C 1.033325 0.034642 -0.769429 0
M  V30 13 C 0.121605 1.038347 -1.022645 0
M  V30 14 C -1.230952 0.918198 -0.674996 0
M  V30 15 C -1.694328 -0.227110 -0.059592 0
M  V30 16 S -3.372351 -0.427743 0.394857 0
M  V30 17 O -3.773077 -1.875780 0.402489 0
M  V30 18 O -4.313070 0.280755 -0.529440 0
M  V30 19 N -3.566554 0.169874 1.999854 0
M  V30 20 C -2.762702 -0.572790 2.911836 0
M  V30 21 C -3.128277 -0.556068 4.334564 0
M  V30 22 C -4.370488 0.142029 4.740888 0
M  V30 23 C -5.040876 0.939192 3.657530 0
M  V30 24 C -4.972025 0.103869 2.382747 0
M  V30 25 C -0.804591 -1.247890 0.206075 0
M  V30 26 C 0.516305 -1.084811 -0.153998 0
M  V30 27 H 7.442862 -4.217862 -0.990637 0
M  V30 28 H 7.600829 -3.135424 0.315766 0
M  V30 29 H 8.057795 -1.181918 -1.747805 0
M  V30 30 H 7.916882 1.144028 -2.762707 0
M  V30 31 H 3.078223 -1.579773 -0.487739 0
M  V30 32 H 0.374089 1.975909 -1.498885 0
M  V30 33 H -1.950632 1.701223 -0.870720 0
M  V30 34 H -1.710177 -0.186231 2.764804 0
M  V30 35 H -2.686382 -1.616221 2.485841 0
M  V30 36 H -2.273021 -0.162929 4.949547 0
M  V30 37 H -3.202540 -1.625934 4.685700 0
M  V30 38 H -4.190883 0.841965 5.585077 0
M  V30 39 H -5.147696 -0.568767 5.124165 0
M  V30 40 H -6.086122 1.127825 3.937290 0
M  V30 41 H -4.516135 1.900823 3.427976 0
M  V30 42 H -5.628060 0.518461 1.603621 0
M  V30 43 H -5.225325 -0.945554 2.650889 0
M  V30 44 H -1.139788 -2.166371 0.691693 0
M  V30 45 H 1.167924 -1.903026 0.072316 0
M  V30 END ATOM
M  V30 BEGIN BOND
M  V30 1 1 1 2
M  V30 2 2 2 3
M  V30 3 1 2 4
M  V30 4 1 4 5
M  V30 5 2 5 6
M  V30 6 1 6 7
M  V30 7 1 7 8
M  V30 8 1 8 9
M  V30 9 1 9 10
M  V30 10 2 10 11
M  V30 11 1 10 12
M  V30 12 2 12 13
M  V30 13 1 13 14
M  V30 14 2 14 15
M  V30 15 1 15 16
M  V30 16 2 16 17
M  V30 17 2 16 18
M  V30 18 1 16 19
M  V30 19 1 19 20
M  V30 20 1 20 21
M  V30 21 1 21 22
M  V30 22 1 22 23
M  V30 23 1 23 24
M  V30 24 1 15 25
M  V30 25 2 25 26
M  V30 26 2 8 4
M  V30 27 1 26 12
M  V30 28 1 24 19
M  V30 29 1 1 27
M  V30 30 1 1 28
M  V30 31 1 5 29
M  V30 32 1 6 30
M  V30 33 1 9 31
M  V30 34 1 13 32
M  V30 35 1 14 33
M  V30 36 1 20 34
M  V30 37 1 20 35
M  V30 38 1 21 36
M  V30 39 1 21 37
M  V30 40 1 22 38
M  V30 41 1 22 39
M  V30 42 1 23 40
M  V30 43 1 23 41
M  V30 44 1 24 42
M  V30 45 1 24 43
M  V30 46 1 25 44
M  V30 47 1 26 45
M  V30 END BOND
M  V30 END CTAB
M  END
>  <Dataset>  (771) 
ChEMBL_Kinases

>  <Ligand_Instance>  (771) 
nan

>  <PDB_ID>  (771) 
nan

>  <Standardized_SMILES>  (771) 
NC(=O)c1ccsc1NC(=O)c1ccc(S(=O)(=O)N2CCCCC2)cc1

>  <Name>  (771) 
nan

>  <Pocket>  (771) 
nan

>  <ATP_Site>  (771) 
nan

>  <Peripheral>  (771) 
nan

>  <Num_H_Atoms_ProtBoundConf>  (771) 
nan

>  <Num_Resolved_Atoms>  (771) 
nan

>  <Num_Not_Resolved_Atoms>  (771) 
nan

$$$$
CHEMBL1307534
     RDKit          3D

  0  0  0  0  0  0  0  0  0  0999 V3000
M  V30 BEGIN CTAB
M  V30 COUNTS 70 74 0 0 0
M  V30 BEGIN ATOM
M  V30 1 C 7.155357 4.167642 2.793969 0
M  V30 2 C 5.913548 4.930509 2.473925 0
M  V30 3 N 4.705494 4.154860 2.447864 0
M  V30 4 C 3.940686 3.977344 3.536283 0
M  V30 5 C 3.943765 4.355602 4.867895 0
M  V30 6 C 2.968724 3.991738 5.775544 0
M  V30 7 C 1.901537 3.198001 5.369997 0
M  V30 8 C 1.892964 2.819399 4.049167 0
M  V30 9 C 2.881671 3.190647 3.136436 0
M  V30 10 C 2.968618 2.870177 1.813734 0
M  V30 11 C 2.245398 2.140094 0.867904 0
M  V30 12 C 2.676146 2.038342 -0.450872 0
M  V30 13 N 1.798103 1.257822 -1.227497 0
M  V30 14 C 0.658952 1.641689 -2.000742 0
M  V30 15 O 0.379600 2.889487 -1.999175 0
M  V30 16 C 0.090536 0.419005 -2.621810 0
M  V30 17 N -1.069967 0.720203 -3.434922 0
M  V30 18 C -2.131720 1.147963 -2.546138 0
M  V30 19 C -1.478265 -0.494050 -4.131941 0
M  V30 20 C -2.020770 -1.505683 -3.176100 0
M  V30 21 O -2.227063 -1.578731 -1.916608 0
M  V30 22 N -2.440712 -2.741328 -3.725098 0
M  V30 23 C -2.950111 -3.656225 -2.732228 0
M  V30 24 C -4.304145 -3.666213 -2.432259 0
M  V30 25 C -4.845770 -4.515091 -1.490669 0
M  V30 26 C -4.048204 -5.397158 -0.804426 0
M  V30 27 N -4.601541 -6.264487 0.156925 0
M  V30 28 C -5.997713 -6.376201 0.462486 0
M  V30 29 C -6.111302 -6.400946 1.992113 0
M  V30 30 O -5.014170 -5.718365 2.516075 0
M  V30 31 C -3.932340 -6.618895 2.428621 0
M  V30 32 C -3.869849 -7.186592 1.006379 0
M  V30 33 C -2.704568 -5.386434 -1.102921 0
M  V30 34 C -2.146104 -4.543510 -2.041894 0
M  V30 35 C 3.857524 2.680181 -0.837485 0
M  V30 36 C 4.570788 3.402205 0.102832 0
M  V30 37 C 4.131846 3.493599 1.403592 0
M  V30 38 H 7.028976 3.238630 3.347250 0
M  V30 39 H 7.719078 3.885918 1.856616 0
M  V30 40 H 7.854902 4.898493 3.291006 0
M  V30 41 H 5.802234 5.821933 3.153706 0
M  V30 42 H 6.042413 5.388045 1.455913 0
M  V30 43 H 4.781834 4.977390 5.180063 0
M  V30 44 H 3.064074 4.344475 6.802701 0
M  V30 45 H 1.165156 2.935218 6.096164 0
M  V30 46 H 1.056629 2.197491 3.734371 0
M  V30 47 H 1.356383 1.694189 1.288512 0
M  V30 48 H 2.230620 0.298166 -1.070703 0
M  V30 49 H 0.865884 -0.132356 -3.182822 0
M  V30 50 H -0.241843 -0.233718 -1.795215 0
M  V30 51 H -1.933781 0.705506 -1.551647 0
M  V30 52 H -3.131384 0.798169 -2.885074 0
M  V30 53 H -2.120465 2.272406 -2.446139 0
M  V30 54 H -0.598133 -0.899936 -4.640152 0
M  V30 55 H -2.231403 -0.200679 -4.877593 0
M  V30 56 H -2.412570 -3.033382 -4.747170 0
M  V30 57 H -4.908506 -2.959527 -2.989823 0
M  V30 58 H -5.892187 -4.416532 -1.363810 0
M  V30 59 H -6.648767 -5.589064 0.103644 0
M  V30 60 H -6.414760 -7.366508 0.132573 0
M  V30 61 H -7.064233 -5.948201 2.324990 0
M  V30 62 H -6.041360 -7.453884 2.350384 0
M  V30 63 H -4.171937 -7.451435 3.121281 0
M  V30 64 H -2.982467 -6.161754 2.733535 0
M  V30 65 H -4.337787 -8.203267 0.997395 0
M  V30 66 H -2.815152 -7.290593 0.742478 0
M  V30 67 H -1.999139 -6.039511 -0.619126 0
M  V30 68 H -1.078535 -4.533669 -2.280473 0
M  V30 69 H 4.095298 2.531812 -1.888113 0
M  V30 70 H 5.455759 3.855252 -0.285172 0
M  V30 END ATOM
M  V30 BEGIN BOND
M  V30 1 1 1 2
M  V30 2 1 2 3
M  V30 3 1 3 4
M  V30 4 2 4 5
M  V30 5 1 5 6
M  V30 6 2 6 7
M  V30 7 1 7 8
M  V30 8 2 8 9
M  V30 9 1 9 10
M  V30 10 2 10 11
M  V30 11 1 11 12
M  V30 12 1 12 13
M  V30 13 1 13 14
M  V30 14 2 14 15
M  V30 15 1 14 16
M  V30 16 1 16 17
M  V30 17 1 17 18
M  V30 18 1 17 19
M  V30 19 1 19 20
M  V30 20 2 20 21
M  V30 21 1 20 22
M  V30 22 1 22 23
M  V30 23 2 23 24
M  V30 24 1 24 25
M  V30 25 2 25 26
M  V30 26 1 26 27
M  V30 27 1 27 28
M  V30 28 1 28 29
M  V30 29 1 29 30
M  V30 30 1 30 31
M  V30 31 1 31 32
M  V30 32 1 26 33
M  V30 33 2 33 34
M  V30 34 2 12 35
M  V30 35 1 35 36
M  V30 36 2 36 37
M  V30 37 1 37 3
M  V30 38 1 9 4
M  V30 39 1 37 10
M  V30 40 1 34 23
M  V30 41 1 32 27
M  V30 42 1 1 38
M  V30 43 1 1 39
M  V30 44 1 1 40
M  V30 45 1 2 41
M  V30 46 1 2 42
M  V30 47 1 5 43
M  V30 48 1 6 44
M  V30 49 1 7 45
M  V30 50 1 8 46
M  V30 51 1 11 47
M  V30 52 1 13 48
M  V30 53 1 16 49
M  V30 54 1 16 50
M  V30 55 1 18 51
M  V30 56 1 18 52
M  V30 57 1 18 53
M  V30 58 1 19 54
M  V30 59 1 19 55
M  V30 60 1 22 56
M  V30 61 1 24 57
M  V30 62 1 25 58
M  V30 63 1 28 59
M  V30 64 1 28 60
M  V30 65 1 29 61
M  V30 66 1 29 62
M  V30 67 1 31 63
M  V30 68 1 31 64
M  V30 69 1 32 65
M  V30 70 1 32 66
M  V30 71 1 33 67
M  V30 72 1 34 68
M  V30 73 1 35 69
M  V30 74 1 36 70
M  V30 END BOND
M  V30 END CTAB
M  END
>  <Dataset>  (772) 
ChEMBL_Kinases

>  <Ligand_Instance>  (772) 
nan

>  <PDB_ID>  (772) 
nan

>  <Standardized_SMILES>  (772) 
CCn1c2ccccc2c2cc(NC(=O)CN(C)CC(=O)Nc3ccc(N4CCOCC4)cc3)ccc21

>  <Name>  (772) 
nan

>  <Pocket>  (772) 
nan

>  <ATP_Site>  (772) 
nan

>  <Peripheral>  (772) 
nan

>  <Num_H_Atoms_ProtBoundConf>  (772) 
nan

>  <Num_Resolved_Atoms>  (772) 
nan

>  <Num_Not_Resolved_Atoms>  (772) 
nan

$$$$
CHEMBL1307319
     RDKit          3D

  0  0  0  0  0  0  0  0  0  0999 V3000
M  V30 BEGIN CTAB
M  V30 COUNTS 54 57 0 0 0
M  V30 BEGIN ATOM
M  V30 1 C -0.394276 -3.486549 3.671801 0
M  V30 2 C -0.874847 -2.075874 3.931761 0
M  V30 3 N -0.427708 -1.159297 2.898526 0
M  V30 4 C 0.827725 -0.523218 3.118975 0
M  V30 5 O 1.537454 -0.711542 4.124704 0
M  V30 6 C 1.471067 0.431081 2.220890 0
M  V30 7 C 1.816854 0.229736 0.899427 0
M  V30 8 C 2.425004 1.231391 0.170780 0
M  V30 9 C 2.707023 2.465590 0.738842 0
M  V30 10 C 3.358837 3.560600 -0.016546 0
M  V30 11 C 4.860089 3.435498 0.142912 0
M  V30 12 C 2.934699 4.885964 0.526309 0
M  V30 13 C 3.021354 3.527935 -1.482880 0
M  V30 14 C 2.382749 2.722147 2.057768 0
M  V30 15 C 1.774935 1.689951 2.749178 0
M  V30 16 C -1.332392 -1.009624 1.756385 0
M  V30 17 N -2.199082 -0.412903 1.358226 0
M  V30 18 N -2.774556 -0.591490 0.214218 0
M  V30 19 C -2.510419 -1.373952 -0.583623 0
M  V30 20 C -2.865340 -1.919012 -1.955699 0
M  V30 21 N -3.877043 -2.975841 -1.798984 0
M  V30 22 N -5.197608 -2.739287 -1.815351 0
M  V30 23 N -5.873283 -3.868173 -1.652644 0
M  V30 24 C -4.980200 -4.892304 -1.523297 0
M  V30 25 C -5.080638 -6.270499 -1.333299 0
M  V30 26 C -3.920080 -7.045628 -1.241110 0
M  V30 27 C -2.667050 -6.434431 -1.339945 0
M  V30 28 C -2.594102 -5.062290 -1.528799 0
M  V30 29 C -3.724648 -4.307674 -1.618552 0
M  V30 30 S -1.060864 -2.232180 0.296009 0
M  V30 31 H 0.481047 -3.506651 2.990184 0
M  V30 32 H -1.219154 -4.073133 3.219346 0
M  V30 33 H -0.149843 -3.985532 4.631111 0
M  V30 34 H -0.470736 -1.739996 4.922710 0
M  V30 35 H -1.981315 -2.037134 3.988581 0
M  V30 36 H 1.576315 -0.747567 0.503825 0
M  V30 37 H 2.688818 1.055646 -0.863094 0
M  V30 38 H 5.309954 4.371965 0.542655 0
M  V30 39 H 5.134176 2.602532 0.829871 0
M  V30 40 H 5.354289 3.242291 -0.828693 0
M  V30 41 H 1.853282 4.883280 0.765333 0
M  V30 42 H 3.552526 5.245840 1.372865 0
M  V30 43 H 3.041050 5.642698 -0.294430 0
M  V30 44 H 1.923403 3.454825 -1.625729 0
M  V30 45 H 3.583194 2.766022 -2.034069 0
M  V30 46 H 3.301436 4.514757 -1.908646 0
M  V30 47 H 2.577620 3.662517 2.553160 0
M  V30 48 H 1.520946 1.899489 3.791737 0
M  V30 49 H -1.954515 -2.324846 -2.436319 0
M  V30 50 H -3.311400 -1.072779 -2.474089 0
M  V30 51 H -6.089702 -6.647678 -1.269436 0
M  V30 52 H -4.152745 -8.079800 -1.096471 0
M  V30 53 H -1.829496 -7.113504 -1.257010 0
M  V30 54 H -1.611849 -4.624821 -1.600675 0
M  V30 END ATOM
M  V30 BEGIN BOND
M  V30 1 1 1 2
M  V30 2 1 2 3
M  V30 3 1 3 4
M  V30 4 2 4 5
M  V30 5 1 4 6
M  V30 6 2 6 7
M  V30 7 1 7 8
M  V30 8 2 8 9
M  V30 9 1 9 10
M  V30 10 1 10 11
M  V30 11 1 10 12
M  V30 12 1 10 13
M  V30 13 1 9 14
M  V30 14 2 14 15
M  V30 15 1 3 16
M  V30 16 2 16 17
M  V30 17 1 17 18
M  V30 18 2 18 19
M  V30 19 1 19 20
M  V30 20 1 20 21
M  V30 21 1 21 22
M  V30 22 2 22 23
M  V30 23 1 23 24
M  V30 24 2 24 25
M  V30 25 1 25 26
M  V30 26 2 26 27
M  V30 27 1 27 28
M  V30 28 2 28 29
M  V30 29 1 19 30
M  V30 30 1 15 6
M  V30 31 1 30 16
M  V30 32 1 29 21
M  V30 33 1 29 24
M  V30 34 1 1 31
M  V30 35 1 1 32
M  V30 36 1 1 33
M  V30 37 1 2 34
M  V30 38 1 2 35
M  V30 39 1 7 36
M  V30 40 1 8 37
M  V30 41 1 11 38
M  V30 42 1 11 39
M  V30 43 1 11 40
M  V30 44 1 12 41
M  V30 45 1 12 42
M  V30 46 1 12 43
M  V30 47 1 13 44
M  V30 48 1 13 45
M  V30 49 1 13 46
M  V30 50 1 14 47
M  V30 51 1 15 48
M  V30 52 1 20 49
M  V30 53 1 20 50
M  V30 54 1 25 51
M  V30 55 1 26 52
M  V30 56 1 27 53
M  V30 57 1 28 54
M  V30 END BOND
M  V30 END CTAB
M  END
>  <Dataset>  (773) 
ChEMBL_Kinases

>  <Ligand_Instance>  (773) 
nan

>  <PDB_ID>  (773) 
nan

>  <Standardized_SMILES>  (773) 
CCN(C(=O)c1ccc(C(C)(C)C)cc1)c1nnc(Cn2nnc3ccccc32)s1

>  <Name>  (773) 
nan

>  <Pocket>  (773) 
nan

>  <ATP_Site>  (773) 
nan

>  <Peripheral>  (773) 
nan

>  <Num_H_Atoms_ProtBoundConf>  (773) 
nan

>  <Num_Resolved_Atoms>  (773) 
nan

>  <Num_Not_Resolved_Atoms>  (773) 
nan

$$$$
CHEMBL1307208
     RDKit          3D

  0  0  0  0  0  0  0  0  0  0999 V3000
M  V30 BEGIN CTAB
M  V30 COUNTS 49 51 0 0 0
M  V30 BEGIN ATOM
M  V30 1 C 2.052636 -7.730848 1.007054 0
M  V30 2 O 1.487234 -6.498913 0.552761 0
M  V30 3 C 2.135896 -5.295693 0.674868 0
M  V30 4 O 3.268583 -5.423187 1.227159 0
M  V30 5 C 1.715862 -3.959799 0.274522 0
M  V30 6 C 2.601531 -2.936326 0.535086 0
M  V30 7 C 2.237026 -1.633839 0.171447 0
M  V30 8 C 1.004831 -1.384061 -0.440078 0
M  V30 9 N 0.746838 -0.026293 -0.758898 0
M  V30 10 C 0.942270 0.848365 -1.849046 0
M  V30 11 O 1.459921 0.598844 -2.968026 0
M  V30 12 C 0.552037 2.275204 -1.864647 0
M  V30 13 N 0.007824 2.706801 -0.653183 0
M  V30 14 C 0.833293 2.837959 0.476780 0
M  V30 15 C 0.125055 2.658898 1.779409 0
M  V30 16 N -1.211566 2.139260 1.593898 0
M  V30 17 C -1.715430 0.931703 2.140104 0
M  V30 18 C -0.904229 0.029419 2.788064 0
M  V30 19 C -1.357981 -1.151788 3.338341 0
M  V30 20 C -2.708700 -1.468065 3.243716 0
M  V30 21 C -3.514841 -0.567043 2.597738 0
M  V30 22 Cl -5.204507 -1.002758 2.501289 0
M  V30 23 C -3.050660 0.612307 2.050795 0
M  V30 24 C -1.935660 3.061652 0.751592 0
M  V30 25 C -1.316279 3.164906 -0.628541 0
M  V30 26 C 0.120873 -2.423216 -0.697625 0
M  V30 27 C 0.502353 -3.707576 -0.328720 0
M  V30 28 H 3.152399 -7.736905 0.854667 0
M  V30 29 H 1.585162 -8.566807 0.461250 0
M  V30 30 H 1.865286 -7.869882 2.099419 0
M  V30 31 H 3.564773 -3.064121 1.003341 0
M  V30 32 H 2.927083 -0.837853 0.375317 0
M  V30 33 H 0.282636 0.281634 0.119376 0
M  V30 34 H -0.210041 2.431556 -2.675076 0
M  V30 35 H 1.445153 2.929934 -2.112345 0
M  V30 36 H 1.364898 3.838258 0.522539 0
M  V30 37 H 1.674947 2.117758 0.429776 0
M  V30 38 H 0.019789 3.674661 2.254821 0
M  V30 39 H 0.725346 2.022148 2.456193 0
M  V30 40 H 0.154259 0.171634 2.917016 0
M  V30 41 H -0.709089 -1.855157 3.847675 0
M  V30 42 H -3.037384 -2.409751 3.688235 0
M  V30 43 H -3.799470 1.222291 1.576490 0
M  V30 44 H -1.884707 4.080566 1.237115 0
M  V30 45 H -3.006720 2.811785 0.692447 0
M  V30 46 H -1.943868 2.527830 -1.301194 0
M  V30 47 H -1.446451 4.212058 -1.022893 0
M  V30 48 H -0.822694 -2.196744 -1.171509 0
M  V30 49 H -0.182613 -4.548255 -0.522921 0
M  V30 END ATOM
M  V30 BEGIN BOND
M  V30 1 1 1 2
M  V30 2 1 2 3
M  V30 3 2 3 4
M  V30 4 1 3 5
M  V30 5 2 5 6
M  V30 6 1 6 7
M  V30 7 2 7 8
M  V30 8 1 8 9
M  V30 9 1 9 10
M  V30 10 2 10 11
M  V30 11 1 10 12
M  V30 12 1 12 13
M  V30 13 1 13 14
M  V30 14 1 14 15
M  V30 15 1 15 16
M  V30 16 1 16 17
M  V30 17 2 17 18
M  V30 18 1 18 19
M  V30 19 2 19 20
M  V30 20 1 20 21
M  V30 21 1 21 22
M  V30 22 2 21 23
M  V30 23 1 16 24
M  V30 24 1 24 25
M  V30 25 1 8 26
M  V30 26 2 26 27
M  V30 27 1 27 5
M  V30 28 1 25 13
M  V30 29 1 23 17
M  V30 30 1 1 28
M  V30 31 1 1 29
M  V30 32 1 1 30
M  V30 33 1 6 31
M  V30 34 1 7 32
M  V30 35 1 9 33
M  V30 36 1 12 34
M  V30 37 1 12 35
M  V30 38 1 14 36
M  V30 39 1 14 37
M  V30 40 1 15 38
M  V30 41 1 15 39
M  V30 42 1 18 40
M  V30 43 1 19 41
M  V30 44 1 20 42
M  V30 45 1 23 43
M  V30 46 1 24 44
M  V30 47 1 24 45
M  V30 48 1 25 46
M  V30 49 1 25 47
M  V30 50 1 26 48
M  V30 51 1 27 49
M  V30 END BOND
M  V30 END CTAB
M  END
>  <Dataset>  (774) 
ChEMBL_Kinases

>  <Ligand_Instance>  (774) 
nan

>  <PDB_ID>  (774) 
nan

>  <Standardized_SMILES>  (774) 
COC(=O)c1ccc(NC(=O)CN2CCN(c3cccc(Cl)c3)CC2)cc1

>  <Name>  (774) 
nan

>  <Pocket>  (774) 
nan

>  <ATP_Site>  (774) 
nan

>  <Peripheral>  (774) 
nan

>  <Num_H_Atoms_ProtBoundConf>  (774) 
nan

>  <Num_Resolved_Atoms>  (774) 
nan

>  <Num_Not_Resolved_Atoms>  (774) 
nan

$$$$
CHEMBL1307173
     RDKit          3D

  0  0  0  0  0  0  0  0  0  0999 V3000
M  V30 BEGIN CTAB
M  V30 COUNTS 46 48 0 0 0
M  V30 BEGIN ATOM
M  V30 1 C -0.806432 -3.148905 2.549951 0
M  V30 2 O 0.091068 -4.159662 2.218682 0
M  V30 3 C 0.128463 -4.453063 0.864603 0
M  V30 4 C 0.507636 -3.319202 0.006696 0
M  V30 5 N 1.776689 -2.972991 -0.313611 0
M  V30 6 N 1.724039 -1.915918 -1.101969 0
M  V30 7 C 0.435684 -1.576230 -1.294115 0
M  V30 8 S 0.014057 -0.175311 -2.317758 0
M  V30 9 C -0.077940 1.344964 -1.360464 0
M  V30 10 C 1.262094 1.716808 -0.827005 0
M  V30 11 O 2.239326 0.999797 -1.079607 0
M  V30 12 N 1.354590 2.892770 -0.043104 0
M  V30 13 C 2.569756 3.414015 0.561438 0
M  V30 14 C 2.859547 2.582301 1.756640 0
M  V30 15 C 2.244687 3.045142 2.921450 0
M  V30 16 C 2.378825 2.432340 4.141493 0
M  V30 17 C 3.159016 1.301053 4.229182 0
M  V30 18 C 3.775247 0.826613 3.091967 0
M  V30 19 C 3.637349 1.449292 1.859231 0
M  V30 20 N -0.318019 -2.449903 -0.604207 0
M  V30 21 C -1.729937 -2.391989 -0.586637 0
M  V30 22 C -2.444762 -1.395715 0.048143 0
M  V30 23 C -3.821363 -1.318481 0.078580 0
M  V30 24 C -4.564574 -2.278159 -0.553210 0
M  V30 25 C -3.904765 -3.303928 -1.207805 0
M  V30 26 C -2.524529 -3.350154 -1.218097 0
M  V30 27 H -1.839868 -3.373035 2.278826 0
M  V30 28 H -0.738855 -2.914380 3.647245 0
M  V30 29 H -0.480378 -2.255519 2.000971 0
M  V30 30 H -0.920757 -4.759712 0.589419 0
M  V30 31 H 0.798987 -5.319596 0.738123 0
M  V30 32 H -0.800502 1.244167 -0.508791 0
M  V30 33 H -0.418315 2.182354 -1.973491 0
M  V30 34 H 0.481566 3.449467 0.128713 0
M  V30 35 H 2.460057 4.465521 0.822560 0
M  V30 36 H 3.442004 3.291703 -0.126886 0
M  V30 37 H 1.606549 3.935259 2.948600 0
M  V30 38 H 1.906267 2.785482 5.045992 0
M  V30 39 H 3.288796 0.785370 5.189431 0
M  V30 40 H 4.397065 -0.050897 3.092403 0
M  V30 41 H 4.083982 1.143602 0.936686 0
M  V30 42 H -1.851226 -0.636520 0.547275 0
M  V30 43 H -4.261797 -0.482409 0.613929 0
M  V30 44 H -5.630781 -2.133200 -0.474359 0
M  V30 45 H -4.539969 -4.026022 -1.684799 0
M  V30 46 H -2.060279 -4.173589 -1.744410 0
M  V30 END ATOM
M  V30 BEGIN BOND
M  V30 1 1 1 2
M  V30 2 1 2 3
M  V30 3 1 3 4
M  V30 4 2 4 5
M  V30 5 1 5 6
M  V30 6 2 6 7
M  V30 7 1 7 8
M  V30 8 1 8 9
M  V30 9 1 9 10
M  V30 10 2 10 11
M  V30 11 1 10 12
M  V30 12 1 12 13
M  V30 13 1 13 14
M  V30 14 2 14 15
M  V30 15 1 15 16
M  V30 16 2 16 17
M  V30 17 1 17 18
M  V30 18 2 18 19
M  V30 19 1 7 20
M  V30 20 1 20 21
M  V30 21 2 21 22
M  V30 22 1 22 23
M  V30 23 2 23 24
M  V30 24 1 24 25
M  V30 25 2 25 26
M  V30 26 1 20 4
M  V30 27 1 26 21
M  V30 28 1 19 14
M  V30 29 1 1 27
M  V30 30 1 1 28
M  V30 31 1 1 29
M  V30 32 1 3 30
M  V30 33 1 3 31
M  V30 34 1 9 32
M  V30 35 1 9 33
M  V30 36 1 12 34
M  V30 37 1 13 35
M  V30 38 1 13 36
M  V30 39 1 15 37
M  V30 40 1 16 38
M  V30 41 1 17 39
M  V30 42 1 18 40
M  V30 43 1 19 41
M  V30 44 1 22 42
M  V30 45 1 23 43
M  V30 46 1 24 44
M  V30 47 1 25 45
M  V30 48 1 26 46
M  V30 END BOND
M  V30 END CTAB
M  END
>  <Dataset>  (775) 
ChEMBL_Kinases

>  <Ligand_Instance>  (775) 
nan

>  <PDB_ID>  (775) 
nan

>  <Standardized_SMILES>  (775) 
COCc1nnc(SCC(=O)NCc2ccccc2)n1-c1ccccc1

>  <Name>  (775) 
nan

>  <Pocket>  (775) 
nan

>  <ATP_Site>  (775) 
nan

>  <Peripheral>  (775) 
nan

>  <Num_H_Atoms_ProtBoundConf>  (775) 
nan

>  <Num_Resolved_Atoms>  (775) 
nan

>  <Num_Not_Resolved_Atoms>  (775) 
nan

$$$$
CHEMBL1307032
     RDKit          3D

  0  0  0  0  0  0  0  0  0  0999 V3000
M  V30 BEGIN CTAB
M  V30 COUNTS 46 48 0 0 0
M  V30 BEGIN ATOM
M  V30 1 C -0.099260 -4.444399 3.192805 0
M  V30 2 C -0.062521 -4.942393 1.768630 0
M  V30 3 N -0.461734 -3.937221 0.807916 0
M  V30 4 C 0.343005 -3.055882 0.188611 0
M  V30 5 C -0.401437 -2.249999 -0.663590 0
M  V30 6 C 0.109111 -1.171291 -1.513218 0
M  V30 7 N 1.353612 -1.124474 -1.919841 0
M  V30 8 O 1.575797 -0.031576 -2.691384 0
M  V30 9 C 0.616469 0.936542 -2.291503 0
M  V30 10 C 1.134684 1.501602 -1.022754 0
M  V30 11 O 2.226667 0.898551 -0.797044 0
M  V30 12 N 0.567370 2.508481 -0.193540 0
M  V30 13 C 1.427096 2.722013 0.923461 0
M  V30 14 C 2.445991 3.656501 0.887202 0
M  V30 15 C 3.254063 3.819980 2.011404 0
M  V30 16 C 3.026980 3.052581 3.135476 0
M  V30 17 C 2.024701 2.109776 3.218163 0
M  V30 18 C 1.254767 1.987719 2.079739 0
M  V30 19 C 0.171954 1.009062 2.089363 0
M  V30 20 O -0.583634 0.822910 1.104517 0
M  V30 21 O -0.107932 0.206326 3.189227 0
M  V30 22 C -1.204358 -0.709731 3.049447 0
M  V30 23 C -0.556847 0.000524 -2.066964 0
M  V30 24 C -1.678135 -2.704234 -0.510892 0
M  V30 25 C -2.874745 -2.176232 -1.206166 0
M  V30 26 N -1.698982 -3.731429 0.388037 0
M  V30 27 H 0.263491 -3.398336 3.193052 0
M  V30 28 H 0.524766 -5.104739 3.822784 0
M  V30 29 H -1.169690 -4.466311 3.508711 0
M  V30 30 H -0.769801 -5.789942 1.694706 0
M  V30 31 H 0.964115 -5.322922 1.515549 0
M  V30 32 H 1.419339 -2.970669 0.321601 0
M  V30 33 H 0.451750 1.676870 -3.083939 0
M  V30 34 H -0.338383 2.876840 -0.560675 0
M  V30 35 H 2.592285 4.238399 -0.011619 0
M  V30 36 H 4.049360 4.557331 1.967245 0
M  V30 37 H 3.671004 3.192767 4.011722 0
M  V30 38 H 1.870628 1.526104 4.106585 0
M  V30 39 H -1.294827 -1.369676 3.931405 0
M  V30 40 H -2.168407 -0.156533 2.934904 0
M  V30 41 H -1.059637 -1.377193 2.165728 0
M  V30 42 H -0.896947 -0.277551 -3.103699 0
M  V30 43 H -1.369326 0.439960 -1.508333 0
M  V30 44 H -3.699289 -2.938053 -1.161050 0
M  V30 45 H -3.313689 -1.282095 -0.733905 0
M  V30 46 H -2.641129 -2.054428 -2.279973 0
M  V30 END ATOM
M  V30 BEGIN BOND
M  V30 1 1 1 2
M  V30 2 1 2 3
M  V30 3 1 3 4
M  V30 4 2 4 5
M  V30 5 1 5 6
M  V30 6 2 6 7
M  V30 7 1 7 8
M  V30 8 1 8 9
M  V30 9 1 9 10
M  V30 10 2 10 11
M  V30 11 1 10 12
M  V30 12 1 12 13
M  V30 13 2 13 14
M  V30 14 1 14 15
M  V30 15 2 15 16
M  V30 16 1 16 17
M  V30 17 2 17 18
M  V30 18 1 18 19
M  V30 19 2 19 20
M  V30 20 1 19 21
M  V30 21 1 21 22
M  V30 22 1 9 23
M  V30 23 1 5 24
M  V30 24 1 24 25
M  V30 25 2 24 26
M  V30 26 1 26 3
M  V30 27 1 23 6
M  V30 28 1 18 13
M  V30 29 1 1 27
M  V30 30 1 1 28
M  V30 31 1 1 29
M  V30 32 1 2 30
M  V30 33 1 2 31
M  V30 34 1 4 32
M  V30 35 1 9 33
M  V30 36 1 12 34
M  V30 37 1 14 35
M  V30 38 1 15 36
M  V30 39 1 16 37
M  V30 40 1 17 38
M  V30 41 1 22 39
M  V30 42 1 22 40
M  V30 43 1 22 41
M  V30 44 1 23 42
M  V30 45 1 23 43
M  V30 46 1 25 44
M  V30 47 1 25 45
M  V30 48 1 25 46
M  V30 END BOND
M  V30 END CTAB
M  END
>  <Dataset>  (776) 
ChEMBL_Kinases

>  <Ligand_Instance>  (776) 
nan

>  <PDB_ID>  (776) 
nan

>  <Standardized_SMILES>  (776) 
CCn1cc(C2=NOC(C(=O)Nc3ccccc3C(=O)OC)C2)c(C)n1

>  <Name>  (776) 
nan

>  <Pocket>  (776) 
nan

>  <ATP_Site>  (776) 
nan

>  <Peripheral>  (776) 
nan

>  <Num_H_Atoms_ProtBoundConf>  (776) 
nan

>  <Num_Resolved_Atoms>  (776) 
nan

>  <Num_Not_Resolved_Atoms>  (776) 
nan

$$$$
CHEMBL1307025
     RDKit          3D

  0  0  0  0  0  0  0  0  0  0999 V3000
M  V30 BEGIN CTAB
M  V30 COUNTS 50 52 0 0 0
M  V30 BEGIN ATOM
M  V30 1 C 1.338735 -6.620697 -1.131676 0
M  V30 2 C 1.207315 -5.118145 -1.043740 0
M  V30 3 C 0.130259 -4.664356 -1.973791 0
M  V30 4 N 2.511413 -4.526881 -1.328019 0
M  V30 5 C 2.609607 -3.089440 -1.291127 0
M  V30 6 N 2.903902 -2.487643 -0.208617 0
M  V30 7 N 3.014939 -1.248912 -0.065574 0
M  V30 8 C 2.836851 -0.380877 -1.044364 0
M  V30 9 S 2.811103 1.235906 -1.568337 0
M  V30 10 C 3.183711 2.465456 -0.291801 0
M  V30 11 C 2.142468 2.557877 0.764832 0
M  V30 12 O 2.777822 3.420459 1.437813 0
M  V30 13 C 0.985533 1.674468 0.524788 0
M  V30 14 C -0.115319 1.475684 1.222320 0
M  V30 15 N -0.351246 2.172864 2.438089 0
M  V30 16 C 0.478711 3.169282 3.085034 0
M  V30 17 C -1.619179 1.664740 2.891374 0
M  V30 18 C -2.341406 1.973964 4.022675 0
M  V30 19 C -3.540673 1.331033 4.234383 0
M  V30 20 C -4.054688 0.392826 3.369652 0
M  V30 21 C -3.314063 0.093360 2.234675 0
M  V30 22 C -2.127806 0.726279 2.020740 0
M  V30 23 C -1.223418 0.546444 0.882215 0
M  V30 24 C -1.965989 1.006942 -0.355455 0
M  V30 25 C -0.750540 -0.867940 0.667704 0
M  V30 26 S 2.426417 -1.572383 -2.461864 0
M  V30 27 H 0.990954 -6.940558 -2.134672 0
M  V30 28 H 2.388594 -6.888385 -0.987916 0
M  V30 29 H 0.731957 -7.099557 -0.345390 0
M  V30 30 H 0.945458 -4.794071 -0.015388 0
M  V30 31 H -0.820565 -4.587341 -1.390966 0
M  V30 32 H -0.022261 -5.452798 -2.758793 0
M  V30 33 H 0.349216 -3.705509 -2.491059 0
M  V30 34 H 3.471608 -4.905100 -1.572079 0
M  V30 35 H 4.185107 2.232006 0.068570 0
M  V30 36 H 3.175711 3.448609 -0.848331 0
M  V30 37 H 1.014952 1.076126 -0.377826 0
M  V30 38 H 1.395995 2.792399 3.530685 0
M  V30 39 H -0.124468 3.493967 4.001825 0
M  V30 40 H 0.541560 4.121879 2.523480 0
M  V30 41 H -2.019933 2.687603 4.745963 0
M  V30 42 H -4.121324 1.563073 5.121320 0
M  V30 43 H -5.015528 -0.075776 3.608683 0
M  V30 44 H -3.736299 -0.636607 1.584590 0
M  V30 45 H -2.949148 0.510961 -0.372517 0
M  V30 46 H -1.410620 0.676761 -1.256135 0
M  V30 47 H -2.145247 2.103121 -0.345658 0
M  V30 48 H -0.044745 -1.179639 1.449513 0
M  V30 49 H -0.216061 -0.883190 -0.305994 0
M  V30 50 H -1.617852 -1.529723 0.705430 0
M  V30 END ATOM
M  V30 BEGIN BOND
M  V30 1 1 1 2
M  V30 2 1 2 3
M  V30 3 1 2 4
M  V30 4 1 4 5
M  V30 5 2 5 6
M  V30 6 1 6 7
M  V30 7 2 7 8
M  V30 8 1 8 9
M  V30 9 1 9 10
M  V30 10 1 10 11
M  V30 11 2 11 12
M  V30 12 1 11 13
M  V30 13 2 13 14
M  V30 14 1 14 15
M  V30 15 1 15 16
M  V30 16 1 15 17
M  V30 17 2 17 18
M  V30 18 1 18 19
M  V30 19 2 19 20
M  V30 20 1 20 21
M  V30 21 2 21 22
M  V30 22 1 22 23
M  V30 23 1 23 24
M  V30 24 1 23 25
M  V30 25 1 8 26
M  V30 26 1 26 5
M  V30 27 1 23 14
M  V30 28 1 22 17
M  V30 29 1 1 27
M  V30 30 1 1 28
M  V30 31 1 1 29
M  V30 32 1 2 30
M  V30 33 1 3 31
M  V30 34 1 3 32
M  V30 35 1 3 33
M  V30 36 1 4 34
M  V30 37 1 10 35
M  V30 38 1 10 36
M  V30 39 1 13 37
M  V30 40 1 16 38
M  V30 41 1 16 39
M  V30 42 1 16 40
M  V30 43 1 18 41
M  V30 44 1 19 42
M  V30 45 1 20 43
M  V30 46 1 21 44
M  V30 47 1 24 45
M  V30 48 1 24 46
M  V30 49 1 24 47
M  V30 50 1 25 48
M  V30 51 1 25 49
M  V30 52 1 25 50
M  V30 END BOND
M  V30 END CTAB
M  END
>  <Dataset>  (777) 
ChEMBL_Kinases

>  <Ligand_Instance>  (777) 
nan

>  <PDB_ID>  (777) 
nan

>  <Standardized_SMILES>  (777) 
CC(C)Nc1nnc(SCC(=O)/C=C2\N(C)c3ccccc3C2(C)C)s1

>  <Name>  (777) 
nan

>  <Pocket>  (777) 
nan

>  <ATP_Site>  (777) 
nan

>  <Peripheral>  (777) 
nan

>  <Num_H_Atoms_ProtBoundConf>  (777) 
nan

>  <Num_Resolved_Atoms>  (777) 
nan

>  <Num_Not_Resolved_Atoms>  (777) 
nan

$$$$
CHEMBL1306966
     RDKit          3D

  0  0  0  0  0  0  0  0  0  0999 V3000
M  V30 BEGIN CTAB
M  V30 COUNTS 42 44 0 0 0
M  V30 BEGIN ATOM
M  V30 1 C 0.318278 -7.069786 1.188503 0
M  V30 2 C 1.607585 -6.275386 1.211274 0
M  V30 3 O 1.352327 -5.013856 0.684205 0
M  V30 4 C 2.243830 -3.986221 0.523857 0
M  V30 5 O 3.423433 -4.273113 0.918145 0
M  V30 6 C 1.809190 -2.712318 -0.051671 0
M  V30 7 C 1.765775 -2.257096 -1.353618 0
M  V30 8 C 2.202948 -3.081489 -2.508012 0
M  V30 9 N 1.279705 -1.000738 -1.359130 0
M  V30 10 C 1.017665 -0.660407 -0.083539 0
M  V30 11 C 0.471428 0.616481 0.422112 0
M  V30 12 O 0.250718 0.862854 1.649861 0
M  V30 13 N 0.139588 1.698479 -0.433557 0
M  V30 14 C -0.365854 2.795363 0.355780 0
M  V30 15 C 0.594320 3.686905 0.791575 0
M  V30 16 C 0.276788 4.791726 1.557897 0
M  V30 17 C -1.067615 4.982123 1.883551 0
M  V30 18 C -2.010160 4.067422 1.430045 0
M  V30 19 C -1.691678 2.959693 0.661690 0
M  V30 20 O -3.247934 4.498896 1.896510 0
M  V30 21 C -3.040720 5.395393 2.995423 0
M  V30 22 O -1.774186 5.951430 2.620122 0
M  V30 23 C 1.329285 -1.692105 0.778434 0
M  V30 24 C 1.185031 -1.710209 2.260110 0
M  V30 25 H 0.264685 -7.793308 2.027238 0
M  V30 26 H -0.517622 -6.347034 1.286639 0
M  V30 27 H 0.213251 -7.596176 0.195290 0
M  V30 28 H 2.395524 -6.805727 0.617489 0
M  V30 29 H 1.978764 -6.286553 2.248692 0
M  V30 30 H 3.260108 -3.403857 -2.347012 0
M  V30 31 H 1.521143 -3.958725 -2.584358 0
M  V30 32 H 2.185719 -2.483104 -3.456335 0
M  V30 33 H 1.131529 -0.402742 -2.176598 0
M  V30 34 H 0.306618 1.540642 -1.471426 0
M  V30 35 H 1.662750 3.605100 0.577976 0
M  V30 36 H 0.957319 5.534421 1.938847 0
M  V30 37 H -2.397264 2.249757 0.305813 0
M  V30 38 H -3.835643 6.134790 3.082423 0
M  V30 39 H -2.939798 4.740482 3.881184 0
M  V30 40 H 0.204733 -1.282345 2.586577 0
M  V30 41 H 1.372524 -2.731788 2.631105 0
M  V30 42 H 2.030808 -1.080418 2.648597 0
M  V30 END ATOM
M  V30 BEGIN BOND
M  V30 1 1 1 2
M  V30 2 1 2 3
M  V30 3 1 3 4
M  V30 4 2 4 5
M  V30 5 1 4 6
M  V30 6 2 6 7
M  V30 7 1 7 8
M  V30 8 1 7 9
M  V30 9 1 9 10
M  V30 10 1 10 11
M  V30 11 2 11 12
M  V30 12 1 11 13
M  V30 13 1 13 14
M  V30 14 2 14 15
M  V30 15 1 15 16
M  V30 16 2 16 17
M  V30 17 1 17 18
M  V30 18 2 18 19
M  V30 19 1 18 20
M  V30 20 1 20 21
M  V30 21 1 21 22
M  V30 22 2 10 23
M  V30 23 1 23 24
M  V30 24 1 23 6
M  V30 25 1 19 14
M  V30 26 1 22 17
M  V30 27 1 1 25
M  V30 28 1 1 26
M  V30 29 1 1 27
M  V30 30 1 2 28
M  V30 31 1 2 29
M  V30 32 1 8 30
M  V30 33 1 8 31
M  V30 34 1 8 32
M  V30 35 1 9 33
M  V30 36 1 13 34
M  V30 37 1 15 35
M  V30 38 1 16 36
M  V30 39 1 19 37
M  V30 40 1 21 38
M  V30 41 1 21 39
M  V30 42 1 24 40
M  V30 43 1 24 41
M  V30 44 1 24 42
M  V30 END BOND
M  V30 END CTAB
M  END
>  <Dataset>  (778) 
ChEMBL_Kinases

>  <Ligand_Instance>  (778) 
nan

>  <PDB_ID>  (778) 
nan

>  <Standardized_SMILES>  (778) 
CCOC(=O)c1c(C)[nH]c(C(=O)Nc2ccc3c(c2)OCO3)c1C

>  <Name>  (778) 
nan

>  <Pocket>  (778) 
nan

>  <ATP_Site>  (778) 
nan

>  <Peripheral>  (778) 
nan

>  <Num_H_Atoms_ProtBoundConf>  (778) 
nan

>  <Num_Resolved_Atoms>  (778) 
nan

>  <Num_Not_Resolved_Atoms>  (778) 
nan

$$$$
CHEMBL1306917
     RDKit          3D

  0  0  0  0  0  0  0  0  0  0999 V3000
M  V30 BEGIN CTAB
M  V30 COUNTS 41 44 0 0 0
M  V30 BEGIN ATOM
M  V30 1 C -2.096172 -0.196937 -0.194783 0
M  V30 2 C -0.956568 -1.006027 0.320745 0
M  V30 3 C -1.526103 -2.044247 1.272719 0
M  V30 4 C -1.401985 -3.458321 0.702241 0
M  V30 5 C 0.030645 -3.820043 0.382002 0
M  V30 6 C 0.756595 -2.567845 -0.087910 0
M  V30 7 N -0.232526 -1.721522 -0.671697 0
M  V30 8 C 0.134840 -1.026615 -1.841625 0
M  V30 9 C 0.878694 0.242486 -1.702472 0
M  V30 10 C 1.833287 0.305019 -0.549485 0
M  V30 11 C 1.162630 0.410955 0.758054 0
M  V30 12 C -0.042103 -0.160685 1.119529 0
M  V30 13 N -0.305649 0.172297 2.393312 0
M  V30 14 C 0.681468 0.942698 2.884911 0
M  V30 15 C 0.955840 1.564283 4.084337 0
M  V30 16 C 2.102573 2.309547 4.264946 0
M  V30 17 C 3.001359 2.436738 3.214643 0
M  V30 18 C 2.787567 1.840601 1.988442 0
M  V30 19 C 1.609251 1.103201 1.876915 0
M  V30 20 H -2.630832 -0.647245 -1.050150 0
M  V30 21 H -1.762739 0.845036 -0.361873 0
M  V30 22 H -2.839897 -0.107520 0.650969 0
M  V30 23 H -2.595719 -1.892409 1.483414 0
M  V30 24 H -0.973302 -2.088398 2.238093 0
M  V30 25 H -1.813319 -4.114126 1.513462 0
M  V30 26 H -1.997708 -3.561940 -0.228667 0
M  V30 27 H 0.070961 -4.575812 -0.420376 0
M  V30 28 H 0.546696 -4.252676 1.281643 0
M  V30 29 H 1.075831 -2.065846 0.872530 0
M  V30 30 H 1.654418 -2.758924 -0.665809 0
M  V30 31 H -0.784768 -0.821870 -2.442251 0
M  V30 32 H 0.734058 -1.727345 -2.466123 0
M  V30 33 H 1.502120 0.403456 -2.629446 0
M  V30 34 H 0.243513 1.154556 -1.649811 0
M  V30 35 H 2.424585 1.251725 -0.686854 0
M  V30 36 H 2.574783 -0.507872 -0.606542 0
M  V30 37 H -1.157955 -0.114346 2.956227 0
M  V30 38 H 0.220143 1.440929 4.893818 0
M  V30 39 H 2.312837 2.788318 5.190417 0
M  V30 40 H 3.908770 3.008435 3.310515 0
M  V30 41 H 3.466715 1.922241 1.157070 0
M  V30 END ATOM
M  V30 BEGIN BOND
M  V30 1 1 1 2
M  V30 2 1 2 3
M  V30 3 1 3 4
M  V30 4 1 4 5
M  V30 5 1 5 6
M  V30 6 1 6 7
M  V30 7 1 7 8
M  V30 8 1 8 9
M  V30 9 1 9 10
M  V30 10 1 10 11
M  V30 11 2 11 12
M  V30 12 1 12 13
M  V30 13 1 13 14
M  V30 14 2 14 15
M  V30 15 1 15 16
M  V30 16 2 16 17
M  V30 17 1 17 18
M  V30 18 2 18 19
M  V30 19 1 7 2
M  V30 20 1 19 11
M  V30 21 1 12 2
M  V30 22 1 19 14
M  V30 23 1 1 20
M  V30 24 1 1 21
M  V30 25 1 1 22
M  V30 26 1 3 23
M  V30 27 1 3 24
M  V30 28 1 4 25
M  V30 29 1 4 26
M  V30 30 1 5 27
M  V30 31 1 5 28
M  V30 32 1 6 29
M  V30 33 1 6 30
M  V30 34 1 8 31
M  V30 35 1 8 32
M  V30 36 1 9 33
M  V30 37 1 9 34
M  V30 38 1 10 35
M  V30 39 1 10 36
M  V30 40 1 13 37
M  V30 41 1 15 38
M  V30 42 1 16 39
M  V30 43 1 17 40
M  V30 44 1 18 41
M  V30 END BOND
M  V30 END CTAB
M  END
>  <Dataset>  (779) 
ChEMBL_Kinases

>  <Ligand_Instance>  (779) 
nan

>  <PDB_ID>  (779) 
nan

>  <Standardized_SMILES>  (779) 
CC12CCCCN1CCCc1c2[nH]c2ccccc12

>  <Name>  (779) 
nan

>  <Pocket>  (779) 
nan

>  <ATP_Site>  (779) 
nan

>  <Peripheral>  (779) 
nan

>  <Num_H_Atoms_ProtBoundConf>  (779) 
nan

>  <Num_Resolved_Atoms>  (779) 
nan

>  <Num_Not_Resolved_Atoms>  (779) 
nan

$$$$
CHEMBL1306845
     RDKit          3D

  0  0  0  0  0  0  0  0  0  0999 V3000
M  V30 BEGIN CTAB
M  V30 COUNTS 38 40 0 0 0
M  V30 BEGIN ATOM
M  V30 1 C -0.063777 -2.584947 3.790771 0
M  V30 2 N 1.183011 -3.083351 3.189943 0
M  V30 3 C 1.962314 -4.066425 3.854309 0
M  V30 4 O 1.991493 -4.033649 5.115614 0
M  V30 5 C 2.732607 -5.116759 3.116653 0
M  V30 6 S 3.822238 -4.173505 1.976983 0
M  V30 7 C 2.726444 -2.943104 1.275634 0
M  V30 8 C 3.144489 -2.452941 0.056590 0
M  V30 9 C 2.342454 -1.488885 -0.554299 0
M  V30 10 C 1.184401 -1.077026 0.081702 0
M  V30 11 N 0.305536 -0.099107 -0.466104 0
M  V30 12 C 0.280241 1.313577 -0.324956 0
M  V30 13 O 1.034065 2.082854 0.327154 0
M  V30 14 N -0.734674 2.046374 -1.002489 0
M  V30 15 C -0.716364 3.489443 -0.825227 0
M  V30 16 C -2.148895 3.881632 -0.500305 0
M  V30 17 O -2.890914 2.778980 -0.034706 0
M  V30 18 C -3.114779 1.877477 -1.082791 0
M  V30 19 C -1.829168 1.646289 -1.868039 0
M  V30 20 C 0.793038 -1.594081 1.313030 0
M  V30 21 C 1.577894 -2.550759 1.931377 0
M  V30 22 H -0.320281 -3.180783 4.687629 0
M  V30 23 H 0.102201 -1.526935 4.105010 0
M  V30 24 H -0.922699 -2.671092 3.100469 0
M  V30 25 H 1.999852 -5.697741 2.536316 0
M  V30 26 H 3.311685 -5.695456 3.830176 0
M  V30 27 H 4.036096 -2.758558 -0.450874 0
M  V30 28 H 2.600998 -1.057280 -1.507187 0
M  V30 29 H -0.423282 -0.549518 -1.063332 0
M  V30 30 H -0.513556 3.951446 -1.834902 0
M  V30 31 H 0.017433 3.843006 -0.097590 0
M  V30 32 H -2.164024 4.654364 0.291754 0
M  V30 33 H -2.711269 4.223662 -1.408588 0
M  V30 34 H -3.860165 2.340133 -1.755542 0
M  V30 35 H -3.496378 0.948572 -0.605507 0
M  V30 36 H -1.791514 0.559872 -2.100458 0
M  V30 37 H -1.849824 2.205155 -2.821627 0
M  V30 38 H -0.122206 -1.262070 1.805589 0
M  V30 END ATOM
M  V30 BEGIN BOND
M  V30 1 1 1 2
M  V30 2 1 2 3
M  V30 3 2 3 4
M  V30 4 1 3 5
M  V30 5 1 5 6
M  V30 6 1 6 7
M  V30 7 2 7 8
M  V30 8 1 8 9
M  V30 9 2 9 10
M  V30 10 1 10 11
M  V30 11 1 11 12
M  V30 12 2 12 13
M  V30 13 1 12 14
M  V30 14 1 14 15
M  V30 15 1 15 16
M  V30 16 1 16 17
M  V30 17 1 17 18
M  V30 18 1 18 19
M  V30 19 1 10 20
M  V30 20 2 20 21
M  V30 21 1 21 2
M  V30 22 1 21 7
M  V30 23 1 19 14
M  V30 24 1 1 22
M  V30 25 1 1 23
M  V30 26 1 1 24
M  V30 27 1 5 25
M  V30 28 1 5 26
M  V30 29 1 8 27
M  V30 30 1 9 28
M  V30 31 1 11 29
M  V30 32 1 15 30
M  V30 33 1 15 31
M  V30 34 1 16 32
M  V30 35 1 16 33
M  V30 36 1 18 34
M  V30 37 1 18 35
M  V30 38 1 19 36
M  V30 39 1 19 37
M  V30 40 1 20 38
M  V30 END BOND
M  V30 END CTAB
M  END
>  <Dataset>  (780) 
ChEMBL_Kinases

>  <Ligand_Instance>  (780) 
nan

>  <PDB_ID>  (780) 
nan

>  <Standardized_SMILES>  (780) 
CN1C(=O)CSc2ccc(NC(=O)N3CCOCC3)cc21

>  <Name>  (780) 
nan

>  <Pocket>  (780) 
nan

>  <ATP_Site>  (780) 
nan

>  <Peripheral>  (780) 
nan

>  <Num_H_Atoms_ProtBoundConf>  (780) 
nan

>  <Num_Resolved_Atoms>  (780) 
nan

>  <Num_Not_Resolved_Atoms>  (780) 
nan

$$$$
CHEMBL1306800
     RDKit          3D

  0  0  0  0  0  0  0  0  0  0999 V3000
M  V30 BEGIN CTAB
M  V30 COUNTS 56 59 0 0 0
M  V30 BEGIN ATOM
M  V30 1 C 4.370722 -5.243465 0.852968 0
M  V30 2 O 3.008865 -5.058826 0.544529 0
M  V30 3 C 2.209353 -4.098854 1.102269 0
M  V30 4 C 2.774554 -3.251800 2.032758 0
M  V30 5 C 1.998438 -2.274989 2.613704 0
M  V30 6 C 0.653300 -2.155607 2.254110 0
M  V30 7 N -0.262171 -1.205006 2.772430 0
M  V30 8 C -0.568273 0.033381 2.299748 0
M  V30 9 O 0.285674 -0.138418 1.305494 0
M  V30 10 C -1.024418 1.348795 1.968784 0
M  V30 11 C -0.770944 2.170876 0.922296 0
M  V30 12 C -1.394497 3.402225 0.929779 0
M  V30 13 C -2.230883 3.768373 1.954808 0
M  V30 14 C -2.806472 5.099197 1.796443 0
M  V30 15 C -2.127392 6.114501 1.152087 0
M  V30 16 C -2.736327 7.370152 1.049725 0
M  V30 17 C -3.987661 7.541319 1.594830 0
M  V30 18 C -4.643940 6.509499 2.232879 0
M  V30 19 C -4.062437 5.239888 2.353209 0
M  V30 20 C -2.520958 2.969820 3.041015 0
M  V30 21 C -1.879171 1.721025 3.018182 0
M  V30 22 C 0.124266 -3.035076 1.307412 0
M  V30 23 C 0.888217 -4.006758 0.726242 0
M  V30 24 S 0.173645 -5.088655 -0.454928 0
M  V30 25 O -1.274235 -4.803528 -0.628243 0
M  V30 26 O 0.292401 -6.496294 0.051629 0
M  V30 27 N 1.050552 -4.944045 -1.917959 0
M  V30 28 C 1.018630 -3.633377 -2.493702 0
M  V30 29 C 2.219605 -3.597126 -3.436524 0
M  V30 30 O 2.046762 -4.584287 -4.380586 0
M  V30 31 C 0.866229 -5.276294 -4.277031 0
M  V30 32 C 0.653919 -5.892908 -2.915321 0
M  V30 33 H 5.026803 -4.411286 0.562768 0
M  V30 34 H 4.497775 -5.347033 1.966065 0
M  V30 35 H 4.772436 -6.138823 0.330019 0
M  V30 36 H 3.798660 -3.288822 2.353633 0
M  V30 37 H 2.302801 -1.556645 3.340684 0
M  V30 38 H -0.968165 -1.065982 3.586597 0
M  V30 39 H -0.105881 1.815177 0.158846 0
M  V30 40 H -1.146643 4.012750 0.058183 0
M  V30 41 H -1.150187 5.936744 0.738257 0
M  V30 42 H -2.243723 8.182578 0.558896 0
M  V30 43 H -4.518045 8.491510 1.549555 0
M  V30 44 H -5.638082 6.655314 2.665993 0
M  V30 45 H -4.616074 4.478873 2.854993 0
M  V30 46 H -3.192252 3.360248 3.786830 0
M  V30 47 H -2.184846 1.177029 3.927887 0
M  V30 48 H -0.927851 -2.970797 1.001315 0
M  V30 49 H 0.115201 -3.445939 -3.104218 0
M  V30 50 H 1.059020 -2.817154 -1.745994 0
M  V30 51 H 2.469206 -2.607420 -3.809648 0
M  V30 52 H 3.075762 -3.949300 -2.787890 0
M  V30 53 H -0.014396 -4.725998 -4.664876 0
M  V30 54 H 0.967077 -6.150517 -4.988211 0
M  V30 55 H -0.407847 -6.140029 -2.738941 0
M  V30 56 H 1.307401 -6.804081 -2.850935 0
M  V30 END ATOM
M  V30 BEGIN BOND
M  V30 1 1 1 2
M  V30 2 1 2 3
M  V30 3 2 3 4
M  V30 4 1 4 5
M  V30 5 2 5 6
M  V30 6 1 6 7
M  V30 7 1 7 8
M  V30 8 2 8 9
M  V30 9 1 8 10
M  V30 10 2 10 11
M  V30 11 1 11 12
M  V30 12 2 12 13
M  V30 13 1 13 14
M  V30 14 2 14 15
M  V30 15 1 15 16
M  V30 16 2 16 17
M  V30 17 1 17 18
M  V30 18 2 18 19
M  V30 19 1 13 20
M  V30 20 2 20 21
M  V30 21 1 6 22
M  V30 22 2 22 23
M  V30 23 1 23 24
M  V30 24 2 24 25
M  V30 25 2 24 26
M  V30 26 1 24 27
M  V30 27 1 27 28
M  V30 28 1 28 29
M  V30 29 1 29 30
M  V30 30 1 30 31
M  V30 31 1 31 32
M  V30 32 1 23 3
M  V30 33 1 32 27
M  V30 34 1 21 10
M  V30 35 1 19 14
M  V30 36 1 1 33
M  V30 37 1 1 34
M  V30 38 1 1 35
M  V30 39 1 4 36
M  V30 40 1 5 37
M  V30 41 1 7 38
M  V30 42 1 11 39
M  V30 43 1 12 40
M  V30 44 1 15 41
M  V30 45 1 16 42
M  V30 46 1 17 43
M  V30 47 1 18 44
M  V30 48 1 19 45
M  V30 49 1 20 46
M  V30 50 1 21 47
M  V30 51 1 22 48
M  V30 52 1 28 49
M  V30 53 1 28 50
M  V30 54 1 29 51
M  V30 55 1 29 52
M  V30 56 1 31 53
M  V30 57 1 31 54
M  V30 58 1 32 55
M  V30 59 1 32 56
M  V30 END BOND
M  V30 END CTAB
M  END
>  <Dataset>  (781) 
ChEMBL_Kinases

>  <Ligand_Instance>  (781) 
nan

>  <PDB_ID>  (781) 
nan

>  <Standardized_SMILES>  (781) 
COc1ccc(NC(=O)c2ccc(-c3ccccc3)cc2)cc1S(=O)(=O)N1CCOCC1

>  <Name>  (781) 
nan

>  <Pocket>  (781) 
nan

>  <ATP_Site>  (781) 
nan

>  <Peripheral>  (781) 
nan

>  <Num_H_Atoms_ProtBoundConf>  (781) 
nan

>  <Num_Resolved_Atoms>  (781) 
nan

>  <Num_Not_Resolved_Atoms>  (781) 
nan

$$$$
CHEMBL1311313
     RDKit          3D

  0  0  0  0  0  0  0  0  0  0999 V3000
M  V30 BEGIN CTAB
M  V30 COUNTS 30 32 0 0 0
M  V30 BEGIN ATOM
M  V30 1 O 0.878370 -4.528907 -0.447237 0
M  V30 2 C 1.193028 -3.320530 -0.352251 0
M  V30 3 N 2.491643 -2.928546 -0.819795 0
M  V30 4 C 2.667814 -1.529926 -0.631542 0
M  V30 5 C 3.652098 -0.582684 -0.864302 0
M  V30 6 C 3.449359 0.753009 -0.530005 0
M  V30 7 C 2.277966 1.204945 0.042419 0
M  V30 8 C 1.287555 0.270091 0.280043 0
M  V30 9 C 1.511091 -1.045107 -0.059082 0
M  V30 10 C 0.527786 -2.099813 0.153165 0
M  V30 11 N -0.631071 -2.288086 0.600612 0
M  V30 12 N -1.520568 -1.366882 1.143403 0
M  V30 13 C -2.345484 -0.257705 0.626677 0
M  V30 14 C -2.380498 0.891966 1.547274 0
M  V30 15 O -1.579753 0.904946 2.622433 0
M  V30 16 C -1.077734 -0.235971 3.125843 0
M  V30 17 C -1.730389 -1.488932 2.579778 0
M  V30 18 H 3.285435 -3.446277 -1.247244 0
M  V30 19 H 4.571579 -0.928343 -1.311916 0
M  V30 20 H 4.275023 1.410396 -0.750914 0
M  V30 21 H 2.159511 2.237056 0.284806 0
M  V30 22 H 0.387718 0.644545 0.724866 0
M  V30 23 H -3.356866 -0.722682 0.498192 0
M  V30 24 H -2.008549 -0.035708 -0.413195 0
M  V30 25 H -2.122776 1.804324 0.931570 0
M  V30 26 H -3.436751 1.070404 1.866723 0
M  V30 27 H -1.110181 -0.242414 4.243288 0
M  V30 28 H 0.001974 -0.318494 2.881679 0
M  V30 29 H -1.304174 -2.392344 3.023064 0
M  V30 30 H -2.810282 -1.449472 2.834550 0
M  V30 END ATOM
M  V30 BEGIN BOND
M  V30 1 2 1 2
M  V30 2 1 2 3
M  V30 3 1 3 4
M  V30 4 2 4 5
M  V30 5 1 5 6
M  V30 6 2 6 7
M  V30 7 1 7 8
M  V30 8 2 8 9
M  V30 9 1 9 10
M  V30 10 2 10 11 CFG=2
M  V30 11 1 11 12
M  V30 12 1 12 13
M  V30 13 1 13 14
M  V30 14 1 14 15
M  V30 15 1 15 16
M  V30 16 1 16 17
M  V30 17 1 10 2
M  V30 18 1 17 12
M  V30 19 1 9 4
M  V30 20 1 3 18
M  V30 21 1 5 19
M  V30 22 1 6 20
M  V30 23 1 7 21
M  V30 24 1 8 22
M  V30 25 1 13 23
M  V30 26 1 13 24
M  V30 27 1 14 25
M  V30 28 1 14 26
M  V30 29 1 16 27
M  V30 30 1 16 28
M  V30 31 1 17 29
M  V30 32 1 17 30
M  V30 END BOND
M  V30 END CTAB
M  END
>  <Dataset>  (782) 
ChEMBL_Kinases

>  <Ligand_Instance>  (782) 
nan

>  <PDB_ID>  (782) 
nan

>  <Standardized_SMILES>  (782) 
O=C1Nc2ccccc2C1=NN1CCOCC1

>  <Name>  (782) 
nan

>  <Pocket>  (782) 
nan

>  <ATP_Site>  (782) 
nan

>  <Peripheral>  (782) 
nan

>  <Num_H_Atoms_ProtBoundConf>  (782) 
nan

>  <Num_Resolved_Atoms>  (782) 
nan

>  <Num_Not_Resolved_Atoms>  (782) 
nan

$$$$
CHEMBL1305299
     RDKit          3D

  0  0  0  0  0  0  0  0  0  0999 V3000
M  V30 BEGIN CTAB
M  V30 COUNTS 49 52 0 0 0
M  V30 BEGIN ATOM
M  V30 1 C 0.726114 -6.560224 1.358648 0
M  V30 2 O 1.576952 -6.411214 0.266791 0
M  V30 3 C 1.977820 -5.208961 -0.254255 0
M  V30 4 C 1.514359 -4.037924 0.339266 0
M  V30 5 C 1.935376 -2.848972 -0.206016 0
M  V30 6 C 2.771904 -2.676418 -1.283901 0
M  V30 7 C 3.162213 -1.366865 -1.783690 0
M  V30 8 O 3.889947 -1.203280 -2.779077 0
M  V30 9 C 2.665617 -0.167253 -1.069112 0
M  V30 10 S 0.964252 0.266504 -1.509967 0
M  V30 11 C 0.488167 1.753718 -0.594095 0
M  V30 12 N 0.657186 3.015938 -1.053992 0
M  V30 13 N 0.211873 3.838814 -0.120369 0
M  V30 14 C -0.245480 3.145199 0.942353 0
M  V30 15 C -0.825565 3.570116 2.208825 0
M  V30 16 C -0.038595 3.332720 3.344607 0
M  V30 17 C -0.694383 3.776357 4.466556 0
M  V30 18 C -1.893171 4.284646 3.965033 0
M  V30 19 O -1.925211 4.145204 2.667076 0
M  V30 20 N -0.069754 1.832085 0.640045 0
M  V30 21 C -0.395869 0.688654 1.464326 0
M  V30 22 C -1.779345 0.188283 1.272140 0
M  V30 23 C -2.135819 -0.261073 -0.106488 0
M  V30 24 C -3.656734 -0.402074 0.017504 0
M  V30 25 C -3.929846 0.327111 1.306066 0
M  V30 26 O -2.782177 1.114660 1.548055 0
M  V30 27 C 3.214148 -3.876516 -1.850681 0
M  V30 28 C 2.829747 -5.125890 -1.352226 0
M  V30 29 H 0.926431 -7.531988 1.858901 0
M  V30 30 H 0.881914 -5.757370 2.122686 0
M  V30 31 H -0.349784 -6.585741 1.047439 0
M  V30 32 H 0.846987 -3.971547 1.192685 0
M  V30 33 H 1.587701 -1.906992 0.242106 0
M  V30 34 H 2.786802 -0.299274 0.040179 0
M  V30 35 H 3.312304 0.725627 -1.290189 0
M  V30 36 H 0.945732 2.881081 3.474779 0
M  V30 37 H -0.465144 3.795519 5.535096 0
M  V30 38 H -2.746478 4.749120 4.474088 0
M  V30 39 H -0.273740 0.882661 2.558206 0
M  V30 40 H 0.307178 -0.122445 1.206011 0
M  V30 41 H -1.948358 -0.669301 1.953019 0
M  V30 42 H -1.958692 0.511471 -0.864403 0
M  V30 43 H -1.673726 -1.234617 -0.362128 0
M  V30 44 H -4.187507 0.049511 -0.845377 0
M  V30 45 H -3.852181 -1.484723 0.154319 0
M  V30 46 H -3.991819 -0.389162 2.162412 0
M  V30 47 H -4.848204 0.926687 1.279442 0
M  V30 48 H 3.884742 -3.777595 -2.714205 0
M  V30 49 H 3.195014 -6.031716 -1.822891 0
M  V30 END ATOM
M  V30 BEGIN BOND
M  V30 1 1 1 2
M  V30 2 1 2 3
M  V30 3 2 3 4
M  V30 4 1 4 5
M  V30 5 2 5 6
M  V30 6 1 6 7
M  V30 7 2 7 8
M  V30 8 1 7 9
M  V30 9 1 9 10
M  V30 10 1 10 11
M  V30 11 2 11 12
M  V30 12 1 12 13
M  V30 13 2 13 14
M  V30 14 1 14 15
M  V30 15 2 15 16
M  V30 16 1 16 17
M  V30 17 2 17 18
M  V30 18 1 18 19
M  V30 19 1 14 20
M  V30 20 1 20 21
M  V30 21 1 21 22
M  V30 22 1 22 23
M  V30 23 1 23 24
M  V30 24 1 24 25
M  V30 25 1 25 26
M  V30 26 1 6 27
M  V30 27 2 27 28
M  V30 28 1 28 3
M  V30 29 1 20 11
M  V30 30 1 26 22
M  V30 31 1 19 15
M  V30 32 1 1 29
M  V30 33 1 1 30
M  V30 34 1 1 31
M  V30 35 1 4 32
M  V30 36 1 5 33
M  V30 37 1 9 34
M  V30 38 1 9 35
M  V30 39 1 16 36
M  V30 40 1 17 37
M  V30 41 1 18 38
M  V30 42 1 21 39
M  V30 43 1 21 40
M  V30 44 1 22 41
M  V30 45 1 23 42
M  V30 46 1 23 43
M  V30 47 1 24 44
M  V30 48 1 24 45
M  V30 49 1 25 46
M  V30 50 1 25 47
M  V30 51 1 27 48
M  V30 52 1 28 49
M  V30 END BOND
M  V30 END CTAB
M  END
>  <Dataset>  (783) 
ChEMBL_Kinases

>  <Ligand_Instance>  (783) 
nan

>  <PDB_ID>  (783) 
nan

>  <Standardized_SMILES>  (783) 
COc1ccc(C(=O)CSc2nnc(-c3ccco3)n2CC2CCCO2)cc1

>  <Name>  (783) 
nan

>  <Pocket>  (783) 
nan

>  <ATP_Site>  (783) 
nan

>  <Peripheral>  (783) 
nan

>  <Num_H_Atoms_ProtBoundConf>  (783) 
nan

>  <Num_Resolved_Atoms>  (783) 
nan

>  <Num_Not_Resolved_Atoms>  (783) 
nan

$$$$
CHEMBL1305311
     RDKit          3D

  0  0  0  0  0  0  0  0  0  0999 V3000
M  V30 BEGIN CTAB
M  V30 COUNTS 64 67 0 0 0
M  V30 BEGIN ATOM
M  V30 1 C 1.670940 -3.313247 4.254535 0
M  V30 2 O 2.099706 -2.029284 3.898846 0
M  V30 3 C 1.300425 -1.050231 3.309676 0
M  V30 4 O 0.130788 -1.399275 3.108072 0
M  V30 5 C 1.881854 0.270765 2.985239 0
M  V30 6 N 3.163357 0.624222 3.213437 0
M  V30 7 C 3.319134 1.894138 2.798894 0
M  V30 8 C 4.443681 2.703425 2.818836 0
M  V30 9 C 4.322764 3.994660 2.319042 0
M  V30 10 C 3.112425 4.440046 1.822455 0
M  V30 11 C 1.993000 3.617224 1.808935 0
M  V30 12 O 0.791632 4.052187 1.318501 0
M  V30 13 C 0.567066 5.327365 0.795454 0
M  V30 14 C 2.087202 2.330589 2.299554 0
M  V30 15 C 1.151006 1.297174 2.411981 0
M  V30 16 N -0.218327 1.311906 2.033567 0
M  V30 17 C -0.846252 1.015814 0.793433 0
M  V30 18 O -0.097043 0.684968 -0.150147 0
M  V30 19 C -2.296115 1.180719 0.933058 0
M  V30 20 C -2.988514 0.958520 -0.382962 0
M  V30 21 N -2.691527 -0.385921 -0.841276 0
M  V30 22 C -3.298394 -1.393573 0.000318 0
M  V30 23 C -3.431945 -2.677003 -0.755386 0
M  V30 24 N -2.462810 -2.855645 -1.812282 0
M  V30 25 C -1.478134 -3.828248 -2.219848 0
M  V30 26 C -1.705170 -4.389415 -3.482429 0
M  V30 27 C -0.877773 -5.346108 -4.060279 0
M  V30 28 C 0.196501 -5.698470 -3.275495 0
M  V30 29 C 0.472800 -5.182553 -2.027423 0
M  V30 30 C -0.385699 -4.241946 -1.517601 0
M  V30 31 O -0.259588 -3.620983 -0.283089 0
M  V30 32 C 0.861063 -4.012350 0.494432 0
M  V30 33 C -2.444025 -1.745847 -2.772328 0
M  V30 34 C -3.257220 -0.598268 -2.180232 0
M  V30 35 H 2.190950 -4.038596 3.576800 0
M  V30 36 H 0.580877 -3.467041 4.116338 0
M  V30 37 H 1.995561 -3.563814 5.283056 0
M  V30 38 H 3.873066 -0.025904 3.644775 0
M  V30 39 H 5.392283 2.364166 3.204635 0
M  V30 40 H 5.221229 4.599815 2.349545 0
M  V30 41 H 3.086395 5.447723 1.451475 0
M  V30 42 H 0.774635 5.316016 -0.304057 0
M  V30 43 H -0.497983 5.629476 0.983279 0
M  V30 44 H 1.182824 6.132428 1.203168 0
M  V30 45 H -0.654209 1.613265 2.956761 0
M  V30 46 H -2.663181 0.386527 1.634615 0
M  V30 47 H -2.556753 2.159472 1.389197 0
M  V30 48 H -2.725783 1.724887 -1.115322 0
M  V30 49 H -4.100177 1.036277 -0.243592 0
M  V30 50 H -4.322339 -0.993290 0.260277 0
M  V30 51 H -2.746068 -1.528747 0.953970 0
M  V30 52 H -4.458135 -2.730615 -1.219302 0
M  V30 53 H -3.378336 -3.566411 -0.060358 0
M  V30 54 H -2.572813 -4.085817 -4.084070 0
M  V30 55 H -1.095058 -5.744164 -5.028539 0
M  V30 56 H 0.889076 -6.435062 -3.648313 0
M  V30 57 H 1.310821 -5.471435 -1.439918 0
M  V30 58 H 1.775451 -3.494911 0.079645 0
M  V30 59 H 0.755980 -3.615045 1.528046 0
M  V30 60 H 1.000406 -5.107625 0.543203 0
M  V30 61 H -1.414910 -1.419408 -2.990472 0
M  V30 62 H -2.969110 -2.094310 -3.675200 0
M  V30 63 H -4.330094 -0.865182 -2.110998 0
M  V30 64 H -3.160945 0.316593 -2.762417 0
M  V30 END ATOM
M  V30 BEGIN BOND
M  V30 1 1 1 2
M  V30 2 1 2 3
M  V30 3 2 3 4
M  V30 4 1 3 5
M  V30 5 1 5 6
M  V30 6 1 6 7
M  V30 7 2 7 8
M  V30 8 1 8 9
M  V30 9 2 9 10
M  V30 10 1 10 11
M  V30 11 1 11 12
M  V30 12 1 12 13
M  V30 13 2 11 14
M  V30 14 1 14 15
M  V30 15 1 15 16
M  V30 16 1 16 17
M  V30 17 2 17 18
M  V30 18 1 17 19
M  V30 19 1 19 20
M  V30 20 1 20 21
M  V30 21 1 21 22
M  V30 22 1 22 23
M  V30 23 1 23 24
M  V30 24 1 24 25
M  V30 25 2 25 26
M  V30 26 1 26 27
M  V30 27 2 27 28
M  V30 28 1 28 29
M  V30 29 2 29 30
M  V30 30 1 30 31
M  V30 31 1 31 32
M  V30 32 1 24 33
M  V30 33 1 33 34
M  V30 34 2 15 5
M  V30 35 1 34 21
M  V30 36 1 14 7
M  V30 37 1 30 25
M  V30 38 1 1 35
M  V30 39 1 1 36
M  V30 40 1 1 37
M  V30 41 1 6 38
M  V30 42 1 8 39
M  V30 43 1 9 40
M  V30 44 1 10 41
M  V30 45 1 13 42
M  V30 46 1 13 43
M  V30 47 1 13 44
M  V30 48 1 16 45
M  V30 49 1 19 46
M  V30 50 1 19 47
M  V30 51 1 20 48
M  V30 52 1 20 49
M  V30 53 1 22 50
M  V30 54 1 22 51
M  V30 55 1 23 52
M  V30 56 1 23 53
M  V30 57 1 26 54
M  V30 58 1 27 55
M  V30 59 1 28 56
M  V30 60 1 29 57
M  V30 61 1 32 58
M  V30 62 1 32 59
M  V30 63 1 32 60
M  V30 64 1 33 61
M  V30 65 1 33 62
M  V30 66 1 34 63
M  V30 67 1 34 64
M  V30 END BOND
M  V30 END CTAB
M  END
>  <Dataset>  (784) 
ChEMBL_Kinases

>  <Ligand_Instance>  (784) 
nan

>  <PDB_ID>  (784) 
nan

>  <Standardized_SMILES>  (784) 
COC(=O)c1[nH]c2cccc(OC)c2c1NC(=O)CCN1CCN(c2ccccc2OC)CC1

>  <Name>  (784) 
nan

>  <Pocket>  (784) 
nan

>  <ATP_Site>  (784) 
nan

>  <Peripheral>  (784) 
nan

>  <Num_H_Atoms_ProtBoundConf>  (784) 
nan

>  <Num_Resolved_Atoms>  (784) 
nan

>  <Num_Not_Resolved_Atoms>  (784) 
nan

$$$$
CHEMBL1305334
     RDKit          3D

  0  0  0  0  0  0  0  0  0  0999 V3000
M  V30 BEGIN CTAB
M  V30 COUNTS 49 51 0 0 0
M  V30 BEGIN ATOM
M  V30 1 C 4.297490 -4.384734 1.062437 0
M  V30 2 C 5.793836 -4.458320 1.155531 0
M  V30 3 O 6.339661 -3.566756 2.118017 0
M  V30 4 C 6.162770 -2.204330 2.037824 0
M  V30 5 O 5.472196 -2.176917 0.982106 0
M  V30 6 C 5.881573 -0.766887 1.808096 0
M  V30 7 C 5.051049 -0.566623 0.559289 0
M  V30 8 C 5.816515 -0.327075 -0.689771 0
M  V30 9 S 4.250105 -0.187509 -1.760396 0
M  V30 10 C 3.076548 -0.438227 -0.516478 0
M  V30 11 N 1.617750 -0.470567 -0.581245 0
M  V30 12 C 0.829611 0.680278 -0.412272 0
M  V30 13 O 1.361034 1.795673 -0.195970 0
M  V30 14 C -0.627246 0.644456 -0.477578 0
M  V30 15 C -1.332695 1.826551 -0.297338 0
M  V30 16 C -2.712168 1.888205 -0.342216 0
M  V30 17 C -3.453602 0.747514 -0.573675 0
M  V30 18 S -5.179498 0.712481 -0.649176 0
M  V30 19 O -5.640322 -0.250998 -1.693628 0
M  V30 20 O -5.629267 2.086886 -1.102856 0
M  V30 21 N -5.935250 0.423523 0.871920 0
M  V30 22 C -5.603856 -0.834190 1.463352 0
M  V30 23 C -4.509132 -0.567872 2.479016 0
M  V30 24 C -4.534311 0.939756 2.726666 0
M  V30 25 C -5.635150 1.447751 1.834937 0
M  V30 26 C -2.739370 -0.419681 -0.750997 0
M  V30 27 C -1.359132 -0.502030 -0.709698 0
M  V30 28 N 3.749481 -0.654322 0.842550 0
M  V30 29 H 3.815831 -5.363459 1.279160 0
M  V30 30 H 4.036123 -4.060627 0.029941 0
M  V30 31 H 3.885037 -3.679444 1.808155 0
M  V30 32 H 6.053852 -5.476981 1.499266 0
M  V30 33 H 6.275889 -4.251592 0.170293 0
M  V30 34 H 5.430555 -0.352986 2.709721 0
M  V30 35 H 6.865350 -0.252265 1.705509 0
M  V30 36 H 6.746593 -0.280490 -0.799610 0
M  V30 37 H 1.198674 -1.404360 -0.761302 0
M  V30 38 H -0.817263 2.765393 -0.110796 0
M  V30 39 H -3.247306 2.816115 -0.200045 0
M  V30 40 H -6.503512 -1.164881 2.059770 0
M  V30 41 H -5.386078 -1.640400 0.763733 0
M  V30 42 H -4.686965 -1.069460 3.449135 0
M  V30 43 H -3.507655 -0.890482 2.121282 0
M  V30 44 H -3.557114 1.409693 2.494009 0
M  V30 45 H -4.751700 1.170436 3.788778 0
M  V30 46 H -5.397758 2.422440 1.355274 0
M  V30 47 H -6.551193 1.564362 2.485347 0
M  V30 48 H -3.280079 -1.346721 -0.936679 0
M  V30 49 H -0.837001 -1.437782 -0.853789 0
M  V30 END ATOM
M  V30 BEGIN BOND
M  V30 1 1 1 2
M  V30 2 1 2 3
M  V30 3 1 3 4
M  V30 4 2 4 5
M  V30 5 1 4 6
M  V30 6 1 6 7
M  V30 7 2 7 8
M  V30 8 1 8 9
M  V30 9 1 9 10
M  V30 10 1 10 11
M  V30 11 1 11 12
M  V30 12 2 12 13
M  V30 13 1 12 14
M  V30 14 2 14 15
M  V30 15 1 15 16
M  V30 16 2 16 17
M  V30 17 1 17 18
M  V30 18 2 18 19
M  V30 19 2 18 20
M  V30 20 1 18 21
M  V30 21 1 21 22
M  V30 22 1 22 23
M  V30 23 1 23 24
M  V30 24 1 24 25
M  V30 25 1 17 26
M  V30 26 2 26 27
M  V30 27 2 10 28
M  V30 28 1 28 7
M  V30 29 1 27 14
M  V30 30 1 25 21
M  V30 31 1 1 29
M  V30 32 1 1 30
M  V30 33 1 1 31
M  V30 34 1 2 32
M  V30 35 1 2 33
M  V30 36 1 6 34
M  V30 37 1 6 35
M  V30 38 1 8 36
M  V30 39 1 11 37
M  V30 40 1 15 38
M  V30 41 1 16 39
M  V30 42 1 22 40
M  V30 43 1 22 41
M  V30 44 1 23 42
M  V30 45 1 23 43
M  V30 46 1 24 44
M  V30 47 1 24 45
M  V30 48 1 25 46
M  V30 49 1 25 47
M  V30 50 1 26 48
M  V30 51 1 27 49
M  V30 END BOND
M  V30 END CTAB
M  END
>  <Dataset>  (785) 
ChEMBL_Kinases

>  <Ligand_Instance>  (785) 
nan

>  <PDB_ID>  (785) 
nan

>  <Standardized_SMILES>  (785) 
CCOC(=O)Cc1csc(NC(=O)c2ccc(S(=O)(=O)N3CCCC3)cc2)n1

>  <Name>  (785) 
nan

>  <Pocket>  (785) 
nan

>  <ATP_Site>  (785) 
nan

>  <Peripheral>  (785) 
nan

>  <Num_H_Atoms_ProtBoundConf>  (785) 
nan

>  <Num_Resolved_Atoms>  (785) 
nan

>  <Num_Not_Resolved_Atoms>  (785) 
nan

$$$$
CHEMBL1305486
     RDKit          3D

  0  0  0  0  0  0  0  0  0  0999 V3000
M  V30 BEGIN CTAB
M  V30 COUNTS 50 53 0 0 0
M  V30 BEGIN ATOM
M  V30 1 C 1.227890 1.046730 1.079542 0
M  V30 2 N 0.893350 -0.040229 0.188226 0
M  V30 3 C 1.335237 -0.245299 -1.061322 0
M  V30 4 N 2.245959 0.470149 -1.874475 0
M  V30 5 C 3.187950 1.512214 -1.786589 0
M  V30 6 C 4.551235 1.187129 -1.294655 0
M  V30 7 C 4.667439 0.694702 0.102085 0
M  V30 8 C 4.901868 1.922973 0.957243 0
M  V30 9 C 4.957539 3.021611 -0.068171 0
M  V30 10 O 5.273335 2.401477 -1.276893 0
M  V30 11 N 0.721123 -1.373585 -1.459581 0
M  V30 12 C -0.060455 -1.842290 -0.505707 0
M  V30 13 C 0.016737 -1.009917 0.583459 0
M  V30 14 C -0.739788 -1.326545 1.690212 0
M  V30 15 O -0.659407 -0.560355 2.679387 0
M  V30 16 N -1.535485 -2.439011 1.684114 0
M  V30 17 C -2.348558 -2.742982 2.865614 0
M  V30 18 C -3.710240 -2.113323 2.727604 0
M  V30 19 C -4.062651 -0.820524 3.041644 0
M  V30 20 C -5.334694 -0.316013 2.891313 0
M  V30 21 C -6.309726 -1.189868 2.387248 0
M  V30 22 C -6.005110 -2.489624 2.061094 0
M  V30 23 C -4.716911 -2.944930 2.230288 0
M  V30 24 C -1.539603 -3.188966 0.568977 0
M  V30 25 O -2.274603 -4.235770 0.540648 0
M  V30 26 N -0.829530 -2.942251 -0.545089 0
M  V30 27 C -0.914458 -3.818864 -1.683103 0
M  V30 28 H 2.051557 0.820535 1.782865 0
M  V30 29 H 1.356703 2.003655 0.541555 0
M  V30 30 H 0.361376 1.278465 1.783479 0
M  V30 31 H 2.254142 0.136360 -2.895161 0
M  V30 32 H 3.336519 1.995567 -2.805470 0
M  V30 33 H 2.844077 2.391622 -1.180119 0
M  V30 34 H 5.089082 0.514958 -2.018533 0
M  V30 35 H 5.593568 0.049263 0.153553 0
M  V30 36 H 3.853179 0.058540 0.444153 0
M  V30 37 H 5.895618 1.849831 1.489584 0
M  V30 38 H 4.143475 2.063441 1.746663 0
M  V30 39 H 4.034759 3.633518 -0.108759 0
M  V30 40 H 5.790729 3.726752 0.185813 0
M  V30 41 H -1.826505 -2.291998 3.738495 0
M  V30 42 H -2.469211 -3.839597 2.977326 0
M  V30 43 H -3.260022 -0.201415 3.423225 0
M  V30 44 H -5.498215 0.715121 3.168256 0
M  V30 45 H -7.296445 -0.760623 2.283809 0
M  V30 46 H -6.836155 -3.074964 1.680710 0
M  V30 47 H -4.615068 -3.996731 1.935013 0
M  V30 48 H -1.597087 -3.439523 -2.471395 0
M  V30 49 H -1.345306 -4.802424 -1.332550 0
M  V30 50 H 0.102306 -4.088431 -2.076363 0
M  V30 END ATOM
M  V30 BEGIN BOND
M  V30 1 1 1 2
M  V30 2 1 2 3
M  V30 3 1 3 4
M  V30 4 1 4 5
M  V30 5 1 5 6
M  V30 6 1 6 7
M  V30 7 1 7 8
M  V30 8 1 8 9
M  V30 9 1 9 10
M  V30 10 2 3 11
M  V30 11 1 11 12
M  V30 12 2 12 13
M  V30 13 1 13 14
M  V30 14 2 14 15
M  V30 15 1 14 16
M  V30 16 1 16 17
M  V30 17 1 17 18
M  V30 18 2 18 19
M  V30 19 1 19 20
M  V30 20 2 20 21
M  V30 21 1 21 22
M  V30 22 2 22 23
M  V30 23 1 16 24
M  V30 24 2 24 25
M  V30 25 1 24 26
M  V30 26 1 26 27
M  V30 27 1 13 2
M  V30 28 1 23 18
M  V30 29 1 10 6
M  V30 30 1 26 12
M  V30 31 1 1 28
M  V30 32 1 1 29
M  V30 33 1 1 30
M  V30 34 1 4 31
M  V30 35 1 5 32
M  V30 36 1 5 33
M  V30 37 1 6 34
M  V30 38 1 7 35
M  V30 39 1 7 36
M  V30 40 1 8 37
M  V30 41 1 8 38
M  V30 42 1 9 39
M  V30 43 1 9 40
M  V30 44 1 17 41
M  V30 45 1 17 42
M  V30 46 1 19 43
M  V30 47 1 20 44
M  V30 48 1 21 45
M  V30 49 1 22 46
M  V30 50 1 23 47
M  V30 51 1 27 48
M  V30 52 1 27 49
M  V30 53 1 27 50
M  V30 END BOND
M  V30 END CTAB
M  END
>  <Dataset>  (786) 
ChEMBL_Kinases

>  <Ligand_Instance>  (786) 
nan

>  <PDB_ID>  (786) 
nan

>  <Standardized_SMILES>  (786) 
Cn1c(NCC2CCCO2)nc2c1c(=O)n(Cc1ccccc1)c(=O)n2C

>  <Name>  (786) 
nan

>  <Pocket>  (786) 
nan

>  <ATP_Site>  (786) 
nan

>  <Peripheral>  (786) 
nan

>  <Num_H_Atoms_ProtBoundConf>  (786) 
nan

>  <Num_Resolved_Atoms>  (786) 
nan

>  <Num_Not_Resolved_Atoms>  (786) 
nan

$$$$
CHEMBL1305533
     RDKit          3D

  0  0  0  0  0  0  0  0  0  0999 V3000
M  V30 BEGIN CTAB
M  V30 COUNTS 60 63 0 0 0
M  V30 BEGIN ATOM
M  V30 1 C 1.076681 0.804876 4.779935 0
M  V30 2 O 0.717335 -0.534732 4.243932 0
M  V30 3 C 1.790479 -0.899401 3.326649 0
M  V30 4 C 2.999245 -0.118647 3.239495 0
M  V30 5 C 4.026617 -0.549377 2.343706 0
M  V30 6 C 3.556606 -1.694188 1.716712 0
M  V30 7 C 4.551893 -1.700192 0.460956 0
M  V30 8 C 4.275460 -0.280339 -0.144329 0
M  V30 9 N 2.904573 -0.026336 -0.292460 0
M  V30 10 C 2.406062 1.201317 -0.646816 0
M  V30 11 O 3.046216 2.290711 -0.886000 0
M  V30 12 C 0.945518 1.594596 -0.826114 0
M  V30 13 N 0.292215 0.313531 -0.590774 0
M  V30 14 C -1.103093 0.468982 -0.253461 0
M  V30 15 C -1.567851 -0.951296 0.194563 0
M  V30 16 C -1.481451 -1.899397 -0.945369 0
M  V30 17 N -2.498019 -1.500682 -1.980513 0
M  V30 18 N -2.177011 -1.034243 -3.129461 0
M  V30 19 N -3.266339 -0.659454 -3.701590 0
M  V30 20 C -4.287114 -0.915516 -2.834348 0
M  V30 21 C -5.683262 -0.678687 -2.800619 0
M  V30 22 C -6.370611 -1.028711 -1.705679 0
M  V30 23 F -7.710448 -0.823212 -1.724848 0
M  V30 24 C -5.857149 -1.607027 -0.547882 0
M  V30 25 C -4.519447 -1.811406 -0.550576 0
M  V30 26 C -3.775882 -1.473617 -1.683504 0
M  V30 27 C -0.089280 -1.823893 -1.637303 0
M  V30 28 C 0.335127 -0.438658 -1.869781 0
M  V30 29 C 2.494200 -2.478821 1.710664 0
M  V30 30 C 1.546624 -2.110474 2.526199 0
M  V30 31 O 0.397205 -2.322035 3.074952 0
M  V30 32 C -0.770224 -2.544954 3.626837 0
M  V30 33 H 1.318647 1.395423 3.830493 0
M  V30 34 H 1.899631 0.689910 5.415991 0
M  V30 35 H 0.163902 1.156414 5.278795 0
M  V30 36 H 3.179508 0.744399 3.890506 0
M  V30 37 H 4.843565 0.068008 2.358770 0
M  V30 38 H 5.556579 -1.771851 0.743479 0
M  V30 39 H 4.057463 -2.442087 -0.179737 0
M  V30 40 H 4.689309 0.449927 0.557345 0
M  V30 41 H 4.883502 -0.254657 -1.036638 0
M  V30 42 H 2.255312 -0.794081 -0.139394 0
M  V30 43 H 0.605292 2.228937 -0.029091 0
M  V30 44 H 0.734948 2.024271 -1.792058 0
M  V30 45 H -1.756039 0.843540 -1.035581 0
M  V30 46 H -1.206509 1.131775 0.610006 0
M  V30 47 H -0.859041 -1.216001 0.945604 0
M  V30 48 H -2.570043 -0.875294 0.537913 0
M  V30 49 H -1.640548 -2.923752 -0.616174 0
M  V30 50 H -6.164784 -0.192705 -3.657074 0
M  V30 51 H -6.479893 -1.865976 0.267800 0
M  V30 52 H -4.136979 -2.273378 0.318039 0
M  V30 53 H -0.152396 -2.389533 -2.599738 0
M  V30 54 H 0.635730 -2.321299 -0.940868 0
M  V30 55 H -0.269417 0.076126 -2.641427 0
M  V30 56 H 1.377021 -0.444299 -2.192243 0
M  V30 57 H 2.304612 -3.297598 1.153028 0
M  V30 58 H -1.629800 -1.837216 3.359128 0
M  V30 59 H -0.647818 -2.451443 4.811632 0
M  V30 60 H -1.239955 -3.571242 3.553191 0
M  V30 END ATOM
M  V30 BEGIN BOND
M  V30 1 1 1 2
M  V30 2 1 2 3
M  V30 3 2 3 4
M  V30 4 1 4 5
M  V30 5 2 5 6
M  V30 6 1 6 7
M  V30 7 1 7 8
M  V30 8 1 8 9
M  V30 9 1 9 10
M  V30 10 2 10 11
M  V30 11 1 10 12
M  V30 12 1 12 13
M  V30 13 1 13 14
M  V30 14 1 14 15
M  V30 15 1 15 16
M  V30 16 1 16 17
M  V30 17 1 17 18
M  V30 18 2 18 19
M  V30 19 1 19 20
M  V30 20 2 20 21
M  V30 21 1 21 22
M  V30 22 1 22 23
M  V30 23 2 22 24
M  V30 24 1 24 25
M  V30 25 2 25 26
M  V30 26 1 16 27
M  V30 27 1 27 28
M  V30 28 1 6 29
M  V30 29 2 29 30
M  V30 30 1 30 31
M  V30 31 1 31 32
M  V30 32 1 30 3
M  V30 33 1 28 13
M  V30 34 1 26 17
M  V30 35 1 26 20
M  V30 36 1 1 33
M  V30 37 1 1 34
M  V30 38 1 1 35
M  V30 39 1 4 36
M  V30 40 1 5 37
M  V30 41 1 7 38
M  V30 42 1 7 39
M  V30 43 1 8 40
M  V30 44 1 8 41
M  V30 45 1 9 42
M  V30 46 1 12 43
M  V30 47 1 12 44
M  V30 48 1 14 45
M  V30 49 1 14 46
M  V30 50 1 15 47
M  V30 51 1 15 48
M  V30 52 1 16 49
M  V30 53 1 21 50
M  V30 54 1 24 51
M  V30 55 1 25 52
M  V30 56 1 27 53
M  V30 57 1 27 54
M  V30 58 1 28 55
M  V30 59 1 28 56
M  V30 60 1 29 57
M  V30 61 1 32 58
M  V30 62 1 32 59
M  V30 63 1 32 60
M  V30 END BOND
M  V30 END CTAB
M  END
>  <Dataset>  (787) 
ChEMBL_Kinases

>  <Ligand_Instance>  (787) 
nan

>  <PDB_ID>  (787) 
nan

>  <Standardized_SMILES>  (787) 
COc1ccc(CCNC(=O)CN2CCC(n3nnc4cc(F)ccc43)CC2)cc1OC

>  <Name>  (787) 
nan

>  <Pocket>  (787) 
nan

>  <ATP_Site>  (787) 
nan

>  <Peripheral>  (787) 
nan

>  <Num_H_Atoms_ProtBoundConf>  (787) 
nan

>  <Num_Resolved_Atoms>  (787) 
nan

>  <Num_Not_Resolved_Atoms>  (787) 
nan

$$$$
CHEMBL1305554
     RDKit          3D

  0  0  0  0  0  0  0  0  0  0999 V3000
M  V30 BEGIN CTAB
M  V30 COUNTS 45 46 0 0 0
M  V30 BEGIN ATOM
M  V30 1 C 1.730563 -7.105851 -3.304120 0
M  V30 2 C 1.351690 -5.887088 -2.529656 0
M  V30 3 O 1.483923 -4.708336 -3.341310 0
M  V30 4 C 1.163232 -3.499828 -2.745673 0
M  V30 5 O 0.787496 -3.556924 -1.550586 0
M  V30 6 N 1.232008 -2.243582 -3.384967 0
M  V30 7 C 0.931088 -0.955888 -2.877995 0
M  V30 8 C 1.082100 0.125145 -3.715519 0
M  V30 9 C 0.811423 1.410708 -3.302583 0
M  V30 10 C 0.373267 1.681501 -2.022965 0
M  V30 11 C 0.213016 0.619088 -1.162807 0
M  V30 12 N -0.237533 0.847210 0.169964 0
M  V30 13 C 0.521260 1.102529 1.337329 0
M  V30 14 O 1.763363 1.124356 1.134839 0
M  V30 15 C -0.157576 1.309055 2.613525 0
M  V30 16 C -1.513535 1.291358 2.867688 0
M  V30 17 C -2.004831 1.502418 4.119899 0
M  V30 18 O -3.390814 1.447714 4.184373 0
M  V30 19 C -3.986509 1.656456 5.451111 0
M  V30 20 C -1.125346 1.738852 5.155091 0
M  V30 21 C 0.230100 1.765058 4.946456 0
M  V30 22 O 1.000599 2.013506 6.073749 0
M  V30 23 C 2.411263 2.076314 6.046132 0
M  V30 24 C 0.720499 1.550316 3.674830 0
M  V30 25 C 0.497612 -0.645124 -1.626517 0
M  V30 26 H 0.856770 -7.399108 -3.906193 0
M  V30 27 H 2.610727 -6.819249 -3.935130 0
M  V30 28 H 1.997990 -7.924014 -2.624421 0
M  V30 29 H 0.332859 -5.981233 -2.104320 0
M  V30 30 H 2.040136 -5.702729 -1.661133 0
M  V30 31 H 1.558169 -2.346847 -4.370729 0
M  V30 32 H 1.428919 -0.038430 -4.745543 0
M  V30 33 H 0.958004 2.198491 -4.027230 0
M  V30 34 H 0.168213 2.693930 -1.723161 0
M  V30 35 H -1.279921 0.793093 0.148886 0
M  V30 36 H -2.105717 1.098157 1.989268 0
M  V30 37 H -3.920306 0.736650 6.084117 0
M  V30 38 H -5.082846 1.898653 5.343465 0
M  V30 39 H -3.537276 2.477722 6.021968 0
M  V30 40 H -1.583859 1.897952 6.121714 0
M  V30 41 H 2.771338 1.888751 7.087762 0
M  V30 42 H 2.843722 1.265359 5.415491 0
M  V30 43 H 2.725541 3.077825 5.726269 0
M  V30 44 H 1.806913 1.583344 3.571743 0
M  V30 45 H 0.351100 -1.430285 -0.902966 0
M  V30 END ATOM
M  V30 BEGIN BOND
M  V30 1 1 1 2
M  V30 2 1 2 3
M  V30 3 1 3 4
M  V30 4 2 4 5
M  V30 5 1 4 6
M  V30 6 1 6 7
M  V30 7 2 7 8
M  V30 8 1 8 9
M  V30 9 2 9 10
M  V30 10 1 10 11
M  V30 11 1 11 12
M  V30 12 1 12 13
M  V30 13 2 13 14
M  V30 14 1 13 15
M  V30 15 2 15 16
M  V30 16 1 16 17
M  V30 17 1 17 18
M  V30 18 1 18 19
M  V30 19 2 17 20
M  V30 20 1 20 21
M  V30 21 1 21 22
M  V30 22 1 22 23
M  V30 23 2 21 24
M  V30 24 2 11 25
M  V30 25 1 25 7
M  V30 26 1 24 15
M  V30 27 1 1 26
M  V30 28 1 1 27
M  V30 29 1 1 28
M  V30 30 1 2 29
M  V30 31 1 2 30
M  V30 32 1 6 31
M  V30 33 1 8 32
M  V30 34 1 9 33
M  V30 35 1 10 34
M  V30 36 1 12 35
M  V30 37 1 16 36
M  V30 38 1 19 37
M  V30 39 1 19 38
M  V30 40 1 19 39
M  V30 41 1 20 40
M  V30 42 1 23 41
M  V30 43 1 23 42
M  V30 44 1 23 43
M  V30 45 1 24 44
M  V30 46 1 25 45
M  V30 END BOND
M  V30 END CTAB
M  END
>  <Dataset>  (788) 
ChEMBL_Kinases

>  <Ligand_Instance>  (788) 
nan

>  <PDB_ID>  (788) 
nan

>  <Standardized_SMILES>  (788) 
CCOC(=O)Nc1cccc(NC(=O)c2cc(OC)cc(OC)c2)c1

>  <Name>  (788) 
nan

>  <Pocket>  (788) 
nan

>  <ATP_Site>  (788) 
nan

>  <Peripheral>  (788) 
nan

>  <Num_H_Atoms_ProtBoundConf>  (788) 
nan

>  <Num_Resolved_Atoms>  (788) 
nan

>  <Num_Not_Resolved_Atoms>  (788) 
nan

$$$$
CHEMBL1305657
     RDKit          3D

  0  0  0  0  0  0  0  0  0  0999 V3000
M  V30 BEGIN CTAB
M  V30 COUNTS 28 29 0 0 0
M  V30 BEGIN ATOM
M  V30 1 O 4.145820 -4.851105 1.129800 0
M  V30 2 C 3.238997 -4.081694 0.723357 0
M  V30 3 O 2.085275 -4.371860 1.430318 0
M  V30 4 C 3.527755 -3.084493 -0.345378 0
M  V30 5 N 2.380030 -2.283057 -0.693476 0
M  V30 6 C 1.884375 -1.541886 0.417025 0
M  V30 7 O 2.543100 -1.733183 1.474288 0
M  V30 8 C 0.730432 -0.654432 0.327695 0
M  V30 9 C 0.006013 -0.441724 -0.827335 0
M  V30 10 C -1.075583 0.416420 -0.827087 0
M  V30 11 C -1.457242 1.082728 0.332805 0
M  V30 12 C -0.719772 0.855826 1.475580 0
M  V30 13 C 0.367339 -0.000842 1.494004 0
M  V30 14 O -1.086673 1.512753 2.642894 0
M  V30 15 C -2.146301 2.445533 2.719498 0
M  V30 16 C -3.192943 2.063237 1.692177 0
M  V30 17 O -2.523682 1.962322 0.439860 0
M  V30 18 H 1.765789 -5.324930 1.616159 0
M  V30 19 H 3.804954 -3.712349 -1.241963 0
M  V30 20 H 4.425453 -2.505817 -0.090155 0
M  V30 21 H 1.912176 -2.202987 -1.622465 0
M  V30 22 H 0.299803 -0.956359 -1.725696 0
M  V30 23 H -1.662339 0.604172 -1.713262 0
M  V30 24 H 0.912015 -0.148143 2.402744 0
M  V30 25 H -2.581082 2.377698 3.757666 0
M  V30 26 H -1.820531 3.493352 2.486613 0
M  V30 27 H -4.023424 2.780543 1.649945 0
M  V30 28 H -3.534151 1.047290 1.977001 0
M  V30 END ATOM
M  V30 BEGIN BOND
M  V30 1 2 1 2
M  V30 2 1 2 3
M  V30 3 1 2 4
M  V30 4 1 4 5
M  V30 5 1 5 6
M  V30 6 2 6 7
M  V30 7 1 6 8
M  V30 8 2 8 9
M  V30 9 1 9 10
M  V30 10 2 10 11
M  V30 11 1 11 12
M  V30 12 2 12 13
M  V30 13 1 12 14
M  V30 14 1 14 15
M  V30 15 1 15 16
M  V30 16 1 16 17
M  V30 17 1 13 8
M  V30 18 1 17 11
M  V30 19 1 3 18
M  V30 20 1 4 19
M  V30 21 1 4 20
M  V30 22 1 5 21
M  V30 23 1 9 22
M  V30 24 1 10 23
M  V30 25 1 13 24
M  V30 26 1 15 25
M  V30 27 1 15 26
M  V30 28 1 16 27
M  V30 29 1 16 28
M  V30 END BOND
M  V30 END CTAB
M  END
>  <Dataset>  (789) 
ChEMBL_Kinases

>  <Ligand_Instance>  (789) 
nan

>  <PDB_ID>  (789) 
nan

>  <Standardized_SMILES>  (789) 
O=C(O)CNC(=O)c1ccc2c(c1)OCCO2

>  <Name>  (789) 
nan

>  <Pocket>  (789) 
nan

>  <ATP_Site>  (789) 
nan

>  <Peripheral>  (789) 
nan

>  <Num_H_Atoms_ProtBoundConf>  (789) 
nan

>  <Num_Resolved_Atoms>  (789) 
nan

>  <Num_Not_Resolved_Atoms>  (789) 
nan

$$$$
CHEMBL1306761
     RDKit          3D

  0  0  0  0  0  0  0  0  0  0999 V3000
M  V30 BEGIN CTAB
M  V30 COUNTS 46 48 0 0 0
M  V30 BEGIN ATOM
M  V30 1 O -1.858079 -1.219012 2.428742 0
M  V30 2 C -0.952883 -0.529129 1.842404 0
M  V30 3 C -1.458124 0.819256 1.658737 0
M  V30 4 N -0.578981 1.756337 1.004570 0
M  V30 5 C -0.474992 2.083013 -0.403986 0
M  V30 6 C 0.483794 1.281523 -1.153910 0
M  V30 7 C 1.806737 1.629960 -1.297552 0
M  V30 8 C 2.793693 0.939248 -1.987267 0
M  V30 9 C 2.387901 -0.231543 -2.595234 0
M  V30 10 F 3.351313 -0.909558 -3.269817 0
M  V30 11 C 1.074403 -0.658907 -2.502860 0
M  V30 12 C 0.142341 0.093243 -1.790079 0
M  V30 13 C 0.329050 2.501499 1.846901 0
M  V30 14 O 1.208854 3.376025 1.640222 0
M  V30 15 C 0.365944 2.319256 3.301876 0
M  V30 16 C 0.070508 2.979191 4.475177 0
M  V30 17 C 0.386650 2.130278 5.516062 0
M  V30 18 C 0.864942 0.980648 4.920995 0
M  V30 19 O 0.841030 1.122237 3.600787 0
M  V30 20 N 0.268234 -1.175068 1.517473 0
M  V30 21 C 0.641590 -2.529811 1.761195 0
M  V30 22 C -0.001968 -3.468359 0.820849 0
M  V30 23 C 0.656772 -3.736469 -0.385025 0
M  V30 24 C 0.147066 -4.598360 -1.324958 0
M  V30 25 C -1.072431 -5.230218 -1.068995 0
M  V30 26 F -1.694887 -6.102786 -1.901274 0
M  V30 27 C -1.716007 -4.964863 0.114642 0
M  V30 28 C -1.202915 -4.096104 1.063217 0
M  V30 29 H -1.687947 1.243793 2.675215 0
M  V30 30 H -2.464887 0.809778 1.155215 0
M  V30 31 H -0.176682 3.153432 -0.533352 0
M  V30 32 H -1.454028 2.007277 -0.924880 0
M  V30 33 H 2.126171 2.555735 -0.817203 0
M  V30 34 H 3.798403 1.312930 -2.029607 0
M  V30 35 H 0.843719 -1.579798 -3.004791 0
M  V30 36 H -0.882653 -0.258864 -1.728868 0
M  V30 37 H -0.324994 3.969125 4.319160 0
M  V30 38 H 0.219822 2.481892 6.518192 0
M  V30 39 H 1.186621 0.143707 5.547117 0
M  V30 40 H 0.914827 -0.508049 1.049416 0
M  V30 41 H 1.738450 -2.614247 1.631937 0
M  V30 42 H 0.436556 -2.820566 2.824719 0
M  V30 43 H 1.606779 -3.303210 -0.687216 0
M  V30 44 H 0.601254 -4.844224 -2.263571 0
M  V30 45 H -2.675151 -5.441358 0.353818 0
M  V30 46 H -1.727516 -3.915345 1.969706 0
M  V30 END ATOM
M  V30 BEGIN BOND
M  V30 1 2 1 2
M  V30 2 1 2 3
M  V30 3 1 3 4
M  V30 4 1 4 5
M  V30 5 1 5 6
M  V30 6 2 6 7
M  V30 7 1 7 8
M  V30 8 2 8 9
M  V30 9 1 9 10
M  V30 10 1 9 11
M  V30 11 2 11 12
M  V30 12 1 4 13
M  V30 13 2 13 14
M  V30 14 1 13 15
M  V30 15 2 15 16
M  V30 16 1 16 17
M  V30 17 2 17 18
M  V30 18 1 18 19
M  V30 19 1 2 20
M  V30 20 1 20 21
M  V30 21 1 21 22
M  V30 22 2 22 23
M  V30 23 1 23 24
M  V30 24 2 24 25
M  V30 25 1 25 26
M  V30 26 1 25 27
M  V30 27 2 27 28
M  V30 28 1 12 6
M  V30 29 1 19 15
M  V30 30 1 28 22
M  V30 31 1 3 29
M  V30 32 1 3 30
M  V30 33 1 5 31
M  V30 34 1 5 32
M  V30 35 1 7 33
M  V30 36 1 8 34
M  V30 37 1 11 35
M  V30 38 1 12 36
M  V30 39 1 16 37
M  V30 40 1 17 38
M  V30 41 1 18 39
M  V30 42 1 20 40
M  V30 43 1 21 41
M  V30 44 1 21 42
M  V30 45 1 23 43
M  V30 46 1 24 44
M  V30 47 1 27 45
M  V30 48 1 28 46
M  V30 END BOND
M  V30 END CTAB
M  END
>  <Dataset>  (790) 
ChEMBL_Kinases

>  <Ligand_Instance>  (790) 
nan

>  <PDB_ID>  (790) 
nan

>  <Standardized_SMILES>  (790) 
O=C(CN(Cc1ccc(F)cc1)C(=O)c1ccco1)NCc1ccc(F)cc1

>  <Name>  (790) 
nan

>  <Pocket>  (790) 
nan

>  <ATP_Site>  (790) 
nan

>  <Peripheral>  (790) 
nan

>  <Num_H_Atoms_ProtBoundConf>  (790) 
nan

>  <Num_Resolved_Atoms>  (790) 
nan

>  <Num_Not_Resolved_Atoms>  (790) 
nan

$$$$
CHEMBL1305794
     RDKit          3D

  0  0  0  0  0  0  0  0  0  0999 V3000
M  V30 BEGIN CTAB
M  V30 COUNTS 47 49 0 0 0
M  V30 BEGIN ATOM
M  V30 1 C 2.145243 -4.000306 3.134409 0
M  V30 2 N 1.643071 -3.577912 1.835141 0
M  V30 3 C 2.207198 -2.566569 1.161646 0
M  V30 4 O 3.192393 -2.007317 1.724392 0
M  V30 5 C 1.797439 -2.100344 -0.080350 0
M  V30 6 C 0.719944 -2.799563 -0.572571 0
M  V30 7 N 0.452406 -2.233884 -1.778672 0
M  V30 8 C 1.336405 -1.235268 -1.998593 0
M  V30 9 N 2.183203 -1.141195 -0.942982 0
M  V30 10 C 3.259205 -0.233098 -0.717220 0
M  V30 11 C 2.833358 1.062054 -0.090733 0
M  V30 12 O 2.818614 2.131170 -0.753304 0
M  V30 13 O 2.470320 0.935154 1.234623 0
M  V30 14 C 2.015634 1.958023 2.080822 0
M  V30 15 C 0.752634 2.549737 1.665252 0
M  V30 16 O 0.836756 1.704855 0.707859 0
M  V30 17 N -0.297461 3.459699 1.832298 0
M  V30 18 C -1.402035 3.542377 0.917288 0
M  V30 19 C -2.352032 2.421030 1.062988 0
M  V30 20 C -2.278309 1.279715 0.292160 0
M  V30 21 C -3.119518 0.178566 0.369070 0
M  V30 22 C -4.128271 0.231979 1.309105 0
M  V30 23 Cl -5.208018 -1.153098 1.425844 0
M  V30 24 C -4.275101 1.333604 2.120585 0
M  V30 25 C -3.386584 2.390407 1.973750 0
M  V30 26 N 0.118979 -3.818089 0.060339 0
M  V30 27 C -1.021559 -4.516665 -0.520928 0
M  V30 28 C 0.601956 -4.184583 1.261227 0
M  V30 29 O 0.016715 -5.141436 1.827689 0
M  V30 30 H 1.767776 -3.366165 3.970068 0
M  V30 31 H 1.790905 -5.042314 3.302804 0
M  V30 32 H 3.240060 -3.968710 3.112127 0
M  V30 33 H 1.452366 -0.556535 -2.832457 0
M  V30 34 H 4.027967 -0.750559 -0.080017 0
M  V30 35 H 3.750297 -0.038054 -1.703788 0
M  V30 36 H 2.796483 2.760613 2.245549 0
M  V30 37 H 1.890614 1.493313 3.076334 0
M  V30 38 H 0.055187 3.918198 2.726346 0
M  V30 39 H -1.938548 4.482586 1.065026 0
M  V30 40 H -1.022366 3.527096 -0.153833 0
M  V30 41 H -1.519096 1.169240 -0.473189 0
M  V30 42 H -3.006749 -0.690469 -0.265628 0
M  V30 43 H -5.071121 1.354543 2.849844 0
M  V30 44 H -3.520854 3.254509 2.628451 0
M  V30 45 H -1.130449 -5.513580 -0.053027 0
M  V30 46 H -0.979452 -4.526668 -1.621494 0
M  V30 47 H -1.925516 -3.920360 -0.212656 0
M  V30 END ATOM
M  V30 BEGIN BOND
M  V30 1 1 1 2
M  V30 2 1 2 3
M  V30 3 2 3 4
M  V30 4 1 3 5
M  V30 5 2 5 6
M  V30 6 1 6 7
M  V30 7 2 7 8
M  V30 8 1 8 9
M  V30 9 1 9 10
M  V30 10 1 10 11
M  V30 11 2 11 12
M  V30 12 1 11 13
M  V30 13 1 13 14
M  V30 14 1 14 15
M  V30 15 2 15 16
M  V30 16 1 15 17
M  V30 17 1 17 18
M  V30 18 1 18 19
M  V30 19 2 19 20
M  V30 20 1 20 21
M  V30 21 2 21 22
M  V30 22 1 22 23
M  V30 23 1 22 24
M  V30 24 2 24 25
M  V30 25 1 6 26
M  V30 26 1 26 27
M  V30 27 1 26 28
M  V30 28 2 28 29
M  V30 29 1 28 2
M  V30 30 1 9 5
M  V30 31 1 25 19
M  V30 32 1 1 30
M  V30 33 1 1 31
M  V30 34 1 1 32
M  V30 35 1 8 33
M  V30 36 1 10 34
M  V30 37 1 10 35
M  V30 38 1 14 36
M  V30 39 1 14 37
M  V30 40 1 17 38
M  V30 41 1 18 39
M  V30 42 1 18 40
M  V30 43 1 20 41
M  V30 44 1 21 42
M  V30 45 1 24 43
M  V30 46 1 25 44
M  V30 47 1 27 45
M  V30 48 1 27 46
M  V30 49 1 27 47
M  V30 END BOND
M  V30 END CTAB
M  END
>  <Dataset>  (791) 
ChEMBL_Kinases

>  <Ligand_Instance>  (791) 
nan

>  <PDB_ID>  (791) 
nan

>  <Standardized_SMILES>  (791) 
Cn1c(=O)c2c(ncn2CC(=O)OCC(=O)NCc2ccc(Cl)cc2)n(C)c1=O

>  <Name>  (791) 
nan

>  <Pocket>  (791) 
nan

>  <ATP_Site>  (791) 
nan

>  <Peripheral>  (791) 
nan

>  <Num_H_Atoms_ProtBoundConf>  (791) 
nan

>  <Num_Resolved_Atoms>  (791) 
nan

>  <Num_Not_Resolved_Atoms>  (791) 
nan

$$$$
CHEMBL1306020
     RDKit          3D

  0  0  0  0  0  0  0  0  0  0999 V3000
M  V30 BEGIN CTAB
M  V30 COUNTS 48 50 0 0 0
M  V30 BEGIN ATOM
M  V30 1 C 3.046943 -5.654083 1.710689 0
M  V30 2 C 2.217583 -4.405620 1.608728 0
M  V30 3 C 2.877558 -3.351171 0.744454 0
M  V30 4 C 4.213850 -2.935082 1.278331 0
M  V30 5 C 1.910704 -2.208204 0.632259 0
M  V30 6 O 1.415243 -1.767164 -0.437365 0
M  V30 7 N 1.445464 -1.488297 1.765947 0
M  V30 8 N 0.556329 -0.491831 1.281507 0
M  V30 9 C 0.945537 0.745509 0.922811 0
M  V30 10 C 2.368204 1.106827 1.035611 0
M  V30 11 C 2.808001 2.489285 1.409969 0
M  V30 12 C 3.001809 2.008850 0.020154 0
M  V30 13 N 0.038726 1.630880 0.469298 0
M  V30 14 C -1.266782 1.332077 0.354859 0
M  V30 15 C -2.247578 2.181880 -0.100676 0
M  V30 16 C -3.573294 1.806444 -0.194165 0
M  V30 17 O -4.529547 2.698817 -0.660138 0
M  V30 18 C -4.118206 4.000245 -1.036908 0
M  V30 19 C -3.950150 0.527015 0.181155 0
M  V30 20 O -5.302354 0.207920 0.063766 0
M  V30 21 C -5.881294 -1.016769 0.388707 0
M  V30 22 C -2.969301 -0.328494 0.638760 0
M  V30 23 C -1.649497 0.060218 0.726537 0
M  V30 24 C -0.744271 -0.879788 1.198451 0
M  V30 25 O -1.131227 -2.021291 1.524809 0
M  V30 26 H 2.758024 -6.384945 0.927123 0
M  V30 27 H 4.140778 -5.467459 1.666730 0
M  V30 28 H 2.834622 -6.136263 2.688779 0
M  V30 29 H 1.232511 -4.692788 1.190925 0
M  V30 30 H 2.055519 -4.018098 2.639417 0
M  V30 31 H 3.026876 -3.820052 -0.247003 0
M  V30 32 H 4.997741 -3.505471 0.779892 0
M  V30 33 H 4.293673 -2.983634 2.387410 0
M  V30 34 H 4.335893 -1.850806 0.988319 0
M  V30 35 H 1.791590 -1.765912 2.732819 0
M  V30 36 H 3.049461 0.320894 1.422247 0
M  V30 37 H 3.690296 2.625744 2.087234 0
M  V30 38 H 2.022674 3.277548 1.542027 0
M  V30 39 H 4.018717 1.759544 -0.375667 0
M  V30 40 H 2.340652 2.395881 -0.791370 0
M  V30 41 H -1.916306 3.174476 -0.385492 0
M  V30 42 H -5.015570 4.639173 -1.249714 0
M  V30 43 H -3.551761 4.001413 -1.992578 0
M  V30 44 H -3.479793 4.494570 -0.283611 0
M  V30 45 H -5.126611 -1.818488 0.256474 0
M  V30 46 H -6.288324 -1.061058 1.419653 0
M  V30 47 H -6.680437 -1.274480 -0.367122 0
M  V30 48 H -3.268650 -1.325175 0.930681 0
M  V30 END ATOM
M  V30 BEGIN BOND
M  V30 1 1 1 2
M  V30 2 1 2 3
M  V30 3 1 3 4
M  V30 4 1 3 5
M  V30 5 2 5 6
M  V30 6 1 5 7
M  V30 7 1 7 8
M  V30 8 1 8 9
M  V30 9 1 9 10
M  V30 10 1 10 11
M  V30 11 1 11 12
M  V30 12 2 9 13
M  V30 13 1 13 14
M  V30 14 2 14 15
M  V30 15 1 15 16
M  V30 16 1 16 17
M  V30 17 1 17 18
M  V30 18 2 16 19
M  V30 19 1 19 20
M  V30 20 1 20 21
M  V30 21 1 19 22
M  V30 22 2 22 23
M  V30 23 1 23 24
M  V30 24 2 24 25
M  V30 25 1 24 8
M  V30 26 1 12 10
M  V30 27 1 23 14
M  V30 28 1 1 26
M  V30 29 1 1 27
M  V30 30 1 1 28
M  V30 31 1 2 29
M  V30 32 1 2 30
M  V30 33 1 3 31
M  V30 34 1 4 32
M  V30 35 1 4 33
M  V30 36 1 4 34
M  V30 37 1 7 35
M  V30 38 1 10 36
M  V30 39 1 11 37
M  V30 40 1 11 38
M  V30 41 1 12 39
M  V30 42 1 12 40
M  V30 43 1 15 41
M  V30 44 1 18 42
M  V30 45 1 18 43
M  V30 46 1 18 44
M  V30 47 1 21 45
M  V30 48 1 21 46
M  V30 49 1 21 47
M  V30 50 1 22 48
M  V30 END BOND
M  V30 END CTAB
M  END
>  <Dataset>  (792) 
ChEMBL_Kinases

>  <Ligand_Instance>  (792) 
nan

>  <PDB_ID>  (792) 
nan

>  <Standardized_SMILES>  (792) 
CCC(C)C(=O)Nn1c(C2CC2)nc2cc(OC)c(OC)cc2c1=O

>  <Name>  (792) 
nan

>  <Pocket>  (792) 
nan

>  <ATP_Site>  (792) 
nan

>  <Peripheral>  (792) 
nan

>  <Num_H_Atoms_ProtBoundConf>  (792) 
nan

>  <Num_Resolved_Atoms>  (792) 
nan

>  <Num_Not_Resolved_Atoms>  (792) 
nan

$$$$
CHEMBL1306031
     RDKit          3D

  0  0  0  0  0  0  0  0  0  0999 V3000
M  V30 BEGIN CTAB
M  V30 COUNTS 43 45 0 0 0
M  V30 BEGIN ATOM
M  V30 1 C 1.509514 -5.719602 2.780425 0
M  V30 2 N 1.886692 -4.463876 2.345727 0
M  V30 3 C 2.277314 -3.164615 1.895987 0
M  V30 4 C 3.444556 -2.476312 1.723204 0
M  V30 5 N 3.335150 -1.225324 1.252994 0
M  V30 6 N 2.184253 -0.670054 0.967119 0
M  V30 7 C 2.394723 0.650511 0.490568 0
M  V30 8 C 2.601307 1.725259 1.318944 0
M  V30 9 C 2.802014 2.979424 0.743444 0
M  V30 10 C 2.794494 3.143125 -0.626531 0
M  V30 11 C 3.007952 4.468284 -1.295093 0
M  V30 12 C 2.584882 2.055125 -1.481739 0
M  V30 13 C 2.389781 0.829925 -0.880711 0
M  V30 14 C 1.004943 -1.266553 1.105070 0
M  V30 15 O 0.038930 -0.544397 0.770620 0
M  V30 16 C 1.029325 -2.570833 1.588959 0
M  V30 17 S -0.618371 -3.288544 1.743077 0
M  V30 18 C -1.899586 -2.158653 1.238098 0
M  V30 19 C -2.355940 -1.369725 2.294803 0
M  V30 20 C -3.365716 -0.426324 2.069334 0
M  V30 21 C -3.874795 -0.313899 0.794021 0
M  V30 22 C -4.954863 0.677093 0.490268 0
M  V30 23 C -3.404583 -1.106364 -0.229958 0
M  V30 24 C -2.411858 -2.043730 -0.038275 0
M  V30 25 H 1.647822 -5.855694 3.890953 0
M  V30 26 H 0.368167 -5.812077 2.618110 0
M  V30 27 H 1.978918 -6.567741 2.202400 0
M  V30 28 H 2.905292 -4.743857 2.545331 0
M  V30 29 H 4.295882 -3.059869 1.997624 0
M  V30 30 H 2.606440 1.597014 2.391203 0
M  V30 31 H 2.969414 3.864560 1.350770 0
M  V30 32 H 2.476061 4.492053 -2.281085 0
M  V30 33 H 2.629528 5.301833 -0.676577 0
M  V30 34 H 4.081573 4.606679 -1.501976 0
M  V30 35 H 2.582898 2.210892 -2.558917 0
M  V30 36 H 2.227356 -0.009602 -1.557255 0
M  V30 37 H -2.008210 -1.403172 3.309087 0
M  V30 38 H -3.794050 0.230160 2.799320 0
M  V30 39 H -4.600567 1.723030 0.666000 0
M  V30 40 H -5.278123 0.630738 -0.547569 0
M  V30 41 H -5.786425 0.476676 1.177730 0
M  V30 42 H -3.774281 -1.057176 -1.257814 0
M  V30 43 H -1.952847 -2.723770 -0.738896 0
M  V30 END ATOM
M  V30 BEGIN BOND
M  V30 1 1 1 2
M  V30 2 1 2 3
M  V30 3 1 3 4
M  V30 4 2 4 5
M  V30 5 1 5 6
M  V30 6 1 6 7
M  V30 7 2 7 8
M  V30 8 1 8 9
M  V30 9 2 9 10
M  V30 10 1 10 11
M  V30 11 1 10 12
M  V30 12 2 12 13
M  V30 13 1 6 14
M  V30 14 2 14 15
M  V30 15 1 14 16
M  V30 16 1 16 17
M  V30 17 1 17 18
M  V30 18 2 18 19
M  V30 19 1 19 20
M  V30 20 2 20 21
M  V30 21 1 21 22
M  V30 22 1 21 23
M  V30 23 2 23 24
M  V30 24 2 16 3
M  V30 25 1 24 18
M  V30 26 1 13 7
M  V30 27 1 1 25
M  V30 28 1 1 26
M  V30 29 1 1 27
M  V30 30 1 2 28
M  V30 31 1 4 29
M  V30 32 1 8 30
M  V30 33 1 9 31
M  V30 34 1 11 32
M  V30 35 1 11 33
M  V30 36 1 11 34
M  V30 37 1 12 35
M  V30 38 1 13 36
M  V30 39 1 19 37
M  V30 40 1 20 38
M  V30 41 1 22 39
M  V30 42 1 22 40
M  V30 43 1 22 41
M  V30 44 1 23 42
M  V30 45 1 24 43
M  V30 END BOND
M  V30 END CTAB
M  END
>  <Dataset>  (793) 
ChEMBL_Kinases

>  <Ligand_Instance>  (793) 
nan

>  <PDB_ID>  (793) 
nan

>  <Standardized_SMILES>  (793) 
CNc1cnn(-c2ccc(C)cc2)c(=O)c1Sc1ccc(C)cc1

>  <Name>  (793) 
nan

>  <Pocket>  (793) 
nan

>  <ATP_Site>  (793) 
nan

>  <Peripheral>  (793) 
nan

>  <Num_H_Atoms_ProtBoundConf>  (793) 
nan

>  <Num_Resolved_Atoms>  (793) 
nan

>  <Num_Not_Resolved_Atoms>  (793) 
nan

$$$$
CHEMBL1306213
     RDKit          3D

  0  0  0  0  0  0  0  0  0  0999 V3000
M  V30 BEGIN CTAB
M  V30 COUNTS 27 29 0 0 0
M  V30 BEGIN ATOM
M  V30 1 N 2.296681 -4.103419 2.442334 0
M  V30 2 C 1.663973 -3.337428 1.809627 0
M  V30 3 C 0.894341 -2.434110 1.033485 0
M  V30 4 C 0.877858 -1.104327 1.319843 0
M  V30 5 C 1.578730 -0.438021 2.371018 0
M  V30 6 C 2.471252 -0.807666 3.428111 0
M  V30 7 C 2.926792 0.178166 4.239078 0
M  V30 8 C 2.588697 1.504000 4.112690 0
M  V30 9 S 1.445401 1.360352 2.615957 0
M  V30 10 C 0.086981 -0.371167 0.477106 0
M  V30 11 C -0.620813 -0.902401 -0.551631 0
M  V30 12 C -1.444395 -0.094065 -1.418908 0
M  V30 13 C -1.652212 1.237939 -1.376987 0
M  V30 14 C -2.456787 1.877198 -2.259045 0
M  V30 15 C -3.069806 0.974851 -3.252289 0
M  V30 16 S -2.370770 -0.709466 -2.746911 0
M  V30 17 N -0.554796 -2.216622 -0.770991 0
M  V30 18 C 0.192613 -3.017949 0.000356 0
M  V30 19 O 0.214313 -4.355255 -0.281044 0
M  V30 20 H 2.761834 -1.817525 3.566709 0
M  V30 21 H 3.598523 0.045785 5.068358 0
M  V30 22 H 2.728224 2.403844 4.499265 0
M  V30 23 H -0.022875 0.706798 0.585725 0
M  V30 24 H -1.169626 1.853038 -0.617103 0
M  V30 25 H -2.703866 2.922027 -2.333774 0
M  V30 26 H -3.798014 1.424534 -4.080429 0
M  V30 27 H -0.616593 -4.923474 -0.402315 0
M  V30 END ATOM
M  V30 BEGIN BOND
M  V30 1 3 1 2
M  V30 2 1 2 3
M  V30 3 2 3 4
M  V30 4 1 4 5
M  V30 5 2 5 6
M  V30 6 1 6 7
M  V30 7 2 7 8
M  V30 8 1 8 9
M  V30 9 1 4 10
M  V30 10 2 10 11
M  V30 11 1 11 12
M  V30 12 2 12 13
M  V30 13 1 13 14
M  V30 14 2 14 15
M  V30 15 1 15 16
M  V30 16 1 11 17
M  V30 17 2 17 18
M  V30 18 1 18 19
M  V30 19 1 18 3
M  V30 20 1 9 5
M  V30 21 1 16 12
M  V30 22 1 6 20
M  V30 23 1 7 21
M  V30 24 1 8 22
M  V30 25 1 10 23
M  V30 26 1 13 24
M  V30 27 1 14 25
M  V30 28 1 15 26
M  V30 29 1 19 27
M  V30 END BOND
M  V30 END CTAB
M  END
>  <Dataset>  (794) 
ChEMBL_Kinases

>  <Ligand_Instance>  (794) 
nan

>  <PDB_ID>  (794) 
nan

>  <Standardized_SMILES>  (794) 
N#Cc1c(-c2cccs2)cc(-c2cccs2)nc1O

>  <Name>  (794) 
nan

>  <Pocket>  (794) 
nan

>  <ATP_Site>  (794) 
nan

>  <Peripheral>  (794) 
nan

>  <Num_H_Atoms_ProtBoundConf>  (794) 
nan

>  <Num_Resolved_Atoms>  (794) 
nan

>  <Num_Not_Resolved_Atoms>  (794) 
nan

$$$$
CHEMBL1306250
     RDKit          3D

  0  0  0  0  0  0  0  0  0  0999 V3000
M  V30 BEGIN CTAB
M  V30 COUNTS 46 48 0 0 0
M  V30 BEGIN ATOM
M  V30 1 C -0.109043 -6.037301 1.546286 0
M  V30 2 C 1.111688 -5.270599 1.089271 0
M  V30 3 O 0.794855 -3.912062 0.849356 0
M  V30 4 C -0.147308 -3.486255 -0.084991 0
M  V30 5 O -0.728714 -4.368423 -0.731512 0
M  V30 6 C -0.267487 -2.033074 -0.118714 0
M  V30 7 C 0.432634 -1.133565 -0.894601 0
M  V30 8 C 1.467028 -1.599571 -1.854565 0
M  V30 9 N 0.034440 0.146060 -0.639273 0
M  V30 10 C 0.632995 1.246901 -1.339454 0
M  V30 11 C 1.852370 1.820514 -0.677345 0
M  V30 12 O 2.354209 2.877540 -1.435329 0
M  V30 13 C 1.629634 2.217778 0.722444 0
M  V30 14 C 1.030592 3.428285 1.003307 0
M  V30 15 C 0.837675 3.767637 2.329207 0
M  V30 16 C 1.233401 2.918642 3.351677 0
M  V30 17 C 1.828334 1.715467 3.096828 0
M  V30 18 C 2.026647 1.365656 1.757020 0
M  V30 19 C -0.918857 0.028163 0.302076 0
M  V30 20 C -1.632225 1.023411 0.892435 0
M  V30 21 C -2.574181 0.677271 1.845326 0
M  V30 22 C -2.810141 -0.619837 2.210302 0
M  V30 23 O -3.722945 -1.067342 3.145478 0
M  V30 24 C -2.079591 -1.619394 1.603464 0
M  V30 25 C -1.136807 -1.288532 0.651328 0
M  V30 26 H -0.995610 -5.384526 1.363466 0
M  V30 27 H -0.149292 -6.994608 1.023093 0
M  V30 28 H -0.105137 -6.199956 2.657932 0
M  V30 29 H 1.818826 -5.257123 1.956367 0
M  V30 30 H 1.658146 -5.753264 0.259250 0
M  V30 31 H 1.126623 -2.518337 -2.396133 0
M  V30 32 H 1.658829 -0.861919 -2.665466 0
M  V30 33 H 2.427793 -1.846341 -1.395738 0
M  V30 34 H -0.169554 2.041993 -1.382828 0
M  V30 35 H 0.800883 0.971868 -2.389867 0
M  V30 36 H 2.641496 1.017079 -0.760124 0
M  V30 37 H 1.712089 3.625767 -1.520663 0
M  V30 38 H 0.705433 4.122717 0.237833 0
M  V30 39 H 0.382731 4.681638 2.671085 0
M  V30 40 H 1.107676 3.131593 4.417413 0
M  V30 41 H 2.170718 0.987999 3.809211 0
M  V30 42 H 2.494821 0.421498 1.492136 0
M  V30 43 H -1.485840 2.055694 0.640212 0
M  V30 44 H -3.185843 1.406104 2.364607 0
M  V30 45 H -4.684960 -0.804793 3.072878 0
M  V30 46 H -2.180734 -2.686922 1.813219 0
M  V30 END ATOM
M  V30 BEGIN BOND
M  V30 1 1 1 2
M  V30 2 1 2 3
M  V30 3 1 3 4
M  V30 4 2 4 5
M  V30 5 1 4 6
M  V30 6 2 6 7
M  V30 7 1 7 8
M  V30 8 1 7 9
M  V30 9 1 9 10
M  V30 10 1 10 11
M  V30 11 1 11 12
M  V30 12 1 11 13
M  V30 13 2 13 14
M  V30 14 1 14 15
M  V30 15 2 15 16
M  V30 16 1 16 17
M  V30 17 2 17 18
M  V30 18 1 9 19
M  V30 19 2 19 20
M  V30 20 1 20 21
M  V30 21 2 21 22
M  V30 22 1 22 23
M  V30 23 1 22 24
M  V30 24 2 24 25
M  V30 25 1 25 6
M  V30 26 1 18 13
M  V30 27 1 25 19
M  V30 28 1 1 26
M  V30 29 1 1 27
M  V30 30 1 1 28
M  V30 31 1 2 29
M  V30 32 1 2 30
M  V30 33 1 8 31
M  V30 34 1 8 32
M  V30 35 1 8 33
M  V30 36 1 10 34
M  V30 37 1 10 35
M  V30 38 1 11 36
M  V30 39 1 12 37
M  V30 40 1 14 38
M  V30 41 1 15 39
M  V30 42 1 16 40
M  V30 43 1 17 41
M  V30 44 1 18 42
M  V30 45 1 20 43
M  V30 46 1 21 44
M  V30 47 1 23 45
M  V30 48 1 24 46
M  V30 END BOND
M  V30 END CTAB
M  END
>  <Dataset>  (795) 
ChEMBL_Kinases

>  <Ligand_Instance>  (795) 
nan

>  <PDB_ID>  (795) 
nan

>  <Standardized_SMILES>  (795) 
CCOC(=O)c1c(C)n(CC(O)c2ccccc2)c2ccc(O)cc12

>  <Name>  (795) 
nan

>  <Pocket>  (795) 
nan

>  <ATP_Site>  (795) 
nan

>  <Peripheral>  (795) 
nan

>  <Num_H_Atoms_ProtBoundConf>  (795) 
nan

>  <Num_Resolved_Atoms>  (795) 
nan

>  <Num_Not_Resolved_Atoms>  (795) 
nan

$$$$
CHEMBL1306266
     RDKit          3D

  0  0  0  0  0  0  0  0  0  0999 V3000
M  V30 BEGIN CTAB
M  V30 COUNTS 36 38 0 0 0
M  V30 BEGIN ATOM
M  V30 1 C 0.783253 -2.822966 3.657013 0
M  V30 2 C 2.223415 -2.807613 3.298239 0
M  V30 3 C 3.090089 -3.723771 3.899277 0
M  V30 4 C 4.427675 -3.703534 3.560781 0
M  V30 5 Cl 5.501164 -4.858819 4.323346 0
M  V30 6 C 4.934092 -2.800725 2.642385 0
M  V30 7 C 4.031863 -1.921757 2.082702 0
M  V30 8 C 2.680774 -1.878357 2.368257 0
M  V30 9 O 1.801088 -0.988921 1.793929 0
M  V30 10 C 2.139433 -0.011730 0.850152 0
M  V30 11 C 0.909556 0.742220 0.479375 0
M  V30 12 N 0.395298 1.858680 1.046108 0
M  V30 13 N -0.729789 2.213585 0.405292 0
M  V30 14 C -0.942736 1.321959 -0.579745 0
M  V30 15 C -2.056534 1.325127 -1.527828 0
M  V30 16 C -3.006547 2.322938 -1.440097 0
M  V30 17 C -4.048666 2.287491 -2.361799 0
M  V30 18 C -4.131145 1.290253 -3.330568 0
M  V30 19 O -5.128268 1.188209 -4.273845 0
M  V30 20 C -3.156411 0.288778 -3.400492 0
M  V30 21 C -2.127759 0.331370 -2.483850 0
M  V30 22 N 0.062986 0.429881 -0.524754 0
M  V30 23 H 0.338709 -1.798187 3.679887 0
M  V30 24 H 0.700823 -3.242503 4.699394 0
M  V30 25 H 0.253145 -3.505516 2.964541 0
M  V30 26 H 2.705454 -4.445982 4.629056 0
M  V30 27 H 5.978111 -2.764699 2.360319 0
M  V30 28 H 4.364087 -1.191663 1.358531 0
M  V30 29 H 2.902582 0.704958 1.261343 0
M  V30 30 H 2.553440 -0.527435 -0.045884 0
M  V30 31 H -1.334008 3.047587 0.640760 0
M  V30 32 H -2.974814 3.111708 -0.702454 0
M  V30 33 H -4.838102 3.007493 -2.387207 0
M  V30 34 H -5.581897 0.322117 -4.532897 0
M  V30 35 H -3.154759 -0.515405 -4.123520 0
M  V30 36 H -1.351937 -0.411643 -2.490764 0
M  V30 END ATOM
M  V30 BEGIN BOND
M  V30 1 1 1 2
M  V30 2 2 2 3
M  V30 3 1 3 4
M  V30 4 1 4 5
M  V30 5 2 4 6
M  V30 6 1 6 7
M  V30 7 2 7 8
M  V30 8 1 8 9
M  V30 9 1 9 10
M  V30 10 1 10 11
M  V30 11 2 11 12
M  V30 12 1 12 13
M  V30 13 1 13 14
M  V30 14 1 14 15
M  V30 15 2 15 16
M  V30 16 1 16 17
M  V30 17 2 17 18
M  V30 18 1 18 19
M  V30 19 1 18 20
M  V30 20 2 20 21
M  V30 21 2 14 22
M  V30 22 1 8 2
M  V30 23 1 22 11
M  V30 24 1 21 15
M  V30 25 1 1 23
M  V30 26 1 1 24
M  V30 27 1 1 25
M  V30 28 1 3 26
M  V30 29 1 6 27
M  V30 30 1 7 28
M  V30 31 1 10 29
M  V30 32 1 10 30
M  V30 33 1 13 31
M  V30 34 1 16 32
M  V30 35 1 17 33
M  V30 36 1 19 34
M  V30 37 1 20 35
M  V30 38 1 21 36
M  V30 END BOND
M  V30 END CTAB
M  END
>  <Dataset>  (796) 
ChEMBL_Kinases

>  <Ligand_Instance>  (796) 
nan

>  <PDB_ID>  (796) 
nan

>  <Standardized_SMILES>  (796) 
Cc1cc(Cl)ccc1OCc1n[nH]c(-c2ccc(O)cc2)n1

>  <Name>  (796) 
nan

>  <Pocket>  (796) 
nan

>  <ATP_Site>  (796) 
nan

>  <Peripheral>  (796) 
nan

>  <Num_H_Atoms_ProtBoundConf>  (796) 
nan

>  <Num_Resolved_Atoms>  (796) 
nan

>  <Num_Not_Resolved_Atoms>  (796) 
nan

$$$$
CHEMBL1306408
     RDKit          3D

  0  0  0  0  0  0  0  0  0  0999 V3000
M  V30 BEGIN CTAB
M  V30 COUNTS 40 42 0 0 0
M  V30 BEGIN ATOM
M  V30 1 C -0.623875 -4.675667 2.083070 0
M  V30 2 C 0.291022 -3.701744 2.791001 0
M  V30 3 N 0.158126 -2.391579 2.192283 0
M  V30 4 C 0.954502 -2.049456 1.164733 0
M  V30 5 C 0.859910 -0.789997 0.554451 0
M  V30 6 C 1.782076 -0.578285 -0.531522 0
M  V30 7 O 2.629682 -1.452967 -0.927380 0
M  V30 8 N 1.929734 0.576235 -1.336642 0
M  V30 9 C 2.934670 0.564635 -2.383641 0
M  V30 10 C 2.858765 1.903904 -3.058547 0
M  V30 11 C 2.156561 2.354547 -4.091339 0
M  V30 12 C 2.261158 3.629612 -4.523483 0
M  V30 13 C 3.147490 4.430460 -3.817837 0
M  V30 14 S 3.820606 3.246122 -2.499338 0
M  V30 15 C -0.102774 0.032992 1.100045 0
M  V30 16 O -0.186751 1.142093 0.563333 0
M  V30 17 C -0.897953 -0.336740 2.141890 0
M  V30 18 C -1.818238 0.592327 2.583253 0
M  V30 19 C -2.638344 0.217792 3.653906 0
M  V30 20 C -2.507409 -1.050240 4.230917 0
M  V30 21 C -3.389385 -1.409620 5.357871 0
M  V30 22 N -1.577222 -1.923388 3.747677 0
M  V30 23 C -0.779107 -1.583692 2.719701 0
M  V30 24 H -0.213203 -5.721604 2.144544 0
M  V30 25 H -1.621028 -4.740846 2.555840 0
M  V30 26 H -0.675802 -4.426639 1.005679 0
M  V30 27 H 1.342273 -4.074953 2.725652 0
M  V30 28 H 0.044731 -3.641457 3.884428 0
M  V30 29 H 1.676447 -2.797213 0.829129 0
M  V30 30 H 1.308241 1.389251 -1.143048 0
M  V30 31 H 2.688918 -0.164748 -3.184115 0
M  V30 32 H 3.966971 0.421235 -1.994285 0
M  V30 33 H 1.485535 1.621616 -4.570271 0
M  V30 34 H 1.714626 4.049507 -5.357514 0
M  V30 35 H 3.346010 5.549619 -4.070091 0
M  V30 36 H -1.918855 1.589815 2.126853 0
M  V30 37 H -3.358642 0.944752 3.999476 0
M  V30 38 H -4.368560 -1.820639 5.025682 0
M  V30 39 H -2.901426 -2.201534 5.962703 0
M  V30 40 H -3.575999 -0.571952 6.050765 0
M  V30 END ATOM
M  V30 BEGIN BOND
M  V30 1 1 1 2
M  V30 2 1 2 3
M  V30 3 1 3 4
M  V30 4 2 4 5
M  V30 5 1 5 6
M  V30 6 2 6 7
M  V30 7 1 6 8
M  V30 8 1 8 9
M  V30 9 1 9 10
M  V30 10 2 10 11
M  V30 11 1 11 12
M  V30 12 2 12 13
M  V30 13 1 13 14
M  V30 14 1 5 15
M  V30 15 2 15 16
M  V30 16 1 15 17
M  V30 17 2 17 18
M  V30 18 1 18 19
M  V30 19 2 19 20
M  V30 20 1 20 21
M  V30 21 1 20 22
M  V30 22 2 22 23
M  V30 23 1 23 3
M  V30 24 1 14 10
M  V30 25 1 23 17
M  V30 26 1 1 24
M  V30 27 1 1 25
M  V30 28 1 1 26
M  V30 29 1 2 27
M  V30 30 1 2 28
M  V30 31 1 4 29
M  V30 32 1 8 30
M  V30 33 1 9 31
M  V30 34 1 9 32
M  V30 35 1 11 33
M  V30 36 1 12 34
M  V30 37 1 13 35
M  V30 38 1 18 36
M  V30 39 1 19 37
M  V30 40 1 21 38
M  V30 41 1 21 39
M  V30 42 1 21 40
M  V30 END BOND
M  V30 END CTAB
M  END
>  <Dataset>  (797) 
ChEMBL_Kinases

>  <Ligand_Instance>  (797) 
nan

>  <PDB_ID>  (797) 
nan

>  <Standardized_SMILES>  (797) 
CCn1cc(C(=O)NCc2cccs2)c(=O)c2ccc(C)nc21

>  <Name>  (797) 
nan

>  <Pocket>  (797) 
nan

>  <ATP_Site>  (797) 
nan

>  <Peripheral>  (797) 
nan

>  <Num_H_Atoms_ProtBoundConf>  (797) 
nan

>  <Num_Resolved_Atoms>  (797) 
nan

>  <Num_Not_Resolved_Atoms>  (797) 
nan

$$$$
CHEMBL1306620
     RDKit          3D

  0  0  0  0  0  0  0  0  0  0999 V3000
M  V30 BEGIN CTAB
M  V30 COUNTS 62 65 0 0 0
M  V30 BEGIN ATOM
M  V30 1 C -3.199781 -1.747411 -5.648386 0
M  V30 2 C -1.948615 -2.034183 -4.900268 0
M  V30 3 C -1.338242 -3.246435 -5.010288 0
M  V30 4 C -0.179058 -3.595720 -4.354187 0
M  V30 5 C 0.390852 -2.623513 -3.524923 0
M  V30 6 S 1.852118 -2.878645 -2.615704 0
M  V30 7 O 2.646755 -1.591871 -2.538603 0
M  V30 8 O 2.745643 -3.864184 -3.324020 0
M  V30 9 N 1.534324 -3.517937 -1.044718 0
M  V30 10 C 0.742868 -2.644478 -0.241064 0
M  V30 11 C 0.440738 -3.169333 1.147818 0
M  V30 12 C 1.656199 -3.425826 1.958913 0
M  V30 13 C 2.353059 -2.205166 2.457539 0
M  V30 14 C 1.429186 -1.151552 3.017221 0
M  V30 15 C 1.724312 0.109774 2.343892 0
M  V30 16 O 2.644246 0.091842 1.463021 0
M  V30 17 N 1.249322 1.424140 2.396274 0
M  V30 18 C 1.878774 2.374717 1.495458 0
M  V30 19 C 0.902194 2.950627 0.510143 0
M  V30 20 C -0.530028 2.826712 0.880423 0
M  V30 21 C -0.887946 2.513880 2.280092 0
M  V30 22 C 0.211009 2.102692 3.188437 0
M  V30 23 O -1.105782 1.866969 0.033495 0
M  V30 24 C -1.413915 2.570519 -1.103815 0
M  V30 25 C -1.987507 3.835928 -0.503126 0
M  V30 26 O -1.149417 4.053750 0.559717 0
M  V30 27 C -0.006397 -1.567459 3.028402 0
M  V30 28 C -0.528162 -2.215663 1.799126 0
M  V30 29 C -0.205182 -1.367890 -3.385659 0
M  V30 30 C -1.372463 -1.083730 -4.076269 0
M  V30 31 H -3.213308 -2.384015 -6.552688 0
M  V30 32 H -4.104492 -1.874449 -5.017377 0
M  V30 33 H -3.233079 -0.678887 -5.991025 0
M  V30 34 H -1.764522 -4.025204 -5.653387 0
M  V30 35 H 0.326232 -4.554215 -4.425337 0
M  V30 36 H 2.480546 -3.617155 -0.587291 0
M  V30 37 H 1.171971 -1.620325 -0.123054 0
M  V30 38 H -0.214622 -2.488673 -0.779868 0
M  V30 39 H -0.076527 -4.140258 0.991948 0
M  V30 40 H 1.328704 -4.035183 2.849107 0
M  V30 41 H 2.360097 -4.043088 1.403296 0
M  V30 42 H 3.115047 -2.546256 3.206488 0
M  V30 43 H 2.964182 -1.818582 1.615339 0
M  V30 44 H 1.714227 -1.014275 4.086126 0
M  V30 45 H 2.269281 3.203639 2.156637 0
M  V30 46 H 2.784528 1.972674 1.007032 0
M  V30 47 H 1.205627 4.005656 0.338474 0
M  V30 48 H 1.135356 2.441251 -0.457552 0
M  V30 49 H -1.434224 3.354694 2.802725 0
M  V30 50 H -1.647770 1.680835 2.327824 0
M  V30 51 H -0.138504 1.525591 4.038371 0
M  V30 52 H 0.643662 3.049446 3.625109 0
M  V30 53 H -0.568750 2.859630 -1.737271 0
M  V30 54 H -2.160661 2.068379 -1.750803 0
M  V30 55 H -2.022299 4.669922 -1.225243 0
M  V30 56 H -3.004849 3.568509 -0.118280 0
M  V30 57 H -0.629220 -0.678314 3.229378 0
M  V30 58 H -0.174741 -2.241517 3.914261 0
M  V30 59 H -0.899250 -1.456291 1.079769 0
M  V30 60 H -1.459425 -2.759657 2.117842 0
M  V30 61 H 0.189869 -0.582647 -2.761483 0
M  V30 62 H -1.846929 -0.109408 -3.976537 0
M  V30 END ATOM
M  V30 BEGIN BOND
M  V30 1 1 1 2
M  V30 2 2 2 3
M  V30 3 1 3 4
M  V30 4 2 4 5
M  V30 5 1 5 6
M  V30 6 2 6 7
M  V30 7 2 6 8
M  V30 8 1 6 9
M  V30 9 1 9 10
M  V30 10 1 10 11
M  V30 11 1 11 12
M  V30 12 1 12 13
M  V30 13 1 13 14
M  V30 14 1 14 15
M  V30 15 2 15 16
M  V30 16 1 15 17
M  V30 17 1 17 18
M  V30 18 1 18 19
M  V30 19 1 19 20
M  V30 20 1 20 21
M  V30 21 1 21 22
M  V30 22 1 20 23
M  V30 23 1 23 24
M  V30 24 1 24 25
M  V30 25 1 25 26
M  V30 26 1 14 27
M  V30 27 1 27 28
M  V30 28 1 5 29
M  V30 29 2 29 30
M  V30 30 1 30 2
M  V30 31 1 28 11
M  V30 32 1 22 17
M  V30 33 1 26 20
M  V30 34 1 1 31
M  V30 35 1 1 32
M  V30 36 1 1 33
M  V30 37 1 3 34
M  V30 38 1 4 35
M  V30 39 1 9 36
M  V30 40 1 10 37
M  V30 41 1 10 38
M  V30 42 1 11 39
M  V30 43 1 12 40
M  V30 44 1 12 41
M  V30 45 1 13 42
M  V30 46 1 13 43
M  V30 47 1 14 44
M  V30 48 1 18 45
M  V30 49 1 18 46
M  V30 50 1 19 47
M  V30 51 1 19 48
M  V30 52 1 21 49
M  V30 53 1 21 50
M  V30 54 1 22 51
M  V30 55 1 22 52
M  V30 56 1 24 53
M  V30 57 1 24 54
M  V30 58 1 25 55
M  V30 59 1 25 56
M  V30 60 1 27 57
M  V30 61 1 27 58
M  V30 62 1 28 59
M  V30 63 1 28 60
M  V30 64 1 29 61
M  V30 65 1 30 62
M  V30 END BOND
M  V30 END CTAB
M  END
>  <Dataset>  (798) 
ChEMBL_Kinases

>  <Ligand_Instance>  (798) 
nan

>  <PDB_ID>  (798) 
nan

>  <Standardized_SMILES>  (798) 
Cc1ccc(S(=O)(=O)NCC2CCC(C(=O)N3CCC4(CC3)OCCO4)CC2)cc1

>  <Name>  (798) 
nan

>  <Pocket>  (798) 
nan

>  <ATP_Site>  (798) 
nan

>  <Peripheral>  (798) 
nan

>  <Num_H_Atoms_ProtBoundConf>  (798) 
nan

>  <Num_Resolved_Atoms>  (798) 
nan

>  <Num_Not_Resolved_Atoms>  (798) 
nan

$$$$
CHEMBL1305740
     RDKit          3D

  0  0  0  0  0  0  0  0  0  0999 V3000
M  V30 BEGIN CTAB
M  V30 COUNTS 44 47 0 0 0
M  V30 BEGIN ATOM
M  V30 1 C 1.326038 -5.040303 -1.491973 0
M  V30 2 C 0.985737 -3.624601 -1.840589 0
M  V30 3 C 0.082276 -3.432705 -2.855107 0
M  V30 4 C -0.320540 -2.202310 -3.278893 0
M  V30 5 C -1.305116 -1.973532 -4.384026 0
M  V30 6 C 0.229971 -1.098783 -2.630278 0
M  V30 7 C 1.140504 -1.236471 -1.606426 0
M  V30 8 N 1.733734 -0.145831 -0.909879 0
M  V30 9 C 2.873985 0.686213 -1.005456 0
M  V30 10 O 3.743733 0.589440 -1.908216 0
M  V30 11 C 3.031549 1.731731 0.037086 0
M  V30 12 N 1.951741 1.719328 1.007555 0
M  V30 13 N 0.841333 2.427856 0.859539 0
M  V30 14 C -0.161195 2.405210 1.778227 0
M  V30 15 N -0.083709 1.651539 2.907434 0
M  V30 16 C 1.054491 0.922598 3.063409 0
M  V30 17 C 0.893905 0.256847 4.262522 0
M  V30 18 C -0.323573 0.565981 4.843324 0
M  V30 19 C -0.989830 0.208341 5.998150 0
M  V30 20 C -2.242816 0.696998 6.325010 0
M  V30 21 C -2.821041 1.586828 5.420389 0
M  V30 22 C -2.162225 1.947718 4.266944 0
M  V30 23 C -0.911722 1.456053 3.947050 0
M  V30 24 C 2.065701 0.951976 2.126384 0
M  V30 25 O 3.098342 0.259962 2.316625 0
M  V30 26 C 1.530045 -2.515818 -1.198841 0
M  V30 27 H 1.896724 -5.530941 -2.282843 0
M  V30 28 H 1.846454 -5.097182 -0.503047 0
M  V30 29 H 0.387318 -5.609334 -1.350664 0
M  V30 30 H -0.354058 -4.292150 -3.368780 0
M  V30 31 H -1.970047 -1.143656 -4.009342 0
M  V30 32 H -1.871806 -2.887520 -4.564133 0
M  V30 33 H -0.757178 -1.595462 -5.276685 0
M  V30 34 H -0.032303 -0.080229 -2.900784 0
M  V30 35 H 1.013104 -0.047018 -0.140776 0
M  V30 36 H 2.940873 2.712850 -0.495980 0
M  V30 37 H 4.024401 1.700945 0.525729 0
M  V30 38 H -1.067992 2.973416 1.673898 0
M  V30 39 H 1.581667 -0.427335 4.743975 0
M  V30 40 H -0.525491 -0.482053 6.686170 0
M  V30 41 H -2.760656 0.414134 7.230370 0
M  V30 42 H -3.800733 1.976538 5.663818 0
M  V30 43 H -2.656615 2.644190 3.595731 0
M  V30 44 H 2.242905 -2.694277 -0.399031 0
M  V30 END ATOM
M  V30 BEGIN BOND
M  V30 1 1 1 2
M  V30 2 2 2 3
M  V30 3 1 3 4
M  V30 4 1 4 5
M  V30 5 2 4 6
M  V30 6 1 6 7
M  V30 7 1 7 8
M  V30 8 1 8 9
M  V30 9 2 9 10
M  V30 10 1 9 11
M  V30 11 1 11 12
M  V30 12 1 12 13
M  V30 13 2 13 14
M  V30 14 1 14 15
M  V30 15 1 15 16
M  V30 16 2 16 17
M  V30 17 1 17 18
M  V30 18 2 18 19
M  V30 19 1 19 20
M  V30 20 2 20 21
M  V30 21 1 21 22
M  V30 22 2 22 23
M  V30 23 1 16 24
M  V30 24 2 24 25
M  V30 25 2 7 26
M  V30 26 1 26 2
M  V30 27 1 24 12
M  V30 28 1 23 15
M  V30 29 1 23 18
M  V30 30 1 1 27
M  V30 31 1 1 28
M  V30 32 1 1 29
M  V30 33 1 3 30
M  V30 34 1 5 31
M  V30 35 1 5 32
M  V30 36 1 5 33
M  V30 37 1 6 34
M  V30 38 1 8 35
M  V30 39 1 11 36
M  V30 40 1 11 37
M  V30 41 1 14 38
M  V30 42 1 17 39
M  V30 43 1 19 40
M  V30 44 1 20 41
M  V30 45 1 21 42
M  V30 46 1 22 43
M  V30 47 1 26 44
M  V30 END BOND
M  V30 END CTAB
M  END
>  <Dataset>  (799) 
ChEMBL_Kinases

>  <Ligand_Instance>  (799) 
nan

>  <PDB_ID>  (799) 
nan

>  <Standardized_SMILES>  (799) 
Cc1cc(C)cc(NC(=O)Cn2ncn3c(cc4ccccc43)c2=O)c1

>  <Name>  (799) 
nan

>  <Pocket>  (799) 
nan

>  <ATP_Site>  (799) 
nan

>  <Peripheral>  (799) 
nan

>  <Num_H_Atoms_ProtBoundConf>  (799) 
nan

>  <Num_Resolved_Atoms>  (799) 
nan

>  <Num_Not_Resolved_Atoms>  (799) 
nan

$$$$
CHEMBL1311222
     RDKit          3D

  0  0  0  0  0  0  0  0  0  0999 V3000
M  V30 BEGIN CTAB
M  V30 COUNTS 44 46 0 0 0
M  V30 BEGIN ATOM
M  V30 1 C 0.179858 -5.051294 1.941778 0
M  V30 2 O -0.681121 -4.935284 0.801551 0
M  V30 3 C -0.497475 -3.924758 -0.103113 0
M  V30 4 C 0.453725 -2.908449 -0.084466 0
M  V30 5 C 0.603969 -1.913238 -1.019295 0
M  V30 6 C 1.657609 -0.885935 -0.848481 0
M  V30 7 N 1.195727 0.321629 -0.202981 0
M  V30 8 C 0.791512 1.316074 -1.132316 0
M  V30 9 O 0.790426 1.203645 -2.373763 0
M  V30 10 C 0.282276 2.699431 -1.015581 0
M  V30 11 C -0.840866 3.445217 -1.266640 0
M  V30 12 C -0.529193 4.752523 -0.858874 0
M  V30 13 C 0.781778 4.704914 -0.381991 0
M  V30 14 O 1.220708 3.475068 -0.493399 0
M  V30 15 C 1.147655 0.448692 1.206316 0
M  V30 16 C 1.805430 -0.443435 2.025926 0
M  V30 17 C 1.784298 -0.381391 3.397800 0
M  V30 18 C 1.077082 0.614802 4.041017 0
M  V30 19 C 1.029804 0.719855 5.522594 0
M  V30 20 C 0.395710 1.540635 3.281475 0
M  V30 21 C 0.460802 1.416693 1.909341 0
M  V30 22 C -0.302587 -1.981402 -2.052254 0
M  V30 23 C -1.273203 -2.956134 -2.140495 0
M  V30 24 C -1.381656 -3.926668 -1.180094 0
M  V30 25 O -2.385832 -4.874553 -1.341227 0
M  V30 26 H -0.171579 -5.768990 2.685335 0
M  V30 27 H 1.189122 -5.387193 1.608328 0
M  V30 28 H 0.282456 -4.071257 2.438670 0
M  V30 29 H 1.077968 -3.029307 0.809683 0
M  V30 30 H 2.504842 -1.316963 -0.291944 0
M  V30 31 H 2.051264 -0.682790 -1.871733 0
M  V30 32 H -1.650847 2.870034 -1.695188 0
M  V30 33 H -1.339923 5.470885 -0.999895 0
M  V30 34 H 1.158270 5.648016 -0.032400 0
M  V30 35 H 2.400223 -1.263087 1.688693 0
M  V30 36 H 2.286096 -1.057161 4.071624 0
M  V30 37 H 1.048556 -0.278125 6.026747 0
M  V30 38 H 0.117231 1.206905 5.858277 0
M  V30 39 H 1.950990 1.230469 5.887715 0
M  V30 40 H -0.166797 2.326513 3.760159 0
M  V30 41 H -0.102978 2.151760 1.378699 0
M  V30 42 H -0.252685 -1.240899 -2.835553 0
M  V30 43 H -1.950315 -2.916187 -3.011366 0
M  V30 44 H -2.800445 -5.040081 -2.231094 0
M  V30 END ATOM
M  V30 BEGIN BOND
M  V30 1 1 1 2
M  V30 2 1 2 3
M  V30 3 2 3 4
M  V30 4 1 4 5
M  V30 5 1 5 6
M  V30 6 1 6 7
M  V30 7 1 7 8
M  V30 8 2 8 9
M  V30 9 1 8 10
M  V30 10 2 10 11
M  V30 11 1 11 12
M  V30 12 2 12 13
M  V30 13 1 13 14
M  V30 14 1 7 15
M  V30 15 2 15 16
M  V30 16 1 16 17
M  V30 17 2 17 18
M  V30 18 1 18 19
M  V30 19 1 18 20
M  V30 20 2 20 21
M  V30 21 2 5 22
M  V30 22 1 22 23
M  V30 23 2 23 24
M  V30 24 1 24 25
M  V30 25 1 24 3
M  V30 26 1 14 10
M  V30 27 1 21 15
M  V30 28 1 1 26
M  V30 29 1 1 27
M  V30 30 1 1 28
M  V30 31 1 4 29
M  V30 32 1 6 30
M  V30 33 1 6 31
M  V30 34 1 11 32
M  V30 35 1 12 33
M  V30 36 1 13 34
M  V30 37 1 16 35
M  V30 38 1 17 36
M  V30 39 1 19 37
M  V30 40 1 19 38
M  V30 41 1 19 39
M  V30 42 1 20 40
M  V30 43 1 21 41
M  V30 44 1 22 42
M  V30 45 1 23 43
M  V30 46 1 25 44
M  V30 END BOND
M  V30 END CTAB
M  END
>  <Dataset>  (800) 
ChEMBL_Kinases

>  <Ligand_Instance>  (800) 
nan

>  <PDB_ID>  (800) 
nan

>  <Standardized_SMILES>  (800) 
COc1cc(CN(C(=O)c2ccco2)c2ccc(C)cc2)ccc1O

>  <Name>  (800) 
nan

>  <Pocket>  (800) 
nan

>  <ATP_Site>  (800) 
nan

>  <Peripheral>  (800) 
nan

>  <Num_H_Atoms_ProtBoundConf>  (800) 
nan

>  <Num_Resolved_Atoms>  (800) 
nan

>  <Num_Not_Resolved_Atoms>  (800) 
nan

$$$$
CHEMBL1311052
     RDKit          3D

  0  0  0  0  0  0  0  0  0  0999 V3000
M  V30 BEGIN CTAB
M  V30 COUNTS 36 37 0 0 0
M  V30 BEGIN ATOM
M  V30 1 O 2.161583 -2.053224 5.164461 0
M  V30 2 N 2.770343 -2.147050 4.087568 0 CHG=1 VAL=4
M  V30 3 O 4.127223 -2.213054 4.341530 0 CHG=-1 VAL=1
M  V30 4 C 2.217157 -2.184162 2.777241 0
M  V30 5 C 3.113808 -2.293765 1.734608 0
M  V30 6 C 2.592845 -2.331908 0.452485 0
M  V30 7 C 1.214452 -2.261536 0.236900 0
M  V30 8 N 0.886247 -2.327912 -1.145892 0
M  V30 9 C 0.986949 -1.000138 -1.588227 0
M  V30 10 S 0.911290 -0.394467 -3.293118 0
M  V30 11 N 1.130405 0.218500 -1.351467 0
M  V30 12 C 1.300097 0.973985 -0.181571 0
M  V30 13 C 0.202455 1.969715 0.100071 0
M  V30 14 C -1.132493 1.387277 0.251076 0
M  V30 15 C -1.765965 0.925200 1.384819 0
M  V30 16 C -3.040838 0.406168 1.328514 0
M  V30 17 C -3.750922 0.320852 0.137249 0
M  V30 18 F -5.004551 -0.183263 0.051944 0
M  V30 19 C -3.156304 0.769835 -1.014509 0
M  V30 20 C -1.867256 1.291060 -0.937335 0
M  V30 21 C 0.320038 -2.150618 1.308828 0
M  V30 22 C 0.836063 -2.111837 2.594548 0
M  V30 23 H 4.176974 -2.348406 1.908147 0
M  V30 24 H 3.332232 -2.420285 -0.338075 0
M  V30 25 H 0.611418 -3.000813 -1.894431 0
M  V30 26 H 0.913254 -1.443350 -4.218272 0
M  V30 27 H 2.226384 1.611718 -0.339222 0
M  V30 28 H 1.564045 0.352200 0.692041 0
M  V30 29 H 0.471410 2.459544 1.082657 0
M  V30 30 H 0.244101 2.773874 -0.652886 0
M  V30 31 H -1.178448 1.011311 2.282535 0
M  V30 32 H -3.510540 0.052586 2.232688 0
M  V30 33 H -3.677782 0.717802 -1.949539 0
M  V30 34 H -1.460639 1.628553 -1.899867 0
M  V30 35 H -0.704293 -2.104751 1.039140 0
M  V30 36 H 0.152923 -2.026512 3.410346 0
M  V30 END ATOM
M  V30 BEGIN BOND
M  V30 1 2 1 2
M  V30 2 1 2 3
M  V30 3 1 2 4
M  V30 4 2 4 5
M  V30 5 1 5 6
M  V30 6 2 6 7
M  V30 7 1 7 8
M  V30 8 1 8 9
M  V30 9 1 9 10
M  V30 10 2 9 11 CFG=2
M  V30 11 1 11 12
M  V30 12 1 12 13
M  V30 13 1 13 14
M  V30 14 2 14 15
M  V30 15 1 15 16
M  V30 16 2 16 17
M  V30 17 1 17 18
M  V30 18 1 17 19
M  V30 19 2 19 20
M  V30 20 1 7 21
M  V30 21 2 21 22
M  V30 22 1 22 4
M  V30 23 1 20 14
M  V30 24 1 5 23
M  V30 25 1 6 24
M  V30 26 1 8 25
M  V30 27 1 10 26
M  V30 28 1 12 27
M  V30 29 1 12 28
M  V30 30 1 13 29
M  V30 31 1 13 30
M  V30 32 1 15 31
M  V30 33 1 16 32
M  V30 34 1 19 33
M  V30 35 1 20 34
M  V30 36 1 21 35
M  V30 37 1 22 36
M  V30 END BOND
M  V30 END CTAB
M  END
>  <Dataset>  (801) 
ChEMBL_Kinases

>  <Ligand_Instance>  (801) 
nan

>  <PDB_ID>  (801) 
nan

>  <Standardized_SMILES>  (801) 
O=[N+]([O-])c1ccc(NC(S)=NCCc2ccc(F)cc2)cc1

>  <Name>  (801) 
nan

>  <Pocket>  (801) 
nan

>  <ATP_Site>  (801) 
nan

>  <Peripheral>  (801) 
nan

>  <Num_H_Atoms_ProtBoundConf>  (801) 
nan

>  <Num_Resolved_Atoms>  (801) 
nan

>  <Num_Not_Resolved_Atoms>  (801) 
nan

$$$$
CHEMBL1311016
     RDKit          3D

  0  0  0  0  0  0  0  0  0  0999 V3000
M  V30 BEGIN CTAB
M  V30 COUNTS 46 49 0 0 0
M  V30 BEGIN ATOM
M  V30 1 C -0.627689 -5.636490 0.825149 0
M  V30 2 C -0.976129 -4.256344 1.304091 0
M  V30 3 O -1.431783 -3.433175 0.226863 0
M  V30 4 C -1.811699 -2.115726 0.423938 0
M  V30 5 O -1.682470 -1.814179 1.657948 0
M  V30 6 C -2.292444 -1.224581 -0.673310 0
M  V30 7 C -1.263837 -1.060885 -1.728993 0
M  V30 8 C -0.645709 0.295799 -1.855473 0
M  V30 9 N -0.868198 1.123459 -0.683088 0
M  V30 10 C 0.131455 1.675969 0.171443 0
M  V30 11 N 0.289850 3.011570 0.378040 0
M  V30 12 C 1.251526 3.487852 1.196933 0
M  V30 13 C 1.387581 4.967166 1.393343 0
M  V30 14 N 2.070383 2.614588 1.821255 0
M  V30 15 C 1.951816 1.286314 1.647863 0
M  V30 16 C 0.968741 0.766249 0.808854 0
M  V30 17 O 1.050205 -0.555023 0.800545 0
M  V30 18 C 2.042871 -0.937373 1.595974 0
M  V30 19 C 2.506276 -2.211369 1.904806 0
M  V30 20 C 3.582904 -2.328257 2.784498 0
M  V30 21 C 4.183028 -1.199456 3.342958 0
M  V30 22 C 3.714453 0.070017 3.029612 0
M  V30 23 C 2.641884 0.176870 2.152690 0
M  V30 24 C -2.289110 1.299289 -0.520034 0
M  V30 25 C -2.890796 0.009486 -0.101460 0
M  V30 26 H -1.435824 -5.998532 0.145023 0
M  V30 27 H -0.694492 -6.301806 1.731424 0
M  V30 28 H 0.374224 -5.742109 0.406470 0
M  V30 29 H -1.884338 -4.368257 1.966144 0
M  V30 30 H -0.182703 -3.806521 1.898199 0
M  V30 31 H -3.141688 -1.812785 -1.136409 0
M  V30 32 H -0.433952 -1.784630 -1.530461 0
M  V30 33 H -1.629643 -1.346930 -2.742548 0
M  V30 34 H 0.451561 0.254853 -2.017520 0
M  V30 35 H -1.054496 0.865236 -2.717221 0
M  V30 36 H 1.495021 5.517471 0.438256 0
M  V30 37 H 2.331921 5.148712 1.972019 0
M  V30 38 H 0.558017 5.353967 2.019137 0
M  V30 39 H 2.084586 -3.124298 1.505548 0
M  V30 40 H 3.938993 -3.329637 3.020541 0
M  V30 41 H 5.012684 -1.356865 4.017014 0
M  V30 42 H 4.167225 0.949667 3.452532 0
M  V30 43 H -2.428575 2.056899 0.298166 0
M  V30 44 H -2.772010 1.696718 -1.443922 0
M  V30 45 H -2.864496 -0.034777 1.017932 0
M  V30 46 H -3.996825 0.105383 -0.316867 0
M  V30 END ATOM
M  V30 BEGIN BOND
M  V30 1 1 1 2
M  V30 2 1 2 3
M  V30 3 1 3 4
M  V30 4 2 4 5
M  V30 5 1 4 6
M  V30 6 1 6 7
M  V30 7 1 7 8
M  V30 8 1 8 9
M  V30 9 1 9 10
M  V30 10 2 10 11
M  V30 11 1 11 12
M  V30 12 1 12 13
M  V30 13 2 12 14
M  V30 14 1 14 15
M  V30 15 2 15 16
M  V30 16 1 16 17
M  V30 17 1 17 18
M  V30 18 2 18 19
M  V30 19 1 19 20
M  V30 20 2 20 21
M  V30 21 1 21 22
M  V30 22 2 22 23
M  V30 23 1 9 24
M  V30 24 1 24 25
M  V30 25 1 25 6
M  V30 26 1 16 10
M  V30 27 1 23 18
M  V30 28 1 23 15
M  V30 29 1 1 26
M  V30 30 1 1 27
M  V30 31 1 1 28
M  V30 32 1 2 29
M  V30 33 1 2 30
M  V30 34 1 6 31
M  V30 35 1 7 32
M  V30 36 1 7 33
M  V30 37 1 8 34
M  V30 38 1 8 35
M  V30 39 1 13 36
M  V30 40 1 13 37
M  V30 41 1 13 38
M  V30 42 1 19 39
M  V30 43 1 20 40
M  V30 44 1 21 41
M  V30 45 1 22 42
M  V30 46 1 24 43
M  V30 47 1 24 44
M  V30 48 1 25 45
M  V30 49 1 25 46
M  V30 END BOND
M  V30 END CTAB
M  END
>  <Dataset>  (802) 
ChEMBL_Kinases

>  <Ligand_Instance>  (802) 
nan

>  <PDB_ID>  (802) 
nan

>  <Standardized_SMILES>  (802) 
CCOC(=O)C1CCN(c2nc(C)nc3c2oc2ccccc23)CC1

>  <Name>  (802) 
nan

>  <Pocket>  (802) 
nan

>  <ATP_Site>  (802) 
nan

>  <Peripheral>  (802) 
nan

>  <Num_H_Atoms_ProtBoundConf>  (802) 
nan

>  <Num_Resolved_Atoms>  (802) 
nan

>  <Num_Not_Resolved_Atoms>  (802) 
nan

$$$$
CHEMBL1310986
     RDKit          3D

  0  0  0  0  0  0  0  0  0  0999 V3000
M  V30 BEGIN CTAB
M  V30 COUNTS 29 30 0 0 0
M  V30 BEGIN ATOM
M  V30 1 C -2.302335 -4.155391 4.166238 0
M  V30 2 C -1.380207 -4.008479 2.978134 0
M  V30 3 C -2.055455 -3.308004 1.822692 0
M  V30 4 S -0.841030 -3.199337 0.469686 0
M  V30 5 C -0.515423 -1.426198 0.654169 0
M  V30 6 N 0.476574 -0.684154 -0.052549 0
M  V30 7 C 0.696121 0.706177 0.124839 0
M  V30 8 O -0.079419 1.230040 0.977905 0
M  V30 9 C 1.714416 1.452631 -0.604771 0
M  V30 10 C 2.558728 0.881108 -1.533806 0
M  V30 11 C 3.518594 1.644629 -2.205242 0
M  V30 12 C 3.566734 2.986804 -1.883947 0
M  V30 13 Cl 4.783674 3.930435 -2.741859 0
M  V30 14 C 2.747195 3.614386 -0.962347 0
M  V30 15 Cl 2.888123 5.320618 -0.626925 0
M  V30 16 C 1.802570 2.813269 -0.315109 0
M  V30 17 N -1.311144 -0.901662 1.525926 0
M  V30 18 C -2.199285 -1.829403 2.086945 0
M  V30 19 O -3.132335 -1.397727 2.826045 0
M  V30 20 H -2.687492 -5.197166 4.159554 0
M  V30 21 H -3.125042 -3.401675 4.170329 0
M  V30 22 H -1.761478 -4.053002 5.136317 0
M  V30 23 H -0.504930 -3.433587 3.341966 0
M  V30 24 H -1.004013 -4.980711 2.599891 0
M  V30 25 H -3.001673 -3.758748 1.535608 0
M  V30 26 H 1.054957 -1.220962 -0.728528 0
M  V30 27 H 2.477910 -0.172007 -1.746463 0
M  V30 28 H 4.157125 1.175730 -2.917821 0
M  V30 29 H 1.181438 3.319984 0.391821 0
M  V30 END ATOM
M  V30 BEGIN BOND
M  V30 1 1 1 2
M  V30 2 1 2 3
M  V30 3 1 3 4
M  V30 4 1 4 5
M  V30 5 1 5 6
M  V30 6 1 6 7
M  V30 7 2 7 8
M  V30 8 1 7 9
M  V30 9 2 9 10
M  V30 10 1 10 11
M  V30 11 2 11 12
M  V30 12 1 12 13
M  V30 13 1 12 14
M  V30 14 1 14 15
M  V30 15 2 14 16
M  V30 16 2 5 17
M  V30 17 1 17 18
M  V30 18 2 18 19
M  V30 19 1 18 3
M  V30 20 1 16 9
M  V30 21 1 1 20
M  V30 22 1 1 21
M  V30 23 1 1 22
M  V30 24 1 2 23
M  V30 25 1 2 24
M  V30 26 1 3 25
M  V30 27 1 6 26
M  V30 28 1 10 27
M  V30 29 1 11 28
M  V30 30 1 16 29
M  V30 END BOND
M  V30 END CTAB
M  END
>  <Dataset>  (803) 
ChEMBL_Kinases

>  <Ligand_Instance>  (803) 
nan

>  <PDB_ID>  (803) 
nan

>  <Standardized_SMILES>  (803) 
CCC1SC(NC(=O)c2ccc(Cl)c(Cl)c2)=NC1=O

>  <Name>  (803) 
nan

>  <Pocket>  (803) 
nan

>  <ATP_Site>  (803) 
nan

>  <Peripheral>  (803) 
nan

>  <Num_H_Atoms_ProtBoundConf>  (803) 
nan

>  <Num_Resolved_Atoms>  (803) 
nan

>  <Num_Not_Resolved_Atoms>  (803) 
nan

$$$$
CHEMBL1310699
     RDKit          3D

  0  0  0  0  0  0  0  0  0  0999 V3000
M  V30 BEGIN CTAB
M  V30 COUNTS 47 51 0 0 0
M  V30 BEGIN ATOM
M  V30 1 O 2.186576 -3.197510 -0.085649 0
M  V30 2 C 2.422138 -2.017221 0.346288 0
M  V30 3 N 3.800010 -1.733391 0.547552 0
M  V30 4 C 4.919473 -2.609858 0.322356 0
M  V30 5 C 5.938061 -2.053896 -0.647329 0
M  V30 6 C 7.060320 -1.498733 0.169632 0
M  V30 7 C 6.818600 -1.871784 1.603469 0
M  V30 8 C 5.706425 -2.874740 1.586251 0
M  V30 9 C 1.361504 -1.052645 0.606968 0
M  V30 10 C 1.587882 0.239893 1.072726 0
M  V30 11 C 0.506349 1.072892 1.286624 0
M  V30 12 C -0.787980 0.656096 1.050662 0
M  V30 13 N -1.823592 1.488333 1.267545 0
M  V30 14 C -3.095432 1.060252 1.029285 0
M  V30 15 C -4.125207 2.055211 1.304308 0
M  V30 16 C -4.251922 2.540807 2.593368 0
M  V30 17 C -5.297874 3.460768 2.559039 0
M  V30 18 C -5.745157 3.480942 1.254579 0
M  V30 19 O -5.025901 2.646088 0.578925 0
M  V30 20 C -3.335836 -0.219721 0.566931 0
M  V30 21 C -4.731255 -0.608055 0.333084 0
M  V30 22 C -5.744949 -0.194170 -0.506901 0
M  V30 23 C -6.834989 -1.007560 -0.198525 0
M  V30 24 C -6.421271 -1.858487 0.801156 0
M  V30 25 O -5.162398 -1.591419 1.092279 0
M  V30 26 N -2.294434 -1.058482 0.348207 0
M  V30 27 C -1.024959 -0.622636 0.588997 0
M  V30 28 C 0.058529 -1.472016 0.369468 0
M  V30 29 H 4.091243 -0.794644 0.898729 0
M  V30 30 H 4.536350 -3.579412 -0.052004 0
M  V30 31 H 5.527269 -1.330849 -1.362745 0
M  V30 32 H 6.377492 -2.887908 -1.269673 0
M  V30 33 H 8.058947 -1.905597 -0.119803 0
M  V30 34 H 7.094438 -0.377719 0.061969 0
M  V30 35 H 7.738822 -2.319904 2.079950 0
M  V30 36 H 6.590198 -0.981806 2.233576 0
M  V30 37 H 6.148351 -3.900214 1.522910 0
M  V30 38 H 5.077726 -2.874399 2.493595 0
M  V30 39 H 2.598647 0.548589 1.251286 0
M  V30 40 H 0.700964 2.083578 1.652175 0
M  V30 41 H -3.738938 2.349323 3.506476 0
M  V30 42 H -5.737216 4.081866 3.354970 0
M  V30 43 H -6.542880 4.059830 0.804599 0
M  V30 44 H -5.546538 0.613417 -1.198154 0
M  V30 45 H -7.760390 -0.843820 -0.759412 0
M  V30 46 H -7.149542 -2.574107 1.173167 0
M  V30 47 H -0.137565 -2.469455 0.008688 0
M  V30 END ATOM
M  V30 BEGIN BOND
M  V30 1 2 1 2
M  V30 2 1 2 3
M  V30 3 1 3 4
M  V30 4 1 4 5
M  V30 5 1 5 6
M  V30 6 1 6 7
M  V30 7 1 7 8
M  V30 8 1 2 9
M  V30 9 2 9 10
M  V30 10 1 10 11
M  V30 11 2 11 12
M  V30 12 1 12 13
M  V30 13 2 13 14
M  V30 14 1 14 15
M  V30 15 2 15 16
M  V30 16 1 16 17
M  V30 17 2 17 18
M  V30 18 1 18 19
M  V30 19 1 14 20
M  V30 20 1 20 21
M  V30 21 2 21 22
M  V30 22 1 22 23
M  V30 23 2 23 24
M  V30 24 1 24 25
M  V30 25 2 20 26
M  V30 26 1 26 27
M  V30 27 2 27 28
M  V30 28 1 8 4
M  V30 29 1 28 9
M  V30 30 1 27 12
M  V30 31 1 19 15
M  V30 32 1 25 21
M  V30 33 1 3 29
M  V30 34 1 4 30
M  V30 35 1 5 31
M  V30 36 1 5 32
M  V30 37 1 6 33
M  V30 38 1 6 34
M  V30 39 1 7 35
M  V30 40 1 7 36
M  V30 41 1 8 37
M  V30 42 1 8 38
M  V30 43 1 10 39
M  V30 44 1 11 40
M  V30 45 1 16 41
M  V30 46 1 17 42
M  V30 47 1 18 43
M  V30 48 1 22 44
M  V30 49 1 23 45
M  V30 50 1 24 46
M  V30 51 1 28 47
M  V30 END BOND
M  V30 END CTAB
M  END
>  <Dataset>  (804) 
ChEMBL_Kinases

>  <Ligand_Instance>  (804) 
nan

>  <PDB_ID>  (804) 
nan

>  <Standardized_SMILES>  (804) 
O=C(NC1CCCC1)c1ccc2nc(-c3ccco3)c(-c3ccco3)nc2c1

>  <Name>  (804) 
nan

>  <Pocket>  (804) 
nan

>  <ATP_Site>  (804) 
nan

>  <Peripheral>  (804) 
nan

>  <Num_H_Atoms_ProtBoundConf>  (804) 
nan

>  <Num_Resolved_Atoms>  (804) 
nan

>  <Num_Not_Resolved_Atoms>  (804) 
nan

$$$$
CHEMBL1310611
     RDKit          3D

  0  0  0  0  0  0  0  0  0  0999 V3000
M  V30 BEGIN CTAB
M  V30 COUNTS 33 35 0 0 0
M  V30 BEGIN ATOM
M  V30 1 C 2.156345 -2.818554 2.699349 0
M  V30 2 O 0.960564 -2.166801 2.320548 0
M  V30 3 C 0.503934 -2.106715 1.033348 0
M  V30 4 O 1.178325 -2.662815 0.106066 0
M  V30 5 C -0.756969 -1.371334 0.925239 0
M  V30 6 C -0.586577 -0.056108 0.712776 0
M  V30 7 N 0.507907 0.843048 0.559661 0
M  V30 8 C 1.012015 1.068142 -0.740476 0
M  V30 9 O 0.411592 0.425392 -1.628788 0
M  V30 10 C 2.137011 2.007626 -0.798521 0
M  V30 11 C 2.793402 2.372475 -2.024515 0
M  V30 12 C 3.826785 3.264730 -1.887375 0
M  V30 13 C 4.147997 3.732435 -0.606660 0
M  V30 14 Br 5.490907 4.940498 -0.112507 0
M  V30 15 S 2.988868 2.920117 0.465560 0
M  V30 16 S -2.219483 0.611763 0.618464 0
M  V30 17 C -3.066779 -0.986821 0.881777 0
M  V30 18 C -2.044056 -1.847765 1.011860 0
M  V30 19 C -2.659222 -3.194691 1.232397 0
M  V30 20 C -4.027954 -3.082103 0.600527 0
M  V30 21 C -4.397556 -1.664570 0.999624 0
M  V30 22 H 2.977440 -2.315322 2.155775 0
M  V30 23 H 2.177068 -3.887190 2.425763 0
M  V30 24 H 2.224402 -2.710509 3.803065 0
M  V30 25 H 0.854129 1.273573 1.461303 0
M  V30 26 H 2.476646 1.960070 -2.969986 0
M  V30 27 H 4.401945 3.620137 -2.729446 0
M  V30 28 H -2.086339 -4.021452 0.814052 0
M  V30 29 H -2.844167 -3.323829 2.338621 0
M  V30 30 H -4.738468 -3.813668 0.987750 0
M  V30 31 H -3.889739 -3.083747 -0.499333 0
M  V30 32 H -5.140965 -1.304561 0.277925 0
M  V30 33 H -4.828027 -1.603524 2.001265 0
M  V30 END ATOM
M  V30 BEGIN BOND
M  V30 1 1 1 2
M  V30 2 1 2 3
M  V30 3 2 3 4
M  V30 4 1 3 5
M  V30 5 2 5 6
M  V30 6 1 6 7
M  V30 7 1 7 8
M  V30 8 2 8 9
M  V30 9 1 8 10
M  V30 10 2 10 11
M  V30 11 1 11 12
M  V30 12 2 12 13
M  V30 13 1 13 14
M  V30 14 1 13 15
M  V30 15 1 6 16
M  V30 16 1 16 17
M  V30 17 2 17 18
M  V30 18 1 18 19
M  V30 19 1 19 20
M  V30 20 1 20 21
M  V30 21 1 18 5
M  V30 22 1 15 10
M  V30 23 1 21 17
M  V30 24 1 1 22
M  V30 25 1 1 23
M  V30 26 1 1 24
M  V30 27 1 7 25
M  V30 28 1 11 26
M  V30 29 1 12 27
M  V30 30 1 19 28
M  V30 31 1 19 29
M  V30 32 1 20 30
M  V30 33 1 20 31
M  V30 34 1 21 32
M  V30 35 1 21 33
M  V30 END BOND
M  V30 END CTAB
M  END
>  <Dataset>  (805) 
ChEMBL_Kinases

>  <Ligand_Instance>  (805) 
nan

>  <PDB_ID>  (805) 
nan

>  <Standardized_SMILES>  (805) 
COC(=O)c1c(NC(=O)c2ccc(Br)s2)sc2c1CCC2

>  <Name>  (805) 
nan

>  <Pocket>  (805) 
nan

>  <ATP_Site>  (805) 
nan

>  <Peripheral>  (805) 
nan

>  <Num_H_Atoms_ProtBoundConf>  (805) 
nan

>  <Num_Resolved_Atoms>  (805) 
nan

>  <Num_Not_Resolved_Atoms>  (805) 
nan

$$$$
CHEMBL1310525
     RDKit          3D

  0  0  0  0  0  0  0  0  0  0999 V3000
M  V30 BEGIN CTAB
M  V30 COUNTS 62 65 0 0 0
M  V30 BEGIN ATOM
M  V30 1 C 2.772514 -0.888832 7.274821 0
M  V30 2 O 3.812986 -0.435880 6.477325 0
M  V30 3 C 3.566269 0.800435 5.914159 0
M  V30 4 C 2.361186 0.825872 5.034865 0
M  V30 5 C 2.142845 2.223931 4.429911 0
M  V30 6 N 0.973854 2.228305 3.583155 0
M  V30 7 C 0.558640 3.408763 2.907652 0
M  V30 8 O 1.289597 4.418471 3.116026 0
M  V30 9 C -0.607017 3.517461 2.029604 0
M  V30 10 N -0.289106 3.254253 0.617393 0
M  V30 11 C 0.074610 4.347478 -0.068329 0
M  V30 12 N 0.365897 4.116143 -1.349378 0
M  V30 13 C 0.289950 2.875173 -1.874790 0
M  V30 14 S 0.621171 2.281486 -3.596186 0
M  V30 15 C 0.206887 0.496005 -3.181213 0
M  V30 16 C 0.271184 -0.586137 -4.167173 0
M  V30 17 C -0.141218 0.514138 -1.786494 0
M  V30 18 S -0.578831 -1.018463 -1.079789 0
M  V30 19 O 0.013473 -1.148861 0.298439 0
M  V30 20 O 0.115701 -2.126296 -1.880776 0
M  V30 21 N -2.235969 -1.332956 -1.072721 0
M  V30 22 C -2.890491 -1.410929 -2.328989 0
M  V30 23 C -2.872713 -2.742137 -3.003743 0
M  V30 24 N -2.680179 -3.781537 -2.012194 0
M  V30 25 C -1.918237 -4.962935 -2.215741 0
M  V30 26 N -1.288484 -5.229716 -3.366163 0
M  V30 27 C -0.557871 -6.367571 -3.552830 0
M  V30 28 C -0.449914 -7.298266 -2.523996 0
M  V30 29 C -1.107346 -7.002678 -1.346717 0
M  V30 30 N -1.824439 -5.850994 -1.211588 0
M  V30 31 C -3.342717 -3.522643 -0.748510 0
M  V30 32 C -2.603046 -2.358834 -0.124374 0
M  V30 33 C -0.084448 1.733356 -1.177245 0
M  V30 34 C -0.375404 2.012663 0.131488 0
M  V30 35 O -0.739633 1.168907 0.976492 0
M  V30 36 H 1.818183 -1.009943 6.728309 0
M  V30 37 H 3.054209 -1.849762 7.775028 0
M  V30 38 H 2.580306 -0.114302 8.066898 0
M  V30 39 H 3.463243 1.521042 6.751758 0
M  V30 40 H 4.478198 1.040559 5.301319 0
M  V30 41 H 1.448369 0.652471 5.663669 0
M  V30 42 H 2.417794 0.075919 4.244395 0
M  V30 43 H 1.997369 2.940334 5.266023 0
M  V30 44 H 3.045038 2.521252 3.840476 0
M  V30 45 H 0.417429 1.363403 3.456295 0
M  V30 46 H -1.030214 4.534699 2.114177 0
M  V30 47 H -1.422956 2.810408 2.294412 0
M  V30 48 H 0.167401 5.360048 0.241700 0
M  V30 49 H -0.680266 -1.051897 -4.425139 0
M  V30 50 H 1.059421 -1.298894 -3.841971 0
M  V30 51 H 0.665367 -0.152244 -5.116359 0
M  V30 52 H -3.973355 -1.141665 -2.139342 0
M  V30 53 H -2.510598 -0.580749 -2.959287 0
M  V30 54 H -3.879610 -2.943321 -3.453533 0
M  V30 55 H -2.161180 -2.834812 -3.847503 0
M  V30 56 H -0.054347 -6.580760 -4.472459 0
M  V30 57 H 0.102450 -8.219910 -2.579970 0
M  V30 58 H -1.110290 -7.639290 -0.457741 0
M  V30 59 H -3.216519 -4.378086 -0.058186 0
M  V30 60 H -4.423560 -3.300656 -0.868346 0
M  V30 61 H -1.689775 -2.774471 0.362619 0
M  V30 62 H -3.212988 -1.928787 0.674075 0
M  V30 END ATOM
M  V30 BEGIN BOND
M  V30 1 1 1 2
M  V30 2 1 2 3
M  V30 3 1 3 4
M  V30 4 1 4 5
M  V30 5 1 5 6
M  V30 6 1 6 7
M  V30 7 2 7 8
M  V30 8 1 7 9
M  V30 9 1 9 10
M  V30 10 1 10 11
M  V30 11 2 11 12
M  V30 12 1 12 13
M  V30 13 1 13 14
M  V30 14 1 14 15
M  V30 15 1 15 16
M  V30 16 2 15 17
M  V30 17 1 17 18
M  V30 18 2 18 19
M  V30 19 2 18 20
M  V30 20 1 18 21
M  V30 21 1 21 22
M  V30 22 1 22 23
M  V30 23 1 23 24
M  V30 24 1 24 25
M  V30 25 2 25 26
M  V30 26 1 26 27
M  V30 27 2 27 28
M  V30 28 1 28 29
M  V30 29 2 29 30
M  V30 30 1 24 31
M  V30 31 1 31 32
M  V30 32 1 17 33
M  V30 33 1 33 34
M  V30 34 2 34 35
M  V30 35 1 34 10
M  V30 36 2 33 13
M  V30 37 1 32 21
M  V30 38 1 30 25
M  V30 39 1 1 36
M  V30 40 1 1 37
M  V30 41 1 1 38
M  V30 42 1 3 39
M  V30 43 1 3 40
M  V30 44 1 4 41
M  V30 45 1 4 42
M  V30 46 1 5 43
M  V30 47 1 5 44
M  V30 48 1 6 45
M  V30 49 1 9 46
M  V30 50 1 9 47
M  V30 51 1 11 48
M  V30 52 1 16 49
M  V30 53 1 16 50
M  V30 54 1 16 51
M  V30 55 1 22 52
M  V30 56 1 22 53
M  V30 57 1 23 54
M  V30 58 1 23 55
M  V30 59 1 27 56
M  V30 60 1 28 57
M  V30 61 1 29 58
M  V30 62 1 31 59
M  V30 63 1 31 60
M  V30 64 1 32 61
M  V30 65 1 32 62
M  V30 END BOND
M  V30 END CTAB
M  END
>  <Dataset>  (806) 
ChEMBL_Kinases

>  <Ligand_Instance>  (806) 
nan

>  <PDB_ID>  (806) 
nan

>  <Standardized_SMILES>  (806) 
COCCCNC(=O)Cn1cnc2sc(C)c(S(=O)(=O)N3CCN(c4ncccn4)CC3)c2c1=O

>  <Name>  (806) 
nan

>  <Pocket>  (806) 
nan

>  <ATP_Site>  (806) 
nan

>  <Peripheral>  (806) 
nan

>  <Num_H_Atoms_ProtBoundConf>  (806) 
nan

>  <Num_Resolved_Atoms>  (806) 
nan

>  <Num_Not_Resolved_Atoms>  (806) 
nan

$$$$
CHEMBL1310505
     RDKit          3D

  0  0  0  0  0  0  0  0  0  0999 V3000
M  V30 BEGIN CTAB
M  V30 COUNTS 30 31 0 0 0
M  V30 BEGIN ATOM
M  V30 1 C -1.407858 -3.630360 3.996888 0
M  V30 2 O -0.898347 -3.012748 2.837638 0
M  V30 3 C 0.254377 -3.401965 2.176845 0
M  V30 4 O 0.939816 -4.355405 2.576816 0
M  V30 5 C 0.660887 -2.663936 0.982575 0
M  V30 6 C 1.799001 -3.002547 0.279962 0
M  V30 7 C 2.171385 -2.291890 -0.852060 0
M  V30 8 Br 3.742262 -2.735691 -1.847744 0
M  V30 9 C 1.382305 -1.237144 -1.265438 0
M  V30 10 O 1.682508 -0.566418 -2.285489 0
M  V30 11 N 0.266317 -0.882209 -0.601631 0
M  V30 12 C -0.619316 0.211702 -0.966662 0
M  V30 13 C -0.106915 1.427461 -0.256139 0
M  V30 14 C 0.824967 2.289335 -0.798202 0
M  V30 15 C 1.175880 3.350898 -0.000118 0
M  V30 16 N 0.687524 3.593781 1.228407 0
M  V30 17 C -0.232814 2.753587 1.778712 0
M  V30 18 C -0.623232 1.655491 1.003620 0
M  V30 19 C -0.077210 -1.596912 0.507585 0
M  V30 20 H -0.634653 -3.791056 4.773940 0
M  V30 21 H -1.972136 -4.541916 3.732889 0
M  V30 22 H -2.159840 -2.922341 4.443282 0
M  V30 23 H 2.427330 -3.830877 0.596444 0
M  V30 24 H -0.592287 0.401675 -2.057780 0
M  V30 25 H -1.648761 -0.025501 -0.627901 0
M  V30 26 H 1.210672 2.093596 -1.773932 0
M  V30 27 H 1.896059 4.062431 -0.357217 0
M  V30 28 H -0.623367 2.953147 2.768420 0
M  V30 29 H -1.362966 1.032207 1.516672 0
M  V30 30 H -0.958714 -1.353537 1.072522 0
M  V30 END ATOM
M  V30 BEGIN BOND
M  V30 1 1 1 2
M  V30 2 1 2 3
M  V30 3 2 3 4
M  V30 4 1 3 5
M  V30 5 1 5 6
M  V30 6 2 6 7
M  V30 7 1 7 8
M  V30 8 1 7 9
M  V30 9 2 9 10
M  V30 10 1 9 11
M  V30 11 1 11 12
M  V30 12 1 12 13
M  V30 13 2 13 14
M  V30 14 1 14 15
M  V30 15 2 15 16
M  V30 16 1 16 17
M  V30 17 2 17 18
M  V30 18 1 11 19
M  V30 19 2 19 5
M  V30 20 1 18 13
M  V30 21 1 1 20
M  V30 22 1 1 21
M  V30 23 1 1 22
M  V30 24 1 6 23
M  V30 25 1 12 24
M  V30 26 1 12 25
M  V30 27 1 14 26
M  V30 28 1 15 27
M  V30 29 1 17 28
M  V30 30 1 18 29
M  V30 31 1 19 30
M  V30 END BOND
M  V30 END CTAB
M  END
>  <Dataset>  (807) 
ChEMBL_Kinases

>  <Ligand_Instance>  (807) 
nan

>  <PDB_ID>  (807) 
nan

>  <Standardized_SMILES>  (807) 
COC(=O)c1cc(Br)c(=O)n(Cc2ccncc2)c1

>  <Name>  (807) 
nan

>  <Pocket>  (807) 
nan

>  <ATP_Site>  (807) 
nan

>  <Peripheral>  (807) 
nan

>  <Num_H_Atoms_ProtBoundConf>  (807) 
nan

>  <Num_Resolved_Atoms>  (807) 
nan

>  <Num_Not_Resolved_Atoms>  (807) 
nan

$$$$
CHEMBL1310499
     RDKit          3D

  0  0  0  0  0  0  0  0  0  0999 V3000
M  V30 BEGIN CTAB
M  V30 COUNTS 60 62 0 0 0
M  V30 BEGIN ATOM
M  V30 1 C 3.985376 -3.257553 0.461015 0
M  V30 2 O 4.796866 -2.308751 -0.090607 0
M  V30 3 C 5.597971 -1.639206 0.797041 0
M  V30 4 C 4.882099 -0.763994 1.758726 0
M  V30 5 N 4.139516 0.316798 1.179018 0
M  V30 6 C 4.845391 1.463743 0.906516 0
M  V30 7 C 6.312254 1.717527 1.151935 0
M  V30 8 C 4.034028 2.415832 0.359163 0
M  V30 9 C 2.765950 1.896622 0.264683 0
M  V30 10 C 1.666581 2.606715 -0.313426 0
M  V30 11 O 1.895321 3.835354 -0.651041 0
M  V30 12 C 0.296060 2.596872 -0.738333 0
M  V30 13 O -0.260362 1.287815 -0.598355 0
M  V30 14 C -1.553168 1.005663 -0.932203 0
M  V30 15 O -1.794233 2.183656 -1.289883 0
M  V30 16 C -2.544567 -0.036000 -0.989380 0
M  V30 17 C -3.810932 0.273883 -1.447338 0
M  V30 18 C -4.532586 1.453053 -1.949095 0
M  V30 19 N -4.481328 -0.885707 -1.375385 0
M  V30 20 N -3.733934 -1.847498 -0.920319 0
M  V30 21 C -4.168711 -3.238855 -0.710462 0
M  V30 22 C -4.731345 -3.410044 0.646301 0
M  V30 23 C -4.018305 -3.775006 1.772664 0
M  V30 24 C -4.646192 -3.906196 3.013427 0
M  V30 25 C -5.998622 -3.676938 3.160839 0
M  V30 26 C -6.677579 -3.317373 2.029095 0
M  V30 27 C -6.102996 -3.177137 0.794308 0
M  V30 28 C -2.507190 -1.368686 -0.662458 0
M  V30 29 C -1.310436 -2.080359 -0.146386 0
M  V30 30 C 2.909166 0.629166 0.781145 0
M  V30 31 C 1.814193 -0.335563 0.975059 0
M  V30 32 H 3.336169 -3.760975 -0.320544 0
M  V30 33 H 4.586421 -4.126568 0.877984 0
M  V30 34 H 3.331593 -2.855220 1.238340 0
M  V30 35 H 6.427353 -1.117999 0.259353 0
M  V30 36 H 6.155560 -2.457525 1.361159 0
M  V30 37 H 4.213796 -1.440886 2.376471 0
M  V30 38 H 5.631295 -0.416262 2.510232 0
M  V30 39 H 6.600349 1.312923 2.145114 0
M  V30 40 H 6.520724 2.793825 1.058996 0
M  V30 41 H 6.848084 1.223630 0.317754 0
M  V30 42 H 4.373667 3.421126 0.055230 0
M  V30 43 H 0.229968 2.776988 -1.855696 0
M  V30 44 H -0.373739 3.346331 -0.248917 0
M  V30 45 H -4.059986 2.404210 -1.709604 0
M  V30 46 H -4.651312 1.297980 -3.056980 0
M  V30 47 H -5.572063 1.502819 -1.535295 0
M  V30 48 H -3.317040 -3.930704 -0.865125 0
M  V30 49 H -4.950914 -3.435561 -1.454467 0
M  V30 50 H -2.970029 -3.953690 1.664142 0
M  V30 51 H -3.997653 -4.194453 3.827932 0
M  V30 52 H -6.409638 -3.799058 4.149859 0
M  V30 53 H -7.745731 -3.130671 2.117499 0
M  V30 54 H -6.698411 -2.884572 -0.083948 0
M  V30 55 H -0.434607 -1.935452 -0.830517 0
M  V30 56 H -1.007980 -1.781988 0.861741 0
M  V30 57 H -1.548212 -3.185356 -0.094729 0
M  V30 58 H 2.017573 -1.100754 1.765298 0
M  V30 59 H 1.422820 -0.791768 0.055282 0
M  V30 60 H 0.930333 0.216832 1.442045 0
M  V30 END ATOM
M  V30 BEGIN BOND
M  V30 1 1 1 2
M  V30 2 1 2 3
M  V30 3 1 3 4
M  V30 4 1 4 5
M  V30 5 1 5 6
M  V30 6 1 6 7
M  V30 7 2 6 8
M  V30 8 1 8 9
M  V30 9 1 9 10
M  V30 10 2 10 11
M  V30 11 1 10 12
M  V30 12 1 12 13
M  V30 13 1 13 14
M  V30 14 2 14 15
M  V30 15 1 14 16
M  V30 16 1 16 17
M  V30 17 1 17 18
M  V30 18 2 17 19
M  V30 19 1 19 20
M  V30 20 1 20 21
M  V30 21 1 21 22
M  V30 22 2 22 23
M  V30 23 1 23 24
M  V30 24 2 24 25
M  V30 25 1 25 26
M  V30 26 2 26 27
M  V30 27 1 20 28
M  V30 28 1 28 29
M  V30 29 2 9 30
M  V30 30 1 30 31
M  V30 31 1 30 5
M  V30 32 2 28 16
M  V30 33 1 27 22
M  V30 34 1 1 32
M  V30 35 1 1 33
M  V30 36 1 1 34
M  V30 37 1 3 35
M  V30 38 1 3 36
M  V30 39 1 4 37
M  V30 40 1 4 38
M  V30 41 1 7 39
M  V30 42 1 7 40
M  V30 43 1 7 41
M  V30 44 1 8 42
M  V30 45 1 12 43
M  V30 46 1 12 44
M  V30 47 1 18 45
M  V30 48 1 18 46
M  V30 49 1 18 47
M  V30 50 1 21 48
M  V30 51 1 21 49
M  V30 52 1 23 50
M  V30 53 1 24 51
M  V30 54 1 25 52
M  V30 55 1 26 53
M  V30 56 1 27 54
M  V30 57 1 29 55
M  V30 58 1 29 56
M  V30 59 1 29 57
M  V30 60 1 31 58
M  V30 61 1 31 59
M  V30 62 1 31 60
M  V30 END BOND
M  V30 END CTAB
M  END
>  <Dataset>  (808) 
ChEMBL_Kinases

>  <Ligand_Instance>  (808) 
nan

>  <PDB_ID>  (808) 
nan

>  <Standardized_SMILES>  (808) 
COCCn1c(C)cc(C(=O)COC(=O)c2c(C)nn(Cc3ccccc3)c2C)c1C

>  <Name>  (808) 
nan

>  <Pocket>  (808) 
nan

>  <ATP_Site>  (808) 
nan

>  <Peripheral>  (808) 
nan

>  <Num_H_Atoms_ProtBoundConf>  (808) 
nan

>  <Num_Resolved_Atoms>  (808) 
nan

>  <Num_Not_Resolved_Atoms>  (808) 
nan

$$$$
CHEMBL1310492
     RDKit          3D

  0  0  0  0  0  0  0  0  0  0999 V3000
M  V30 BEGIN CTAB
M  V30 COUNTS 33 35 0 0 0
M  V30 BEGIN ATOM
M  V30 1 C -1.837020 -1.830528 3.788134 0
M  V30 2 C -1.692336 -2.504537 2.463423 0
M  V30 3 C -0.347171 -3.076125 2.185326 0
M  V30 4 C 0.793843 -2.124995 2.160017 0
M  V30 5 N 0.674921 -1.100799 1.145098 0
M  V30 6 C 1.175605 -1.382520 -0.098089 0
M  V30 7 O 1.703727 -2.519686 -0.286855 0
M  V30 8 C 1.160349 -0.533930 -1.182768 0
M  V30 9 C 1.695492 -0.927954 -2.387868 0
M  V30 10 C 1.615230 0.016433 -3.390536 0
M  V30 11 C 1.058527 1.263277 -3.255672 0
M  V30 12 C 0.536900 1.604986 -2.024369 0
M  V30 13 C 0.590301 0.702765 -0.991114 0
M  V30 14 N 0.101610 0.991256 0.204939 0
M  V30 15 C -0.493324 2.098696 0.663245 0
M  V30 16 S -0.902516 3.653306 -0.082682 0
M  V30 17 N -0.810729 1.908923 1.952632 0
M  V30 18 N -0.418619 0.694376 2.298951 0
M  V30 19 C 0.140270 0.129554 1.231339 0
M  V30 20 H -0.865738 -1.703638 4.303623 0
M  V30 21 H -2.328219 -0.829434 3.683311 0
M  V30 22 H -2.493165 -2.395379 4.490541 0
M  V30 23 H -2.036198 -1.817654 1.663132 0
M  V30 24 H -2.417207 -3.354692 2.445563 0
M  V30 25 H -0.405808 -3.530629 1.152822 0
M  V30 26 H -0.133322 -3.894236 2.904523 0
M  V30 27 H 1.009181 -1.662841 3.147963 0
M  V30 28 H 1.709148 -2.729247 1.907485 0
M  V30 29 H 2.140696 -1.901665 -2.527037 0
M  V30 30 H 2.032802 -0.266339 -4.363883 0
M  V30 31 H 1.047008 1.928884 -4.108159 0
M  V30 32 H 0.117291 2.588681 -1.981639 0
M  V30 33 H -2.180551 3.523619 -0.676291 0
M  V30 END ATOM
M  V30 BEGIN BOND
M  V30 1 1 1 2
M  V30 2 1 2 3
M  V30 3 1 3 4
M  V30 4 1 4 5
M  V30 5 1 5 6
M  V30 6 2 6 7
M  V30 7 1 6 8
M  V30 8 2 8 9
M  V30 9 1 9 10
M  V30 10 2 10 11
M  V30 11 1 11 12
M  V30 12 2 12 13
M  V30 13 1 13 14
M  V30 14 1 14 15
M  V30 15 1 15 16
M  V30 16 2 15 17
M  V30 17 1 17 18
M  V30 18 2 18 19
M  V30 19 1 19 5
M  V30 20 1 13 8
M  V30 21 1 19 14
M  V30 22 1 1 20
M  V30 23 1 1 21
M  V30 24 1 1 22
M  V30 25 1 2 23
M  V30 26 1 2 24
M  V30 27 1 3 25
M  V30 28 1 3 26
M  V30 29 1 4 27
M  V30 30 1 4 28
M  V30 31 1 9 29
M  V30 32 1 10 30
M  V30 33 1 11 31
M  V30 34 1 12 32
M  V30 35 1 16 33
M  V30 END BOND
M  V30 END CTAB
M  END
>  <Dataset>  (809) 
ChEMBL_Kinases

>  <Ligand_Instance>  (809) 
nan

>  <PDB_ID>  (809) 
nan

>  <Standardized_SMILES>  (809) 
CCCCn1c(=O)c2ccccc2n2c(S)nnc12

>  <Name>  (809) 
nan

>  <Pocket>  (809) 
nan

>  <ATP_Site>  (809) 
nan

>  <Peripheral>  (809) 
nan

>  <Num_H_Atoms_ProtBoundConf>  (809) 
nan

>  <Num_Resolved_Atoms>  (809) 
nan

>  <Num_Not_Resolved_Atoms>  (809) 
nan

$$$$
CHEMBL1310396
     RDKit          3D

  0  0  0  0  0  0  0  0  0  0999 V3000
M  V30 BEGIN CTAB
M  V30 COUNTS 49 52 0 0 0
M  V30 BEGIN ATOM
M  V30 1 C -0.642012 0.236933 2.768864 0
M  V30 2 N 0.084210 0.426476 1.538410 0
M  V30 3 C 0.766433 1.726220 1.431615 0
M  V30 4 C 1.797895 1.922524 2.457790 0
M  V30 5 C 3.038350 1.407836 2.112241 0
M  V30 6 C 4.116814 1.531997 2.993885 0
M  V30 7 C 3.996856 2.156594 4.216229 0
M  V30 8 C 2.745560 2.676635 4.566138 0
M  V30 9 C 1.722544 2.531690 3.673107 0
M  V30 10 C 0.231366 -0.458390 0.445655 0
M  V30 11 N 0.965225 -0.159491 -0.670703 0
M  V30 12 C 0.927863 -1.206119 -1.505665 0
M  V30 13 C 0.156022 -2.163029 -0.887462 0
M  V30 14 C 0.056762 -3.306935 -1.653652 0
M  V30 15 O -0.611183 -4.281448 -1.227432 0
M  V30 16 N 0.647738 -3.442172 -2.852199 0
M  V30 17 C 1.382980 -2.444945 -3.374218 0
M  V30 18 O 1.934294 -2.574500 -4.496713 0
M  V30 19 N 1.538984 -1.284461 -2.694082 0
M  V30 20 C 2.329530 -0.204729 -3.248043 0
M  V30 21 N -0.274351 -1.693271 0.320585 0
M  V30 22 C -1.103214 -2.529588 1.096565 0
M  V30 23 C -2.551371 -2.402774 0.947813 0
M  V30 24 C -3.427430 -2.105203 1.985724 0
M  V30 25 C -4.789760 -1.948982 1.945671 0
M  V30 26 C -5.393564 -2.103947 0.718712 0
M  V30 27 C -4.619981 -2.404037 -0.399511 0
M  V30 28 C -3.257883 -2.536805 -0.234847 0
M  V30 29 H -0.680753 1.176284 3.377359 0
M  V30 30 H -0.157710 -0.496975 3.441540 0
M  V30 31 H -1.689337 -0.006525 2.572635 0
M  V30 32 H -0.007607 2.547585 1.537467 0
M  V30 33 H 1.201599 1.856310 0.429721 0
M  V30 34 H 3.288742 0.894472 1.195484 0
M  V30 35 H 5.119563 1.151005 2.786819 0
M  V30 36 H 4.824269 2.260600 4.910938 0
M  V30 37 H 2.573253 3.183122 5.513507 0
M  V30 38 H 0.765683 2.938896 3.941576 0
M  V30 39 H 0.533077 -4.337705 -3.386152 0
M  V30 40 H 1.874117 0.779447 -3.026141 0
M  V30 41 H 2.296290 -0.302793 -4.357407 0
M  V30 42 H 3.362350 -0.187470 -2.860379 0
M  V30 43 H -0.870895 -3.625616 0.982277 0
M  V30 44 H -0.908164 -2.359556 2.199936 0
M  V30 45 H -2.983963 -1.974545 2.988623 0
M  V30 46 H -5.355984 -1.715854 2.834982 0
M  V30 47 H -6.454492 -1.987615 0.660711 0
M  V30 48 H -5.138652 -2.512852 -1.321742 0
M  V30 49 H -2.767161 -2.753745 -1.150634 0
M  V30 END ATOM
M  V30 BEGIN BOND
M  V30 1 1 1 2
M  V30 2 1 2 3
M  V30 3 1 3 4
M  V30 4 2 4 5
M  V30 5 1 5 6
M  V30 6 2 6 7
M  V30 7 1 7 8
M  V30 8 2 8 9
M  V30 9 1 2 10
M  V30 10 2 10 11
M  V30 11 1 11 12
M  V30 12 2 12 13
M  V30 13 1 13 14
M  V30 14 2 14 15
M  V30 15 1 14 16
M  V30 16 1 16 17
M  V30 17 2 17 18
M  V30 18 1 17 19
M  V30 19 1 19 20
M  V30 20 1 13 21
M  V30 21 1 21 22
M  V30 22 1 22 23
M  V30 23 2 23 24
M  V30 24 1 24 25
M  V30 25 2 25 26
M  V30 26 1 26 27
M  V30 27 2 27 28
M  V30 28 1 9 4
M  V30 29 1 21 10
M  V30 30 1 28 23
M  V30 31 1 19 12
M  V30 32 1 1 29
M  V30 33 1 1 30
M  V30 34 1 1 31
M  V30 35 1 3 32
M  V30 36 1 3 33
M  V30 37 1 5 34
M  V30 38 1 6 35
M  V30 39 1 7 36
M  V30 40 1 8 37
M  V30 41 1 9 38
M  V30 42 1 16 39
M  V30 43 1 20 40
M  V30 44 1 20 41
M  V30 45 1 20 42
M  V30 46 1 22 43
M  V30 47 1 22 44
M  V30 48 1 24 45
M  V30 49 1 25 46
M  V30 50 1 26 47
M  V30 51 1 27 48
M  V30 52 1 28 49
M  V30 END BOND
M  V30 END CTAB
M  END
>  <Dataset>  (810) 
ChEMBL_Kinases

>  <Ligand_Instance>  (810) 
nan

>  <PDB_ID>  (810) 
nan

>  <Standardized_SMILES>  (810) 
CN(Cc1ccccc1)c1nc2c(c(=O)[nH]c(=O)n2C)n1Cc1ccccc1

>  <Name>  (810) 
nan

>  <Pocket>  (810) 
nan

>  <ATP_Site>  (810) 
nan

>  <Peripheral>  (810) 
nan

>  <Num_H_Atoms_ProtBoundConf>  (810) 
nan

>  <Num_Resolved_Atoms>  (810) 
nan

>  <Num_Not_Resolved_Atoms>  (810) 
nan

$$$$
CHEMBL131035
     RDKit          3D

  0  0  0  0  0  0  0  0  0  0999 V3000
M  V30 BEGIN CTAB
M  V30 COUNTS 56 61 0 0 0
M  V30 BEGIN ATOM
M  V30 1 O 2.456677 -0.532863 4.550832 0
M  V30 2 C 2.079159 -1.390213 3.709790 0
M  V30 3 N 2.427524 -2.769431 3.888778 0
M  V30 4 C 1.813231 -3.379634 2.736098 0
M  V30 5 O 1.950056 -4.650267 2.604727 0
M  V30 6 C 1.122777 -2.356444 1.911536 0
M  V30 7 C 1.268464 -1.214773 2.458251 0
M  V30 8 C 0.813166 0.117574 2.065428 0
M  V30 9 C -0.450607 0.655340 2.008943 0
M  V30 10 N -0.358845 1.930826 1.585796 0
M  V30 11 C 0.928180 2.292390 1.348282 0
M  V30 12 C 1.629095 3.400087 0.923226 0
M  V30 13 C 2.995736 3.462446 0.775371 0
M  V30 14 C 3.743167 2.343269 1.068906 0
M  V30 15 C 3.067993 1.219745 1.496855 0
M  V30 16 C 1.671625 1.152900 1.648951 0
M  V30 17 C -1.419148 2.849762 1.373455 0
M  V30 18 C -2.823217 2.344423 1.549048 0
M  V30 19 O -3.180097 1.294375 0.806244 0
M  V30 20 C -3.067232 1.262896 -0.514111 0
M  V30 21 C -3.547918 0.034036 -1.221507 0
M  V30 22 O -2.948341 -1.128019 -0.832109 0
M  V30 23 C -3.276138 -2.262501 -1.522874 0
M  V30 24 C -2.650075 -3.525658 -0.903964 0
M  V30 25 N -1.232312 -3.427342 -0.696995 0
M  V30 26 C -0.925496 -2.912458 0.535253 0
M  V30 27 C 0.454664 -2.840841 0.713454 0
M  V30 28 C 0.980622 -3.334370 -0.465415 0
M  V30 29 C 2.291677 -3.493393 -0.832592 0
M  V30 30 C 2.579749 -4.030450 -2.110299 0
M  V30 31 C 1.494516 -4.357003 -2.898352 0
M  V30 32 C 0.162562 -4.214300 -2.569718 0
M  V30 33 C -0.063561 -3.687354 -1.315354 0
M  V30 34 H 2.973457 -3.192703 4.646568 0
M  V30 35 H -1.429612 0.258952 2.229371 0
M  V30 36 H 1.070905 4.294258 0.685076 0
M  V30 37 H 3.462117 4.380228 0.433596 0
M  V30 38 H 4.818845 2.343805 0.968577 0
M  V30 39 H 3.690999 0.363973 1.716378 0
M  V30 40 H -1.319604 3.641058 2.184964 0
M  V30 41 H -1.309685 3.463989 0.447449 0
M  V30 42 H -2.883077 2.027777 2.633570 0
M  V30 43 H -3.577538 3.150759 1.471109 0
M  V30 44 H -3.630232 2.117148 -0.957532 0
M  V30 45 H -2.007622 1.420799 -0.809137 0
M  V30 46 H -4.647974 -0.098140 -1.096094 0
M  V30 47 H -3.373647 0.176236 -2.308418 0
M  V30 48 H -4.375935 -2.390516 -1.464409 0
M  V30 49 H -3.032911 -2.231639 -2.605658 0
M  V30 50 H -2.864934 -4.386283 -1.594855 0
M  V30 51 H -3.146159 -3.772218 0.053475 0
M  V30 52 H -1.549070 -2.567640 1.356462 0
M  V30 53 H 3.141339 -3.232486 -0.202926 0
M  V30 54 H 3.582746 -4.183821 -2.467925 0
M  V30 55 H 1.724419 -4.772194 -3.886280 0
M  V30 56 H -0.680975 -4.469961 -3.186450 0
M  V30 END ATOM
M  V30 BEGIN BOND
M  V30 1 2 1 2
M  V30 2 1 2 3
M  V30 3 1 3 4
M  V30 4 2 4 5
M  V30 5 1 4 6
M  V30 6 2 6 7
M  V30 7 1 7 8
M  V30 8 2 8 9
M  V30 9 1 9 10
M  V30 10 1 10 11
M  V30 11 2 11 12
M  V30 12 1 12 13
M  V30 13 2 13 14
M  V30 14 1 14 15
M  V30 15 2 15 16
M  V30 16 1 10 17
M  V30 17 1 17 18
M  V30 18 1 18 19
M  V30 19 1 19 20
M  V30 20 1 20 21
M  V30 21 1 21 22
M  V30 22 1 22 23
M  V30 23 1 23 24
M  V30 24 1 24 25
M  V30 25 1 25 26
M  V30 26 2 26 27
M  V30 27 1 27 28
M  V30 28 2 28 29
M  V30 29 1 29 30
M  V30 30 2 30 31
M  V30 31 1 31 32
M  V30 32 2 32 33
M  V30 33 1 7 2
M  V30 34 1 16 8
M  V30 35 1 33 25
M  V30 36 1 27 6
M  V30 37 1 33 28
M  V30 38 1 16 11
M  V30 39 1 3 34
M  V30 40 1 9 35
M  V30 41 1 12 36
M  V30 42 1 13 37
M  V30 43 1 14 38
M  V30 44 1 15 39
M  V30 45 1 17 40
M  V30 46 1 17 41
M  V30 47 1 18 42
M  V30 48 1 18 43
M  V30 49 1 20 44
M  V30 50 1 20 45
M  V30 51 1 21 46
M  V30 52 1 21 47
M  V30 53 1 23 48
M  V30 54 1 23 49
M  V30 55 1 24 50
M  V30 56 1 24 51
M  V30 57 1 26 52
M  V30 58 1 29 53
M  V30 59 1 30 54
M  V30 60 1 31 55
M  V30 61 1 32 56
M  V30 END BOND
M  V30 END CTAB
M  END
>  <Dataset>  (811) 
ChEMBL_Kinases

>  <Ligand_Instance>  (811) 
nan

>  <PDB_ID>  (811) 
nan

>  <Standardized_SMILES>  (811) 
O=C1NC(=O)C2=C1c1cn(c3ccccc13)CCOCCOCCn1cc2c2ccccc21

>  <Name>  (811) 
nan

>  <Pocket>  (811) 
nan

>  <ATP_Site>  (811) 
nan

>  <Peripheral>  (811) 
nan

>  <Num_H_Atoms_ProtBoundConf>  (811) 
nan

>  <Num_Resolved_Atoms>  (811) 
nan

>  <Num_Not_Resolved_Atoms>  (811) 
nan

$$$$
CHEMBL1310211
     RDKit          3D

  0  0  0  0  0  0  0  0  0  0999 V3000
M  V30 BEGIN CTAB
M  V30 COUNTS 48 51 0 0 0
M  V30 BEGIN ATOM
M  V30 1 C 3.021090 0.204099 5.710733 0
M  V30 2 O 2.982199 -0.178816 4.350682 0
M  V30 3 C 4.065453 0.048342 3.527109 0
M  V30 4 O 5.127193 0.594098 3.918148 0
M  V30 5 C 3.970626 -0.372699 2.111615 0
M  V30 6 C 5.015015 -0.179618 1.225800 0
M  V30 7 C 4.509786 -0.710119 0.033832 0
M  V30 8 C 3.240216 -1.166809 0.287942 0
M  V30 9 C 2.247864 -1.820152 -0.613785 0
M  V30 10 S 1.193315 -0.589904 -1.409434 0
M  V30 11 C 0.155412 0.248645 -0.240557 0
M  V30 12 N 0.453768 1.371398 0.439022 0
M  V30 13 C -0.371116 1.960912 1.308160 0
M  V30 14 C -0.003279 3.109060 1.971697 0
M  V30 15 C -0.856314 3.716227 2.869193 0
M  V30 16 C -2.103929 3.156600 3.103473 0
M  V30 17 C -2.468751 1.998072 2.431093 0
M  V30 18 C -1.624959 1.381199 1.531202 0
M  V30 19 C -1.927047 0.235444 0.836132 0
M  V30 20 O -3.081545 -0.205695 1.109818 0
M  V30 21 N -1.049973 -0.327254 -0.040133 0
M  V30 22 C -1.597982 -1.500629 -0.627648 0
M  V30 23 C -1.289253 -2.740696 -0.112548 0
M  V30 24 C -1.845295 -3.856445 -0.711926 0
M  V30 25 C -2.681511 -3.727375 -1.790620 0
M  V30 26 C -3.023853 -2.513767 -2.346019 0
M  V30 27 O -3.858120 -2.295522 -3.430583 0
M  V30 28 C -4.450315 -3.407371 -4.073794 0
M  V30 29 C -2.442052 -1.413672 -1.712227 0
M  V30 30 O 2.949084 -0.951956 1.531174 0
M  V30 31 H 3.349703 -0.626975 6.373407 0
M  V30 32 H 1.963703 0.414758 6.026604 0
M  V30 33 H 3.688021 1.053940 5.921080 0
M  V30 34 H 5.992823 0.262965 1.368198 0
M  V30 35 H 4.974616 -0.775009 -0.920804 0
M  V30 36 H 2.829370 -2.368481 -1.366126 0
M  V30 37 H 1.594187 -2.524406 -0.060525 0
M  V30 38 H 0.965460 3.571019 1.810673 0
M  V30 39 H -0.639813 4.605572 3.419616 0
M  V30 40 H -2.826469 3.583655 3.798808 0
M  V30 41 H -3.433886 1.564693 2.612016 0
M  V30 42 H -0.647021 -2.892640 0.720128 0
M  V30 43 H -1.609613 -4.847123 -0.315054 0
M  V30 44 H -3.111537 -4.605242 -2.253217 0
M  V30 45 H -3.759170 -3.922852 -4.773670 0
M  V30 46 H -5.384335 -3.117717 -4.612866 0
M  V30 47 H -4.780923 -4.190211 -3.333471 0
M  V30 48 H -2.676821 -0.418758 -2.107625 0
M  V30 END ATOM
M  V30 BEGIN BOND
M  V30 1 1 1 2
M  V30 2 1 2 3
M  V30 3 2 3 4
M  V30 4 1 3 5
M  V30 5 2 5 6
M  V30 6 1 6 7
M  V30 7 2 7 8
M  V30 8 1 8 9
M  V30 9 1 9 10
M  V30 10 1 10 11
M  V30 11 2 11 12
M  V30 12 1 12 13
M  V30 13 2 13 14
M  V30 14 1 14 15
M  V30 15 2 15 16
M  V30 16 1 16 17
M  V30 17 2 17 18
M  V30 18 1 18 19
M  V30 19 2 19 20
M  V30 20 1 19 21
M  V30 21 1 21 22
M  V30 22 2 22 23
M  V30 23 1 23 24
M  V30 24 2 24 25
M  V30 25 1 25 26
M  V30 26 1 26 27
M  V30 27 1 27 28
M  V30 28 2 26 29
M  V30 29 1 8 30
M  V30 30 1 30 5
M  V30 31 1 21 11
M  V30 32 1 29 22
M  V30 33 1 18 13
M  V30 34 1 1 31
M  V30 35 1 1 32
M  V30 36 1 1 33
M  V30 37 1 6 34
M  V30 38 1 7 35
M  V30 39 1 9 36
M  V30 40 1 9 37
M  V30 41 1 14 38
M  V30 42 1 15 39
M  V30 43 1 16 40
M  V30 44 1 17 41
M  V30 45 1 23 42
M  V30 46 1 24 43
M  V30 47 1 25 44
M  V30 48 1 28 45
M  V30 49 1 28 46
M  V30 50 1 28 47
M  V30 51 1 29 48
M  V30 END BOND
M  V30 END CTAB
M  END
>  <Dataset>  (812) 
ChEMBL_Kinases

>  <Ligand_Instance>  (812) 
nan

>  <PDB_ID>  (812) 
nan

>  <Standardized_SMILES>  (812) 
COC(=O)c1ccc(CSc2nc3ccccc3c(=O)n2-c2cccc(OC)c2)o1

>  <Name>  (812) 
nan

>  <Pocket>  (812) 
nan

>  <ATP_Site>  (812) 
nan

>  <Peripheral>  (812) 
nan

>  <Num_H_Atoms_ProtBoundConf>  (812) 
nan

>  <Num_Resolved_Atoms>  (812) 
nan

>  <Num_Not_Resolved_Atoms>  (812) 
nan

$$$$
CHEMBL1310101
     RDKit          3D

  0  0  0  0  0  0  0  0  0  0999 V3000
M  V30 BEGIN CTAB
M  V30 COUNTS 68 72 0 0 0
M  V30 BEGIN ATOM
M  V30 1 C 8.769926 -0.788719 6.450826 0
M  V30 2 C 7.347257 -0.861948 6.004781 0
M  V30 3 O 7.210213 -1.348414 4.710835 0
M  V30 4 C 6.105547 -1.552127 3.954687 0
M  V30 5 C 4.778601 -1.345231 4.251971 0
M  V30 6 C 3.751154 -1.597017 3.381053 0
M  V30 7 C 4.013949 -2.086950 2.117355 0
M  V30 8 C 3.148376 -2.405297 0.999049 0
M  V30 9 C 2.241907 -1.726726 0.343214 0
M  V30 10 S 1.287862 -2.361526 -1.016001 0
M  V30 11 C -0.045105 -1.149694 -1.183347 0
M  V30 12 C -1.026931 -1.595845 -2.024369 0
M  V30 13 C -2.084548 -0.714448 -2.292042 0
M  V30 14 C -2.079404 0.553821 -1.694923 0
M  V30 15 C -3.266341 1.317289 -2.079993 0
M  V30 16 O -3.332467 1.989198 -3.120063 0
M  V30 17 N -4.364798 1.227635 -1.153717 0
M  V30 18 C -5.671447 1.835979 -1.230254 0
M  V30 19 C -6.743416 0.810614 -0.991664 0
M  V30 20 N -6.189634 -0.508369 -1.082414 0
M  V30 21 C -6.396476 -1.552848 -2.020736 0
M  V30 22 O -5.821268 -2.682411 -1.969210 0
M  V30 23 C -7.315238 -1.413638 -3.152544 0
M  V30 24 C -7.353237 -0.698652 -4.333440 0
M  V30 25 C -8.539420 -1.047592 -4.954763 0
M  V30 26 C -9.170493 -1.971408 -4.109088 0
M  V30 27 O -8.395930 -2.130986 -3.083434 0
M  V30 28 C -5.266994 -0.701597 0.027353 0
M  V30 29 C -4.271650 0.445525 0.071930 0
M  V30 30 C -1.049758 0.918952 -0.859967 0
M  V30 31 C 0.011995 0.076178 -0.568906 0
M  V30 32 N 0.994961 0.488710 0.366789 0
M  V30 33 C 0.872445 1.840088 0.885247 0
M  V30 34 C 2.053348 -0.359259 0.793455 0
M  V30 35 O 2.835717 0.182750 1.605253 0
M  V30 36 C 5.364311 -2.306514 1.794187 0
M  V30 37 C 6.419233 -2.054413 2.674978 0
M  V30 38 O 7.748746 -2.290338 2.303345 0
M  V30 39 C 7.956459 -2.793928 1.002710 0
M  V30 40 H 9.222799 0.213317 6.321561 0
M  V30 41 H 8.828850 -1.005355 7.542389 0
M  V30 42 H 9.353797 -1.579647 5.931768 0
M  V30 43 H 6.843208 -1.627156 6.672717 0
M  V30 44 H 6.844367 0.081269 6.221188 0
M  V30 45 H 4.586683 -0.960571 5.238300 0
M  V30 46 H 2.709402 -1.460981 3.623498 0
M  V30 47 H 3.252367 -3.425386 0.596260 0
M  V30 48 H -1.055612 -2.570554 -2.500976 0
M  V30 49 H -2.875328 -1.076764 -2.974429 0
M  V30 50 H -5.785675 2.634059 -0.454178 0
M  V30 51 H -5.864098 2.284116 -2.235951 0
M  V30 52 H -7.568429 0.924594 -1.740880 0
M  V30 53 H -7.166785 0.974513 0.043059 0
M  V30 54 H -6.523910 -0.047422 -4.549351 0
M  V30 55 H -8.775048 -0.586822 -5.928903 0
M  V30 56 H -10.133503 -2.358777 -4.449815 0
M  V30 57 H -5.866225 -0.650014 0.955640 0
M  V30 58 H -4.803850 -1.686268 -0.033870 0
M  V30 59 H -3.261204 -0.000188 0.140039 0
M  V30 60 H -4.474985 1.120018 0.910493 0
M  V30 61 H -1.154980 1.913688 -0.455903 0
M  V30 62 H 0.182827 1.881642 1.750590 0
M  V30 63 H 1.887624 2.132153 1.288476 0
M  V30 64 H 0.641266 2.576116 0.117058 0
M  V30 65 H 5.648840 -2.703072 0.805354 0
M  V30 66 H 7.484842 -2.169119 0.222010 0
M  V30 67 H 7.444570 -3.789579 0.923024 0
M  V30 68 H 9.033513 -2.859521 0.737457 0
M  V30 END ATOM
M  V30 BEGIN BOND
M  V30 1 1 1 2
M  V30 2 1 2 3
M  V30 3 1 3 4
M  V30 4 2 4 5
M  V30 5 1 5 6
M  V30 6 2 6 7
M  V30 7 1 7 8
M  V30 8 2 8 9
M  V30 9 1 9 10
M  V30 10 1 10 11
M  V30 11 2 11 12
M  V30 12 1 12 13
M  V30 13 2 13 14
M  V30 14 1 14 15
M  V30 15 2 15 16
M  V30 16 1 15 17
M  V30 17 1 17 18
M  V30 18 1 18 19
M  V30 19 1 19 20
M  V30 20 1 20 21
M  V30 21 2 21 22
M  V30 22 1 21 23
M  V30 23 2 23 24
M  V30 24 1 24 25
M  V30 25 2 25 26
M  V30 26 1 26 27
M  V30 27 1 20 28
M  V30 28 1 28 29
M  V30 29 1 14 30
M  V30 30 2 30 31
M  V30 31 1 31 32
M  V30 32 1 32 33
M  V30 33 1 32 34
M  V30 34 2 34 35
M  V30 35 1 7 36
M  V30 36 2 36 37
M  V30 37 1 37 38
M  V30 38 1 38 39
M  V30 39 1 37 4
M  V30 40 1 34 9
M  V30 41 1 31 11
M  V30 42 1 29 17
M  V30 43 1 27 23
M  V30 44 1 1 40
M  V30 45 1 1 41
M  V30 46 1 1 42
M  V30 47 1 2 43
M  V30 48 1 2 44
M  V30 49 1 5 45
M  V30 50 1 6 46
M  V30 51 1 8 47
M  V30 52 1 12 48
M  V30 53 1 13 49
M  V30 54 1 18 50
M  V30 55 1 18 51
M  V30 56 1 19 52
M  V30 57 1 19 53
M  V30 58 1 24 54
M  V30 59 1 25 55
M  V30 60 1 26 56
M  V30 61 1 28 57
M  V30 62 1 28 58
M  V30 63 1 29 59
M  V30 64 1 29 60
M  V30 65 1 30 61
M  V30 66 1 33 62
M  V30 67 1 33 63
M  V30 68 1 33 64
M  V30 69 1 36 65
M  V30 70 1 39 66
M  V30 71 1 39 67
M  V30 72 1 39 68
M  V30 END BOND
M  V30 END CTAB
M  END
>  <Dataset>  (813) 
ChEMBL_Kinases

>  <Ligand_Instance>  (813) 
nan

>  <PDB_ID>  (813) 
nan

>  <Standardized_SMILES>  (813) 
CCOc1ccc(/C=C2/Sc3ccc(C(=O)N4CCN(C(=O)c5ccco5)CC4)cc3N(C)C2=O)cc1OC

>  <Name>  (813) 
nan

>  <Pocket>  (813) 
nan

>  <ATP_Site>  (813) 
nan

>  <Peripheral>  (813) 
nan

>  <Num_H_Atoms_ProtBoundConf>  (813) 
nan

>  <Num_Resolved_Atoms>  (813) 
nan

>  <Num_Not_Resolved_Atoms>  (813) 
nan

$$$$
CHEMBL1310076
     RDKit          3D

  0  0  0  0  0  0  0  0  0  0999 V3000
M  V30 BEGIN CTAB
M  V30 COUNTS 50 52 0 0 0
M  V30 BEGIN ATOM
M  V30 1 C 0.310121 4.117186 -3.663910 0
M  V30 2 O 0.941091 3.495990 -2.575566 0
M  V30 3 C 2.113444 3.934672 -2.009984 0
M  V30 4 C 2.696141 5.053178 -2.552674 0
M  V30 5 C 3.874109 5.534236 -2.021312 0
M  V30 6 C 4.402711 4.841846 -0.952039 0
M  V30 7 Br 6.026195 5.475381 -0.193924 0
M  V30 8 C 3.794281 3.723003 -0.430243 0
M  V30 9 C 2.618803 3.228196 -0.946924 0
M  V30 10 C 2.057430 2.042341 -0.325710 0
M  V30 11 O 2.655126 1.508484 0.656365 0
M  V30 12 N 0.890887 1.312491 -0.621376 0
M  V30 13 C 0.568135 0.166209 0.161122 0
M  V30 14 C -0.204109 0.241166 1.301518 0
M  V30 15 C -0.504279 -0.881789 2.042500 0
M  V30 16 C -0.062328 -2.124534 1.699791 0
M  V30 17 N -0.364907 -3.279420 2.449232 0
M  V30 18 C 0.064784 -4.636267 2.176317 0
M  V30 19 C -1.128186 -5.552428 1.995136 0
M  V30 20 N -2.132087 -5.355357 2.998555 0
M  V30 21 S -3.696598 -5.116499 2.394329 0
M  V30 22 C -3.871506 -3.689833 1.378651 0
M  V30 23 O -4.677387 -5.038412 3.528504 0
M  V30 24 O -4.079557 -6.313552 1.563335 0
M  V30 25 C -1.746960 -4.510993 4.077449 0
M  V30 26 C -1.195336 -3.176101 3.639625 0
M  V30 27 C 0.704507 -2.169099 0.559781 0
M  V30 28 C 1.037383 -1.083034 -0.220662 0
M  V30 29 H 0.250494 5.211319 -3.444227 0
M  V30 30 H -0.712589 3.692892 -3.794870 0
M  V30 31 H 0.862737 3.954722 -4.608092 0
M  V30 32 H 2.256891 5.568502 -3.386415 0
M  V30 33 H 4.313575 6.416219 -2.465716 0
M  V30 34 H 4.271570 3.244974 0.400856 0
M  V30 35 H 0.316364 1.662745 -1.416462 0
M  V30 36 H -0.563783 1.220706 1.588616 0
M  V30 37 H -1.113028 -0.711710 2.913728 0
M  V30 38 H 0.555252 -4.993956 3.124340 0
M  V30 39 H 0.714462 -4.741263 1.306758 0
M  V30 40 H -0.742609 -6.588132 2.123043 0
M  V30 41 H -1.535640 -5.501104 0.963964 0
M  V30 42 H -4.346994 -2.829608 1.883717 0
M  V30 43 H -2.880152 -3.288042 1.018377 0
M  V30 44 H -4.449828 -3.897701 0.454769 0
M  V30 45 H -2.611411 -4.360520 4.739125 0
M  V30 46 H -0.960019 -5.015333 4.675789 0
M  V30 47 H -2.022587 -2.440067 3.477559 0
M  V30 48 H -0.551118 -2.750864 4.437231 0
M  V30 49 H 1.114852 -3.095418 0.183028 0
M  V30 50 H 1.643174 -1.146862 -1.113744 0
M  V30 END ATOM
M  V30 BEGIN BOND
M  V30 1 1 1 2
M  V30 2 1 2 3
M  V30 3 2 3 4
M  V30 4 1 4 5
M  V30 5 2 5 6
M  V30 6 1 6 7
M  V30 7 1 6 8
M  V30 8 2 8 9
M  V30 9 1 9 10
M  V30 10 2 10 11
M  V30 11 1 10 12
M  V30 12 1 12 13
M  V30 13 2 13 14
M  V30 14 1 14 15
M  V30 15 2 15 16
M  V30 16 1 16 17
M  V30 17 1 17 18
M  V30 18 1 18 19
M  V30 19 1 19 20
M  V30 20 1 20 21
M  V30 21 1 21 22
M  V30 22 2 21 23
M  V30 23 2 21 24
M  V30 24 1 20 25
M  V30 25 1 25 26
M  V30 26 1 16 27
M  V30 27 2 27 28
M  V30 28 1 9 3
M  V30 29 1 28 13
M  V30 30 1 26 17
M  V30 31 1 1 29
M  V30 32 1 1 30
M  V30 33 1 1 31
M  V30 34 1 4 32
M  V30 35 1 5 33
M  V30 36 1 8 34
M  V30 37 1 12 35
M  V30 38 1 14 36
M  V30 39 1 15 37
M  V30 40 1 18 38
M  V30 41 1 18 39
M  V30 42 1 19 40
M  V30 43 1 19 41
M  V30 44 1 22 42
M  V30 45 1 22 43
M  V30 46 1 22 44
M  V30 47 1 25 45
M  V30 48 1 25 46
M  V30 49 1 26 47
M  V30 50 1 26 48
M  V30 51 1 27 49
M  V30 52 1 28 50
M  V30 END BOND
M  V30 END CTAB
M  END
>  <Dataset>  (814) 
ChEMBL_Kinases

>  <Ligand_Instance>  (814) 
nan

>  <PDB_ID>  (814) 
nan

>  <Standardized_SMILES>  (814) 
COc1ccc(Br)cc1C(=O)Nc1ccc(N2CCN(S(C)(=O)=O)CC2)cc1

>  <Name>  (814) 
nan

>  <Pocket>  (814) 
nan

>  <ATP_Site>  (814) 
nan

>  <Peripheral>  (814) 
nan

>  <Num_H_Atoms_ProtBoundConf>  (814) 
nan

>  <Num_Resolved_Atoms>  (814) 
nan

>  <Num_Not_Resolved_Atoms>  (814) 
nan

$$$$
CHEMBL1308001
     RDKit          3D

  0  0  0  0  0  0  0  0  0  0999 V3000
M  V30 BEGIN CTAB
M  V30 COUNTS 29 31 0 0 0
M  V30 BEGIN ATOM
M  V30 1 S -2.128361 -4.177912 0.093010 0
M  V30 2 C -0.704030 -3.183193 -0.396857 0
M  V30 3 N 0.303243 -3.630845 -1.194184 0
M  V30 4 N 1.161893 -2.606379 -1.323125 0
M  V30 5 C 0.670677 -1.552103 -0.606852 0
M  V30 6 C 1.325674 -0.252426 -0.502263 0
M  V30 7 C 2.281435 0.147943 0.408148 0
M  V30 8 C 2.801494 1.417721 0.370734 0
M  V30 9 C 2.343709 2.295272 -0.606940 0
M  V30 10 Br 3.063940 4.075339 -0.669682 0
M  V30 11 C 1.376446 1.935646 -1.551387 0
M  V30 12 C 0.879320 0.638327 -1.473310 0
M  V30 13 N -0.494277 -1.895708 -0.022082 0
M  V30 14 C -1.351211 -1.110113 0.814795 0
M  V30 15 C -1.006313 -1.230843 2.275733 0
M  V30 16 C -0.126669 -0.455029 3.011574 0
M  V30 17 C -0.119562 -0.921092 4.320758 0
M  V30 18 C -1.011154 -1.975089 4.313417 0
M  V30 19 O -1.492792 -2.114750 3.123802 0
M  V30 20 H -3.224614 -3.350680 0.392667 0
M  V30 21 H 2.562841 -0.621140 1.125441 0
M  V30 22 H 3.544798 1.700235 1.093377 0
M  V30 23 H 1.052807 2.653932 -2.292169 0
M  V30 24 H 0.124145 0.421577 -2.243122 0
M  V30 25 H -2.380665 -1.518302 0.724078 0
M  V30 26 H -1.430492 -0.053065 0.509923 0
M  V30 27 H 0.451364 0.360200 2.652419 0
M  V30 28 H 0.476823 -0.496127 5.098301 0
M  V30 29 H -1.227573 -2.553797 5.202491 0
M  V30 END ATOM
M  V30 BEGIN BOND
M  V30 1 1 1 2
M  V30 2 2 2 3
M  V30 3 1 3 4
M  V30 4 2 4 5
M  V30 5 1 5 6
M  V30 6 2 6 7
M  V30 7 1 7 8
M  V30 8 2 8 9
M  V30 9 1 9 10
M  V30 10 1 9 11
M  V30 11 2 11 12
M  V30 12 1 5 13
M  V30 13 1 13 14
M  V30 14 1 14 15
M  V30 15 2 15 16
M  V30 16 1 16 17
M  V30 17 2 17 18
M  V30 18 1 18 19
M  V30 19 1 13 2
M  V30 20 1 19 15
M  V30 21 1 12 6
M  V30 22 1 1 20
M  V30 23 1 7 21
M  V30 24 1 8 22
M  V30 25 1 11 23
M  V30 26 1 12 24
M  V30 27 1 14 25
M  V30 28 1 14 26
M  V30 29 1 16 27
M  V30 30 1 17 28
M  V30 31 1 18 29
M  V30 END BOND
M  V30 END CTAB
M  END
>  <Dataset>  (815) 
ChEMBL_Kinases

>  <Ligand_Instance>  (815) 
nan

>  <PDB_ID>  (815) 
nan

>  <Standardized_SMILES>  (815) 
Sc1nnc(-c2ccc(Br)cc2)n1Cc1ccco1

>  <Name>  (815) 
nan

>  <Pocket>  (815) 
nan

>  <ATP_Site>  (815) 
nan

>  <Peripheral>  (815) 
nan

>  <Num_H_Atoms_ProtBoundConf>  (815) 
nan

>  <Num_Resolved_Atoms>  (815) 
nan

>  <Num_Not_Resolved_Atoms>  (815) 
nan

$$$$
CHEMBL1308028
     RDKit          3D

  0  0  0  0  0  0  0  0  0  0999 V3000
M  V30 BEGIN CTAB
M  V30 COUNTS 45 48 0 0 0
M  V30 BEGIN ATOM
M  V30 1 C -5.146206 -4.332814 0.349899 0
M  V30 2 C -3.705381 -4.021742 0.166166 0
M  V30 3 C -2.761836 -5.022616 0.347116 0
M  V30 4 C -1.401816 -4.847231 0.204285 0
M  V30 5 C -0.963981 -3.586226 -0.141992 0
M  V30 6 N 0.352433 -3.315549 -0.304712 0
M  V30 7 C 0.782922 -2.068185 -0.646626 0
M  V30 8 O 2.179765 -2.071389 -0.748522 0
M  V30 9 C -0.103588 -1.000803 -0.848168 0
M  V30 10 C 0.570698 0.249770 -1.202568 0
M  V30 11 N 1.144121 0.947367 -0.053663 0
M  V30 12 C 0.265836 1.910783 0.591174 0
M  V30 13 O -0.927047 2.094944 0.167617 0
M  V30 14 C 0.591709 2.753375 1.735607 0
M  V30 15 C 1.461357 3.728898 2.024018 0
M  V30 16 C 1.527494 4.339449 3.226346 0
M  V30 17 C 0.589203 3.844598 4.141752 0
M  V30 18 S -0.309762 2.558363 3.229803 0
M  V30 19 C 2.403538 0.915561 0.608899 0
M  V30 20 C 2.398861 0.020334 1.684053 0
M  V30 21 C 3.531162 -0.176230 2.481813 0
M  V30 22 C 4.670948 0.532688 2.193004 0
M  V30 23 C 4.685995 1.418439 1.134432 0
M  V30 24 C 3.561898 1.609110 0.347888 0
M  V30 25 C -1.445574 -1.301216 -0.676376 0
M  V30 26 C -1.875628 -2.557235 -0.332515 0
M  V30 27 C -3.230868 -2.760198 -0.183014 0
M  V30 28 H -5.279377 -5.419737 0.323573 0
M  V30 29 H -5.789715 -3.791992 -0.366840 0
M  V30 30 H -5.494538 -4.011381 1.375166 0
M  V30 31 H -3.137254 -6.013986 0.621566 0
M  V30 32 H -0.691873 -5.648741 0.351711 0
M  V30 33 H 2.560710 -1.658631 -1.602429 0
M  V30 34 H -0.184739 0.927572 -1.646365 0
M  V30 35 H 1.354830 0.050809 -1.968739 0
M  V30 36 H 2.107208 3.964664 1.158879 0
M  V30 37 H 2.252561 5.131359 3.423814 0
M  V30 38 H 0.638097 4.402905 5.266100 0
M  V30 39 H 1.542313 -0.583563 1.988555 0
M  V30 40 H 3.524230 -0.870707 3.313734 0
M  V30 41 H 5.584979 0.408597 2.796205 0
M  V30 42 H 5.567066 2.006374 0.864095 0
M  V30 43 H 3.462531 2.272132 -0.500632 0
M  V30 44 H -2.076201 -0.440721 -0.844919 0
M  V30 45 H -3.958245 -1.960204 -0.329045 0
M  V30 END ATOM
M  V30 BEGIN BOND
M  V30 1 1 1 2
M  V30 2 2 2 3
M  V30 3 1 3 4
M  V30 4 2 4 5
M  V30 5 1 5 6
M  V30 6 2 6 7
M  V30 7 1 7 8
M  V30 8 1 7 9
M  V30 9 1 9 10
M  V30 10 1 10 11
M  V30 11 1 11 12
M  V30 12 2 12 13
M  V30 13 1 12 14
M  V30 14 2 14 15
M  V30 15 1 15 16
M  V30 16 2 16 17
M  V30 17 1 17 18
M  V30 18 1 11 19
M  V30 19 2 19 20
M  V30 20 1 20 21
M  V30 21 2 21 22
M  V30 22 1 22 23
M  V30 23 2 23 24
M  V30 24 2 9 25
M  V30 25 1 25 26
M  V30 26 2 26 27
M  V30 27 1 27 2
M  V30 28 1 26 5
M  V30 29 1 18 14
M  V30 30 1 24 19
M  V30 31 1 1 28
M  V30 32 1 1 29
M  V30 33 1 1 30
M  V30 34 1 3 31
M  V30 35 1 4 32
M  V30 36 1 8 33
M  V30 37 1 10 34
M  V30 38 1 10 35
M  V30 39 1 15 36
M  V30 40 1 16 37
M  V30 41 1 17 38
M  V30 42 1 20 39
M  V30 43 1 21 40
M  V30 44 1 22 41
M  V30 45 1 23 42
M  V30 46 1 24 43
M  V30 47 1 25 44
M  V30 48 1 27 45
M  V30 END BOND
M  V30 END CTAB
M  END
>  <Dataset>  (816) 
ChEMBL_Kinases

>  <Ligand_Instance>  (816) 
nan

>  <PDB_ID>  (816) 
nan

>  <Standardized_SMILES>  (816) 
Cc1ccc2nc(O)c(CN(C(=O)c3cccs3)c3ccccc3)cc2c1

>  <Name>  (816) 
nan

>  <Pocket>  (816) 
nan

>  <ATP_Site>  (816) 
nan

>  <Peripheral>  (816) 
nan

>  <Num_H_Atoms_ProtBoundConf>  (816) 
nan

>  <Num_Resolved_Atoms>  (816) 
nan

>  <Num_Not_Resolved_Atoms>  (816) 
nan

$$$$
CHEMBL1308223
     RDKit          3D

  0  0  0  0  0  0  0  0  0  0999 V3000
M  V30 BEGIN CTAB
M  V30 COUNTS 43 46 0 0 0
M  V30 BEGIN ATOM
M  V30 1 C 1.000089 -5.064775 2.670996 0
M  V30 2 N 0.239922 -4.304930 1.695325 0
M  V30 3 N 1.043051 -3.686372 0.825659 0
M  V30 4 C 0.571971 -2.921139 -0.170893 0
M  V30 5 C 1.466194 -2.220308 -1.145873 0
M  V30 6 C 1.528946 -0.768893 -0.787029 0
M  V30 7 O 0.751096 -0.887343 0.210059 0
M  V30 8 N 2.168935 0.375698 -1.288767 0
M  V30 9 C 1.766860 1.454473 -0.426700 0
M  V30 10 C 0.631171 2.186783 -0.719261 0
M  V30 11 C 0.310118 3.207908 0.157547 0
M  V30 12 C 1.124549 3.427752 1.245520 0
M  V30 13 C 2.259684 2.677349 1.516208 0
M  V30 14 C 2.597593 1.642145 0.639927 0
M  V30 15 O 3.006538 2.988708 2.643384 0
M  V30 16 C 2.375316 3.449315 3.845509 0
M  V30 17 C 1.108573 4.223407 3.564850 0
M  V30 18 O 0.886662 4.427666 2.182174 0
M  V30 19 C -0.796894 -2.763314 -0.308179 0
M  V30 20 C -1.392837 -2.002470 -1.294183 0
M  V30 21 C -2.761360 -1.925653 -1.323122 0
M  V30 22 C -3.616656 -2.557023 -0.433260 0
M  V30 23 C -2.984030 -3.307179 0.535800 0
M  V30 24 C -1.608084 -3.411679 0.601867 0
M  V30 25 C -1.097177 -4.190722 1.615014 0
M  V30 26 O -1.748638 -4.813176 2.481414 0
M  V30 27 H 1.403035 -5.998461 2.245091 0
M  V30 28 H 1.818648 -4.437798 3.116200 0
M  V30 29 H 0.368979 -5.355570 3.530951 0
M  V30 30 H 2.491059 -2.642850 -1.048697 0
M  V30 31 H 1.152678 -2.384360 -2.177429 0
M  V30 32 H 2.720926 0.066075 -2.114221 0
M  V30 33 H 0.026180 1.965476 -1.594679 0
M  V30 34 H -0.559558 3.824631 -0.001193 0
M  V30 35 H 3.471589 1.054982 0.838063 0
M  V30 36 H 2.085621 2.514077 4.398044 0
M  V30 37 H 3.099165 3.987253 4.473092 0
M  V30 38 H 1.169027 5.190631 4.094710 0
M  V30 39 H 0.206911 3.697087 3.959137 0
M  V30 40 H -0.760132 -1.494638 -2.007813 0
M  V30 41 H -3.208116 -1.327222 -2.101728 0
M  V30 42 H -4.696213 -2.463805 -0.499387 0
M  V30 43 H -3.646426 -3.811119 1.244662 0
M  V30 END ATOM
M  V30 BEGIN BOND
M  V30 1 1 1 2
M  V30 2 1 2 3
M  V30 3 2 3 4
M  V30 4 1 4 5
M  V30 5 1 5 6
M  V30 6 2 6 7
M  V30 7 1 6 8
M  V30 8 1 8 9
M  V30 9 2 9 10
M  V30 10 1 10 11
M  V30 11 2 11 12
M  V30 12 1 12 13
M  V30 13 2 13 14
M  V30 14 1 13 15
M  V30 15 1 15 16
M  V30 16 1 16 17
M  V30 17 1 17 18
M  V30 18 1 4 19
M  V30 19 2 19 20
M  V30 20 1 20 21
M  V30 21 2 21 22
M  V30 22 1 22 23
M  V30 23 2 23 24
M  V30 24 1 24 25
M  V30 25 2 25 26
M  V30 26 1 25 2
M  V30 27 1 14 9
M  V30 28 1 24 19
M  V30 29 1 18 12
M  V30 30 1 1 27
M  V30 31 1 1 28
M  V30 32 1 1 29
M  V30 33 1 5 30
M  V30 34 1 5 31
M  V30 35 1 8 32
M  V30 36 1 10 33
M  V30 37 1 11 34
M  V30 38 1 14 35
M  V30 39 1 16 36
M  V30 40 1 16 37
M  V30 41 1 17 38
M  V30 42 1 17 39
M  V30 43 1 20 40
M  V30 44 1 21 41
M  V30 45 1 22 42
M  V30 46 1 23 43
M  V30 END BOND
M  V30 END CTAB
M  END
>  <Dataset>  (817) 
ChEMBL_Kinases

>  <Ligand_Instance>  (817) 
nan

>  <PDB_ID>  (817) 
nan

>  <Standardized_SMILES>  (817) 
Cn1nc(CC(=O)Nc2ccc3c(c2)OCCO3)c2ccccc2c1=O

>  <Name>  (817) 
nan

>  <Pocket>  (817) 
nan

>  <ATP_Site>  (817) 
nan

>  <Peripheral>  (817) 
nan

>  <Num_H_Atoms_ProtBoundConf>  (817) 
nan

>  <Num_Resolved_Atoms>  (817) 
nan

>  <Num_Not_Resolved_Atoms>  (817) 
nan

$$$$
CHEMBL1308367
     RDKit          3D

  0  0  0  0  0  0  0  0  0  0999 V3000
M  V30 BEGIN CTAB
M  V30 COUNTS 53 55 0 0 0
M  V30 BEGIN ATOM
M  V30 1 C 0.942350 -1.005719 6.915066 0
M  V30 2 C 1.912045 -0.935151 5.796676 0
M  V30 3 C 2.749364 -1.888303 5.279291 0
M  V30 4 C 3.464554 -1.350611 4.239723 0
M  V30 5 N 4.433617 -2.008716 3.443935 0
M  V30 6 S 5.240343 -1.166870 2.166655 0
M  V30 7 O 6.269329 -2.051447 1.536012 0
M  V30 8 O 5.936812 0.060075 2.730657 0
M  V30 9 C 4.088412 -0.629985 0.963821 0
M  V30 10 C 3.436396 0.583983 0.968691 0
M  V30 11 C 2.538767 0.933659 -0.019010 0
M  V30 12 C 2.324787 0.002388 -1.017900 0
M  V30 13 N 1.399897 0.334050 -2.056556 0
M  V30 14 C 0.050054 -0.069997 -1.751073 0
M  V30 15 O 0.091107 -0.615162 -0.616950 0
M  V30 16 C -0.967237 0.257144 -2.816427 0
M  V30 17 O -2.190360 -0.205765 -2.340193 0
M  V30 18 C -2.856657 0.160270 -1.208159 0
M  V30 19 C -2.494331 1.080736 -0.246358 0
M  V30 20 C -3.269728 1.356193 0.858780 0
M  V30 21 C -4.469799 0.702601 1.047576 0
M  V30 22 C -4.839303 -0.217871 0.092311 0
M  V30 23 C -4.072147 -0.511257 -1.030438 0
M  V30 24 C -4.587113 -1.520680 -1.976336 0
M  V30 25 C -4.135914 -2.917160 -1.644261 0
M  V30 26 C -4.176153 -1.240343 -3.407624 0
M  V30 27 C 2.954729 -1.223395 -1.062447 0
M  V30 28 C 3.843156 -1.537763 -0.060998 0
M  V30 29 N 3.033678 -0.081368 4.161676 0
M  V30 30 O 2.148290 0.117798 5.066293 0
M  V30 31 H 1.353541 -0.653560 7.877351 0
M  V30 32 H 0.035812 -0.371578 6.701731 0
M  V30 33 H 0.544403 -2.041174 7.065544 0
M  V30 34 H 2.816411 -2.913275 5.657262 0
M  V30 35 H 4.662308 -3.000072 3.626033 0
M  V30 36 H 3.658992 1.250145 1.779975 0
M  V30 37 H 2.051524 1.899614 0.028876 0
M  V30 38 H 1.745901 0.826892 -2.933394 0
M  V30 39 H -0.731539 -0.296430 -3.753156 0
M  V30 40 H -0.964530 1.347959 -3.024991 0
M  V30 41 H -1.550624 1.574358 -0.425771 0
M  V30 42 H -2.879448 2.103027 1.550206 0
M  V30 43 H -5.068483 0.928416 1.919331 0
M  V30 44 H -5.784659 -0.711958 0.270295 0
M  V30 45 H -5.691063 -1.483314 -1.949690 0
M  V30 46 H -3.073173 -2.982666 -1.363432 0
M  V30 47 H -4.756581 -3.410575 -0.879037 0
M  V30 48 H -4.260076 -3.526862 -2.569177 0
M  V30 49 H -3.250560 -1.774194 -3.710033 0
M  V30 50 H -4.138980 -0.142838 -3.629299 0
M  V30 51 H -4.952761 -1.634091 -4.127419 0
M  V30 52 H 2.720389 -1.885420 -1.887184 0
M  V30 53 H 4.300316 -2.527719 -0.168856 0
M  V30 END ATOM
M  V30 BEGIN BOND
M  V30 1 1 1 2
M  V30 2 2 2 3
M  V30 3 1 3 4
M  V30 4 1 4 5
M  V30 5 1 5 6
M  V30 6 2 6 7
M  V30 7 2 6 8
M  V30 8 1 6 9
M  V30 9 2 9 10
M  V30 10 1 10 11
M  V30 11 2 11 12
M  V30 12 1 12 13
M  V30 13 1 13 14
M  V30 14 2 14 15
M  V30 15 1 14 16
M  V30 16 1 16 17
M  V30 17 1 17 18
M  V30 18 2 18 19
M  V30 19 1 19 20
M  V30 20 2 20 21
M  V30 21 1 21 22
M  V30 22 2 22 23
M  V30 23 1 23 24
M  V30 24 1 24 25
M  V30 25 1 24 26
M  V30 26 1 12 27
M  V30 27 2 27 28
M  V30 28 2 4 29
M  V30 29 1 29 30
M  V30 30 1 30 2
M  V30 31 1 28 9
M  V30 32 1 23 18
M  V30 33 1 1 31
M  V30 34 1 1 32
M  V30 35 1 1 33
M  V30 36 1 3 34
M  V30 37 1 5 35
M  V30 38 1 10 36
M  V30 39 1 11 37
M  V30 40 1 13 38
M  V30 41 1 16 39
M  V30 42 1 16 40
M  V30 43 1 19 41
M  V30 44 1 20 42
M  V30 45 1 21 43
M  V30 46 1 22 44
M  V30 47 1 24 45
M  V30 48 1 25 46
M  V30 49 1 25 47
M  V30 50 1 25 48
M  V30 51 1 26 49
M  V30 52 1 26 50
M  V30 53 1 26 51
M  V30 54 1 27 52
M  V30 55 1 28 53
M  V30 END BOND
M  V30 END CTAB
M  END
>  <Dataset>  (818) 
ChEMBL_Kinases

>  <Ligand_Instance>  (818) 
nan

>  <PDB_ID>  (818) 
nan

>  <Standardized_SMILES>  (818) 
Cc1cc(NS(=O)(=O)c2ccc(NC(=O)COc3ccccc3C(C)C)cc2)no1

>  <Name>  (818) 
nan

>  <Pocket>  (818) 
nan

>  <ATP_Site>  (818) 
nan

>  <Peripheral>  (818) 
nan

>  <Num_H_Atoms_ProtBoundConf>  (818) 
nan

>  <Num_Resolved_Atoms>  (818) 
nan

>  <Num_Not_Resolved_Atoms>  (818) 
nan

$$$$
CHEMBL1308632
     RDKit          3D

  0  0  0  0  0  0  0  0  0  0999 V3000
M  V30 BEGIN CTAB
M  V30 COUNTS 42 44 0 0 0
M  V30 BEGIN ATOM
M  V30 1 C -0.438284 -2.306277 2.876292 0
M  V30 2 N -0.283414 -0.939436 3.350046 0
M  V30 3 C 0.910022 -0.317853 3.569704 0
M  V30 4 C 2.246648 -0.955172 3.350856 0
M  V30 5 S 2.771346 -0.584449 1.641389 0
M  V30 6 C 3.082213 1.210399 1.466594 0
M  V30 7 C 3.506433 1.484156 0.077877 0
M  V30 8 C 4.812559 1.441257 -0.327496 0
M  V30 9 C 5.117657 1.721445 -1.661758 0
M  V30 10 C 4.133156 2.036582 -2.563888 0
M  V30 11 Cl 4.534580 2.383759 -4.225899 0
M  V30 12 C 2.791840 2.096680 -2.217162 0
M  V30 13 Cl 1.481227 2.490733 -3.303235 0
M  V30 14 C 2.561018 1.805811 -0.870500 0
M  V30 15 N 0.692289 0.957223 4.009192 0
M  V30 16 N -0.641773 1.133656 4.064095 0
M  V30 17 C -1.201202 -0.015753 3.665133 0
M  V30 18 S -2.948829 -0.433951 3.522524 0
M  V30 19 C -3.497462 -0.039687 1.835212 0
M  V30 20 C -2.821348 -0.948502 0.840125 0
M  V30 21 O -1.738803 -0.780848 0.216128 0
M  V30 22 N -3.511415 -2.184611 0.563570 0
M  V30 23 C -2.866414 -3.040323 -0.377351 0
M  V30 24 N -2.058168 -3.927974 -0.380557 0
M  V30 25 C -1.640887 -4.558697 -1.461633 0
M  V30 26 C -2.202782 -4.144846 -2.728300 0
M  V30 27 S -3.367260 -2.774924 -2.156404 0
M  V30 28 H 0.272145 -2.920734 3.503044 0
M  V30 29 H -0.196933 -2.422679 1.805182 0
M  V30 30 H -1.440181 -2.698208 3.144138 0
M  V30 31 H 2.148365 -2.067033 3.379486 0
M  V30 32 H 2.990221 -0.674048 4.101890 0
M  V30 33 H 2.194904 1.797607 1.753707 0
M  V30 34 H 3.918444 1.465748 2.176582 0
M  V30 35 H 5.579891 1.191727 0.389510 0
M  V30 36 H 6.156953 1.680881 -1.954830 0
M  V30 37 H 1.510888 1.842658 -0.555835 0
M  V30 38 H -3.155010 0.995845 1.560847 0
M  V30 39 H -4.571090 -0.134830 1.696228 0
M  V30 40 H -4.420247 -2.438623 1.018666 0
M  V30 41 H -0.901880 -5.325135 -1.186692 0
M  V30 42 H -1.644526 -4.894123 -3.574767 0
M  V30 END ATOM
M  V30 BEGIN BOND
M  V30 1 1 1 2
M  V30 2 1 2 3
M  V30 3 1 3 4
M  V30 4 1 4 5
M  V30 5 1 5 6
M  V30 6 1 6 7
M  V30 7 2 7 8
M  V30 8 1 8 9
M  V30 9 2 9 10
M  V30 10 1 10 11
M  V30 11 1 10 12
M  V30 12 1 12 13
M  V30 13 2 12 14
M  V30 14 2 3 15
M  V30 15 1 15 16
M  V30 16 2 16 17
M  V30 17 1 17 18
M  V30 18 1 18 19
M  V30 19 1 19 20
M  V30 20 2 20 21
M  V30 21 1 20 22
M  V30 22 1 22 23
M  V30 23 2 23 24
M  V30 24 1 24 25
M  V30 25 2 25 26
M  V30 26 1 26 27
M  V30 27 1 17 2
M  V30 28 1 27 23
M  V30 29 1 14 7
M  V30 30 1 1 28
M  V30 31 1 1 29
M  V30 32 1 1 30
M  V30 33 1 4 31
M  V30 34 1 4 32
M  V30 35 1 6 33
M  V30 36 1 6 34
M  V30 37 1 8 35
M  V30 38 1 9 36
M  V30 39 1 14 37
M  V30 40 1 19 38
M  V30 41 1 19 39
M  V30 42 1 22 40
M  V30 43 1 25 41
M  V30 44 1 26 42
M  V30 END BOND
M  V30 END CTAB
M  END
>  <Dataset>  (819) 
ChEMBL_Kinases

>  <Ligand_Instance>  (819) 
nan

>  <PDB_ID>  (819) 
nan

>  <Standardized_SMILES>  (819) 
Cn1c(CSCc2ccc(Cl)c(Cl)c2)nnc1SCC(=O)Nc1nccs1

>  <Name>  (819) 
nan

>  <Pocket>  (819) 
nan

>  <ATP_Site>  (819) 
nan

>  <Peripheral>  (819) 
nan

>  <Num_H_Atoms_ProtBoundConf>  (819) 
nan

>  <Num_Resolved_Atoms>  (819) 
nan

>  <Num_Not_Resolved_Atoms>  (819) 
nan

$$$$
CHEMBL130866
     RDKit          3D

  0  0  0  0  0  0  0  0  0  0999 V3000
M  V30 BEGIN CTAB
M  V30 COUNTS 49 52 0 0 0
M  V30 BEGIN ATOM
M  V30 1 O 1.605496 -5.395893 -1.068861 0
M  V30 2 S 0.962267 -4.721516 0.114278 0
M  V30 3 O 1.820481 -4.988004 1.343194 0
M  V30 4 C 0.890913 -3.017331 -0.220318 0
M  V30 5 C 0.958029 -2.091842 0.795713 0
M  V30 6 C 0.899282 -0.748661 0.504171 0
M  V30 7 C 0.774325 -0.239551 -0.767735 0
M  V30 8 C 0.713638 1.182459 -1.059094 0
M  V30 9 C 0.588426 1.651428 -2.344270 0
M  V30 10 C 0.533233 3.002911 -2.592851 0
M  V30 11 N 0.604950 3.824979 -1.553989 0
M  V30 12 C 0.727522 3.432947 -0.277426 0
M  V30 13 N 0.793132 4.419321 0.737562 0
M  V30 14 C 0.921299 4.246034 2.139535 0
M  V30 15 C 0.972310 5.329922 3.011841 0
M  V30 16 C 1.094395 5.204689 4.358265 0
M  V30 17 C 1.176274 3.967082 4.946815 0
M  V30 18 Cl 1.332850 3.850262 6.685242 0
M  V30 19 C 1.131920 2.849773 4.140756 0
M  V30 20 C 1.007991 3.035107 2.789860 0
M  V30 21 N 0.775375 2.115377 -0.102261 0
M  V30 22 C 0.711337 -1.199257 -1.746614 0
M  V30 23 C 0.766158 -2.548851 -1.501283 0
M  V30 24 N -0.553722 -5.440484 0.383466 0
M  V30 25 C -1.459934 -5.379657 -0.702344 0
M  V30 26 C -2.733019 -4.642398 -0.497009 0
M  V30 27 N -3.224405 -4.645911 0.842082 0
M  V30 28 C -2.207576 -4.301820 1.803980 0
M  V30 29 C -1.094331 -5.304911 1.686353 0
M  V30 30 H 1.056938 -2.459784 1.812282 0
M  V30 31 H 0.958354 -0.093542 1.353929 0
M  V30 32 H 0.527960 1.011322 -3.205217 0
M  V30 33 H 0.433845 3.398580 -3.606450 0
M  V30 34 H 0.742186 5.423941 0.438657 0
M  V30 35 H 0.910942 6.337974 2.592710 0
M  V30 36 H 1.127118 6.095168 4.971142 0
M  V30 37 H 1.196277 1.890242 4.606936 0
M  V30 38 H 0.979932 2.125763 2.225136 0
M  V30 39 H 0.612866 -0.952161 -2.791812 0
M  V30 40 H 0.715592 -3.296389 -2.280750 0
M  V30 41 H -1.667265 -6.426622 -1.028172 0
M  V30 42 H -0.926861 -4.912150 -1.572414 0
M  V30 43 H -2.684254 -3.577148 -0.844115 0
M  V30 44 H -3.525906 -5.101798 -1.151890 0
M  V30 45 H -3.988446 -3.954697 0.910883 0
M  V30 46 H -2.663147 -4.461301 2.810360 0
M  V30 47 H -1.877361 -3.262494 1.743846 0
M  V30 48 H -0.306357 -5.050053 2.412359 0
M  V30 49 H -1.518129 -6.288505 1.999121 0
M  V30 END ATOM
M  V30 BEGIN BOND
M  V30 1 2 1 2
M  V30 2 2 2 3
M  V30 3 1 2 4
M  V30 4 2 4 5
M  V30 5 1 5 6
M  V30 6 2 6 7
M  V30 7 1 7 8
M  V30 8 2 8 9
M  V30 9 1 9 10
M  V30 10 2 10 11
M  V30 11 1 11 12
M  V30 12 1 12 13
M  V30 13 1 13 14
M  V30 14 2 14 15
M  V30 15 1 15 16
M  V30 16 2 16 17
M  V30 17 1 17 18
M  V30 18 1 17 19
M  V30 19 2 19 20
M  V30 20 2 12 21
M  V30 21 1 7 22
M  V30 22 2 22 23
M  V30 23 1 2 24
M  V30 24 1 24 25
M  V30 25 1 25 26
M  V30 26 1 26 27
M  V30 27 1 27 28
M  V30 28 1 28 29
M  V30 29 1 23 4
M  V30 30 1 29 24
M  V30 31 1 21 8
M  V30 32 1 20 14
M  V30 33 1 5 30
M  V30 34 1 6 31
M  V30 35 1 9 32
M  V30 36 1 10 33
M  V30 37 1 13 34
M  V30 38 1 15 35
M  V30 39 1 16 36
M  V30 40 1 19 37
M  V30 41 1 20 38
M  V30 42 1 22 39
M  V30 43 1 23 40
M  V30 44 1 25 41
M  V30 45 1 25 42
M  V30 46 1 26 43
M  V30 47 1 26 44
M  V30 48 1 27 45
M  V30 49 1 28 46
M  V30 50 1 28 47
M  V30 51 1 29 48
M  V30 52 1 29 49
M  V30 END BOND
M  V30 END CTAB
M  END
>  <Dataset>  (820) 
ChEMBL_Kinases

>  <Ligand_Instance>  (820) 
nan

>  <PDB_ID>  (820) 
nan

>  <Standardized_SMILES>  (820) 
O=S(=O)(c1ccc(-c2ccnc(Nc3ccc(Cl)cc3)n2)cc1)N1CCNCC1

>  <Name>  (820) 
nan

>  <Pocket>  (820) 
nan

>  <ATP_Site>  (820) 
nan

>  <Peripheral>  (820) 
nan

>  <Num_H_Atoms_ProtBoundConf>  (820) 
nan

>  <Num_Resolved_Atoms>  (820) 
nan

>  <Num_Not_Resolved_Atoms>  (820) 
nan

$$$$
CHEMBL1308869
     RDKit          3D

  0  0  0  0  0  0  0  0  0  0999 V3000
M  V30 BEGIN CTAB
M  V30 COUNTS 59 62 0 0 0
M  V30 BEGIN ATOM
M  V30 1 C 2.073000 -4.158450 5.150645 0
M  V30 2 C 1.991059 -3.669349 3.728686 0
M  V30 3 O 1.435681 -4.493827 2.983190 0
M  V30 4 N 2.560904 -2.380607 3.542257 0
M  V30 5 C 3.131774 -1.575304 4.573459 0
M  V30 6 C 2.574560 -0.171120 4.606262 0
M  V30 7 C 2.686361 0.567607 3.313351 0
M  V30 8 C 2.642562 -0.411811 2.202418 0
M  V30 9 C 2.664362 0.156784 0.939847 0
M  V30 10 C 2.631498 -0.610706 -0.223497 0
M  V30 11 S 2.660489 0.145813 -1.807874 0
M  V30 12 O 3.417380 1.426375 -1.686781 0
M  V30 13 O 3.326549 -0.811400 -2.758858 0
M  V30 14 N 1.107136 0.488991 -2.391498 0
M  V30 15 C 0.343211 1.396793 -1.605884 0
M  V30 16 C -0.607430 0.634494 -0.698796 0
M  V30 17 N -1.469925 -0.140402 -1.575466 0
M  V30 18 C -2.606309 -0.550731 -0.809081 0
M  V30 19 C -3.295409 0.704424 -0.322401 0
M  V30 20 C -4.796056 0.620744 -0.377904 0
M  V30 21 C -5.321758 0.291676 -1.734917 0
M  V30 22 C -4.457484 -0.656031 -2.517301 0
M  V30 23 C -3.577472 -1.420256 -1.551699 0
M  V30 24 C -0.653182 -1.206119 -2.084006 0
M  V30 25 C 0.393108 -0.579800 -2.992361 0
M  V30 26 C 2.575152 -1.988562 -0.162436 0
M  V30 27 C 2.553714 -2.549192 1.098281 0
M  V30 28 C 2.586082 -1.788664 2.248845 0
M  V30 29 H 1.414749 -3.576120 5.805791 0
M  V30 30 H 3.146733 -4.026102 5.477966 0
M  V30 31 H 1.862005 -5.221674 5.262527 0
M  V30 32 H 4.232872 -1.528822 4.513592 0
M  V30 33 H 2.878078 -2.012401 5.574934 0
M  V30 34 H 3.186501 0.386364 5.369718 0
M  V30 35 H 1.535770 -0.134943 4.958881 0
M  V30 36 H 1.861188 1.303888 3.253703 0
M  V30 37 H 3.687592 1.053685 3.274436 0
M  V30 38 H 2.708316 1.233926 0.768698 0
M  V30 39 H -0.291730 2.004503 -2.284339 0
M  V30 40 H 1.018984 2.057858 -1.049408 0
M  V30 41 H -1.134563 1.293306 -0.009627 0
M  V30 42 H -0.070235 -0.119497 -0.079509 0
M  V30 43 H -2.275577 -1.107866 0.096356 0
M  V30 44 H -2.988134 1.592058 -0.926764 0
M  V30 45 H -3.006150 0.941395 0.723183 0
M  V30 46 H -5.138905 -0.047312 0.429953 0
M  V30 47 H -5.153966 1.650636 -0.111346 0
M  V30 48 H -5.420928 1.232510 -2.339186 0
M  V30 49 H -6.345476 -0.116317 -1.607790 0
M  V30 50 H -5.100358 -1.424555 -3.009013 0
M  V30 51 H -3.858001 -0.187789 -3.298102 0
M  V30 52 H -3.094756 -2.275778 -2.019352 0
M  V30 53 H -4.267451 -1.839096 -0.772365 0
M  V30 54 H -0.095640 -1.742503 -1.282938 0
M  V30 55 H -1.177813 -1.939738 -2.716762 0
M  V30 56 H 1.096095 -1.303557 -3.416183 0
M  V30 57 H -0.170246 -0.164565 -3.859832 0
M  V30 58 H 2.546923 -2.652975 -1.005060 0
M  V30 59 H 2.513438 -3.614826 1.200906 0
M  V30 END ATOM
M  V30 BEGIN BOND
M  V30 1 1 1 2
M  V30 2 2 2 3
M  V30 3 1 2 4
M  V30 4 1 4 5
M  V30 5 1 5 6
M  V30 6 1 6 7
M  V30 7 1 7 8
M  V30 8 2 8 9
M  V30 9 1 9 10
M  V30 10 1 10 11
M  V30 11 2 11 12
M  V30 12 2 11 13
M  V30 13 1 11 14
M  V30 14 1 14 15
M  V30 15 1 15 16
M  V30 16 1 16 17
M  V30 17 1 17 18
M  V30 18 1 18 19
M  V30 19 1 19 20
M  V30 20 1 20 21
M  V30 21 1 21 22
M  V30 22 1 22 23
M  V30 23 1 17 24
M  V30 24 1 24 25
M  V30 25 2 10 26
M  V30 26 1 26 27
M  V30 27 2 27 28
M  V30 28 1 28 4
M  V30 29 1 28 8
M  V30 30 1 25 14
M  V30 31 1 23 18
M  V30 32 1 1 29
M  V30 33 1 1 30
M  V30 34 1 1 31
M  V30 35 1 5 32
M  V30 36 1 5 33
M  V30 37 1 6 34
M  V30 38 1 6 35
M  V30 39 1 7 36
M  V30 40 1 7 37
M  V30 41 1 9 38
M  V30 42 1 15 39
M  V30 43 1 15 40
M  V30 44 1 16 41
M  V30 45 1 16 42
M  V30 46 1 18 43
M  V30 47 1 19 44
M  V30 48 1 19 45
M  V30 49 1 20 46
M  V30 50 1 20 47
M  V30 51 1 21 48
M  V30 52 1 21 49
M  V30 53 1 22 50
M  V30 54 1 22 51
M  V30 55 1 23 52
M  V30 56 1 23 53
M  V30 57 1 24 54
M  V30 58 1 24 55
M  V30 59 1 25 56
M  V30 60 1 25 57
M  V30 61 1 26 58
M  V30 62 1 27 59
M  V30 END BOND
M  V30 END CTAB
M  END
>  <Dataset>  (821) 
ChEMBL_Kinases

>  <Ligand_Instance>  (821) 
nan

>  <PDB_ID>  (821) 
nan

>  <Standardized_SMILES>  (821) 
CC(=O)N1CCCc2cc(S(=O)(=O)N3CCN(C4CCCCC4)CC3)ccc21

>  <Name>  (821) 
nan

>  <Pocket>  (821) 
nan

>  <ATP_Site>  (821) 
nan

>  <Peripheral>  (821) 
nan

>  <Num_H_Atoms_ProtBoundConf>  (821) 
nan

>  <Num_Resolved_Atoms>  (821) 
nan

>  <Num_Not_Resolved_Atoms>  (821) 
nan

$$$$
CHEMBL1308898
     RDKit          3D

  0  0  0  0  0  0  0  0  0  0999 V3000
M  V30 BEGIN CTAB
M  V30 COUNTS 26 28 0 0 0
M  V30 BEGIN ATOM
M  V30 1 O -1.152343 -0.953788 0.892978 0
M  V30 2 C -0.511804 -2.031797 0.980263 0
M  V30 3 N 0.873892 -2.152040 0.853838 0
M  V30 4 C 1.587562 -0.919751 0.604266 0
M  V30 5 N 1.122526 0.232957 0.488164 0
M  V30 6 C 1.906361 1.273545 0.258635 0
M  V30 7 C 1.329658 2.648176 0.122468 0
M  V30 8 C 0.077776 3.064820 0.192811 0
M  V30 9 C -0.223509 4.374973 0.037290 0
M  V30 10 C 0.872802 5.228226 -0.197938 0
M  V30 11 Cl 0.837231 7.013821 -0.448762 0
M  V30 12 S 2.355490 4.041782 -0.182475 0
M  V30 13 C 3.271164 1.073257 0.145762 0
M  V30 14 S 3.332460 -0.788300 0.404726 0
M  V30 15 C -1.293047 -3.274566 1.238328 0
M  V30 16 C -0.886373 -4.515868 1.373118 0
M  V30 17 C -1.817717 -5.499742 1.609838 0
M  V30 18 C -3.121238 -5.114251 1.689938 0
M  V30 19 S -3.028939 -3.301727 1.422037 0
M  V30 20 H 1.414040 -3.040637 0.924525 0
M  V30 21 H -0.741250 2.350154 0.379552 0
M  V30 22 H -1.191094 4.853513 0.069351 0
M  V30 23 H 4.145700 1.739294 -0.039779 0
M  V30 24 H 0.186861 -4.743411 1.294358 0
M  V30 25 H -1.570426 -6.568557 1.736555 0
M  V30 26 H -3.999824 -5.727012 1.868300 0
M  V30 END ATOM
M  V30 BEGIN BOND
M  V30 1 2 1 2
M  V30 2 1 2 3
M  V30 3 1 3 4
M  V30 4 2 4 5
M  V30 5 1 5 6
M  V30 6 1 6 7
M  V30 7 2 7 8
M  V30 8 1 8 9
M  V30 9 2 9 10
M  V30 10 1 10 11
M  V30 11 1 10 12
M  V30 12 2 6 13
M  V30 13 1 13 14
M  V30 14 1 2 15
M  V30 15 2 15 16
M  V30 16 1 16 17
M  V30 17 2 17 18
M  V30 18 1 18 19
M  V30 19 1 14 4
M  V30 20 1 19 15
M  V30 21 1 12 7
M  V30 22 1 3 20
M  V30 23 1 8 21
M  V30 24 1 9 22
M  V30 25 1 13 23
M  V30 26 1 16 24
M  V30 27 1 17 25
M  V30 28 1 18 26
M  V30 END BOND
M  V30 END CTAB
M  END
>  <Dataset>  (822) 
ChEMBL_Kinases

>  <Ligand_Instance>  (822) 
nan

>  <PDB_ID>  (822) 
nan

>  <Standardized_SMILES>  (822) 
O=C(Nc1nc(-c2ccc(Cl)s2)cs1)c1cccs1

>  <Name>  (822) 
nan

>  <Pocket>  (822) 
nan

>  <ATP_Site>  (822) 
nan

>  <Peripheral>  (822) 
nan

>  <Num_H_Atoms_ProtBoundConf>  (822) 
nan

>  <Num_Resolved_Atoms>  (822) 
nan

>  <Num_Not_Resolved_Atoms>  (822) 
nan

$$$$
CHEMBL1310040
     RDKit          3D

  0  0  0  0  0  0  0  0  0  0999 V3000
M  V30 BEGIN CTAB
M  V30 COUNTS 36 38 0 0 0
M  V30 BEGIN ATOM
M  V30 1 O 0.472313 1.611693 3.542306 0
M  V30 2 C -0.109570 0.917150 2.636577 0
M  V30 3 C 0.695706 0.267381 1.615011 0
M  V30 4 C 0.145199 -0.868459 0.997189 0
M  V30 5 C 0.870491 -1.508008 -0.008914 0
M  V30 6 C 2.108672 -1.043717 -0.399539 0
M  V30 7 C 2.937116 -1.652996 -1.433618 0
M  V30 8 C 2.923380 -3.009956 -1.669031 0
M  V30 9 C 3.667814 -3.696825 -2.621191 0
M  V30 10 C 4.496406 -2.871878 -3.385980 0
M  V30 11 C 4.562817 -1.494984 -3.204709 0
M  V30 12 C 3.791500 -0.888132 -2.237713 0
M  V30 13 C 2.674828 0.087928 0.205080 0
M  V30 14 C 1.929433 0.694151 1.195108 0
M  V30 15 C -1.559765 0.831337 2.698533 0
M  V30 16 C -2.313728 0.892879 3.847801 0
M  V30 17 C -3.690470 0.824988 3.763887 0
M  V30 18 C -4.400486 0.694562 2.566504 0
M  V30 19 N -5.820554 0.636243 2.604595 0 CHG=1 VAL=4
M  V30 20 O -6.383044 0.519402 1.497792 0
M  V30 21 O -6.624412 0.695601 3.731774 0 CHG=-1 VAL=1
M  V30 22 C -3.627869 0.632661 1.398882 0
M  V30 23 C -2.262234 0.702763 1.518376 0
M  V30 24 H -0.821242 -1.341190 1.225738 0
M  V30 25 H 0.492596 -2.401563 -0.527167 0
M  V30 26 H 2.272313 -3.667310 -1.069071 0
M  V30 27 H 3.600037 -4.753054 -2.744337 0
M  V30 28 H 5.094858 -3.365369 -4.138752 0
M  V30 29 H 5.223497 -0.881489 -3.820730 0
M  V30 30 H 3.847445 0.194348 -2.099390 0
M  V30 31 H 3.650730 0.483989 -0.077026 0
M  V30 32 H 2.364235 1.569199 1.666836 0
M  V30 33 H -1.797976 0.993569 4.793604 0
M  V30 34 H -4.213933 0.881607 4.722231 0
M  V30 35 H -4.182373 0.531832 0.485614 0
M  V30 36 H -1.800064 0.654777 0.518713 0
M  V30 END ATOM
M  V30 BEGIN BOND
M  V30 1 2 1 2
M  V30 2 1 2 3
M  V30 3 2 3 4
M  V30 4 1 4 5
M  V30 5 2 5 6
M  V30 6 1 6 7
M  V30 7 2 7 8
M  V30 8 1 8 9
M  V30 9 2 9 10
M  V30 10 1 10 11
M  V30 11 2 11 12
M  V30 12 1 6 13
M  V30 13 2 13 14
M  V30 14 1 2 15
M  V30 15 2 15 16
M  V30 16 1 16 17
M  V30 17 2 17 18
M  V30 18 1 18 19
M  V30 19 2 19 20
M  V30 20 1 19 21
M  V30 21 1 18 22
M  V30 22 2 22 23
M  V30 23 1 14 3
M  V30 24 1 23 15
M  V30 25 1 12 7
M  V30 26 1 4 24
M  V30 27 1 5 25
M  V30 28 1 8 26
M  V30 29 1 9 27
M  V30 30 1 10 28
M  V30 31 1 11 29
M  V30 32 1 12 30
M  V30 33 1 13 31
M  V30 34 1 14 32
M  V30 35 1 16 33
M  V30 36 1 17 34
M  V30 37 1 22 35
M  V30 38 1 23 36
M  V30 END BOND
M  V30 END CTAB
M  END
>  <Dataset>  (823) 
ChEMBL_Kinases

>  <Ligand_Instance>  (823) 
nan

>  <PDB_ID>  (823) 
nan

>  <Standardized_SMILES>  (823) 
O=C(c1ccc(-c2ccccc2)cc1)c1ccc([N+](=O)[O-])cc1

>  <Name>  (823) 
nan

>  <Pocket>  (823) 
nan

>  <ATP_Site>  (823) 
nan

>  <Peripheral>  (823) 
nan

>  <Num_H_Atoms_ProtBoundConf>  (823) 
nan

>  <Num_Resolved_Atoms>  (823) 
nan

>  <Num_Not_Resolved_Atoms>  (823) 
nan

$$$$
CHEMBL1309068
     RDKit          3D

  0  0  0  0  0  0  0  0  0  0999 V3000
M  V30 BEGIN CTAB
M  V30 COUNTS 38 40 0 0 0
M  V30 BEGIN ATOM
M  V30 1 C 1.565359 1.636454 4.281489 0
M  V30 2 S 1.586594 0.224446 5.354775 0
M  V30 3 O 1.059908 0.648916 6.697248 0
M  V30 4 O 3.001853 -0.208970 5.563853 0
M  V30 5 O 0.686688 -1.070728 4.776377 0
M  V30 6 C -0.313890 -0.979266 3.818292 0
M  V30 7 C -1.622404 -0.756356 4.203001 0
M  V30 8 C -2.655564 -0.658780 3.263399 0
M  V30 9 C -2.254581 -0.801434 1.966837 0
M  V30 10 C -0.973796 -1.023563 1.527741 0
M  V30 11 C 0.025439 -1.115434 2.476184 0
M  V30 12 O -0.978620 -1.110208 0.142366 0
M  V30 13 C -2.276344 -0.946744 -0.389461 0
M  V30 14 C -2.526876 -0.994028 -1.742190 0
M  V30 15 C -1.183611 -1.243800 -2.469135 0
M  V30 16 C -1.585776 -1.266472 -3.797273 0
M  V30 17 C -0.392782 -1.501143 -4.646558 0
M  V30 18 C -0.383537 -1.590766 -6.045874 0
M  V30 19 C 0.694012 -1.806034 -6.866248 0
M  V30 20 C 1.910947 -1.951350 -6.241447 0
M  V30 21 C 2.051822 -1.887891 -4.895685 0
M  V30 22 C 0.912355 -1.668707 -4.162308 0
M  V30 23 C -3.127836 -0.742116 0.805436 0
M  V30 24 O -4.347550 -0.561627 0.731332 0
M  V30 25 H 0.568237 1.705188 3.785878 0
M  V30 26 H 1.674123 2.574914 4.873791 0
M  V30 27 H 2.335282 1.561019 3.475792 0
M  V30 28 H -1.843453 -0.656808 5.249240 0
M  V30 29 H -3.682321 -0.485430 3.540520 0
M  V30 30 H 1.047055 -1.289824 2.170168 0
M  V30 31 H -3.656137 -0.820692 -1.711695 0
M  V30 32 H -2.112515 -1.122962 -2.789513 0
M  V30 33 H -2.466489 -1.179061 -4.531688 0
M  V30 34 H -1.350819 -1.475258 -6.542422 0
M  V30 35 H 0.546684 -1.851068 -7.935230 0
M  V30 36 H 2.776469 -2.121256 -6.852722 0
M  V30 37 H 2.999228 -2.000744 -4.404882 0
M  V30 38 H 1.050727 -1.621112 -3.074115 0
M  V30 END ATOM
M  V30 BEGIN BOND
M  V30 1 1 1 2
M  V30 2 2 2 3
M  V30 3 2 2 4
M  V30 4 1 2 5
M  V30 5 1 5 6
M  V30 6 2 6 7
M  V30 7 1 7 8
M  V30 8 2 8 9
M  V30 9 1 9 10
M  V30 10 2 10 11
M  V30 11 1 10 12
M  V30 12 1 12 13
M  V30 13 2 13 14
M  V30 14 1 14 15
M  V30 15 2 15 16
M  V30 16 1 16 17
M  V30 17 2 17 18
M  V30 18 1 18 19
M  V30 19 2 19 20
M  V30 20 1 20 21
M  V30 21 2 21 22
M  V30 22 1 13 23
M  V30 23 2 23 24
M  V30 24 1 11 6
M  V30 25 1 22 17
M  V30 26 1 23 9
M  V30 27 1 1 25
M  V30 28 1 1 26
M  V30 29 1 1 27
M  V30 30 1 7 28
M  V30 31 1 8 29
M  V30 32 1 11 30
M  V30 33 1 14 31
M  V30 34 1 15 32
M  V30 35 1 16 33
M  V30 36 1 18 34
M  V30 37 1 19 35
M  V30 38 1 20 36
M  V30 39 1 21 37
M  V30 40 1 22 38
M  V30 END BOND
M  V30 END CTAB
M  END
>  <Dataset>  (824) 
ChEMBL_Kinases

>  <Ligand_Instance>  (824) 
nan

>  <PDB_ID>  (824) 
nan

>  <Standardized_SMILES>  (824) 
CS(=O)(=O)Oc1ccc2c(c1)O/C(=C\C=C\c1ccccc1)C2=O

>  <Name>  (824) 
nan

>  <Pocket>  (824) 
nan

>  <ATP_Site>  (824) 
nan

>  <Peripheral>  (824) 
nan

>  <Num_H_Atoms_ProtBoundConf>  (824) 
nan

>  <Num_Resolved_Atoms>  (824) 
nan

>  <Num_Not_Resolved_Atoms>  (824) 
nan

$$$$
CHEMBL1309311
     RDKit          3D

  0  0  0  0  0  0  0  0  0  0999 V3000
M  V30 BEGIN CTAB
M  V30 COUNTS 53 56 0 0 0
M  V30 BEGIN ATOM
M  V30 1 C 2.822151 -1.084652 7.838577 0
M  V30 2 O 2.071638 -1.952116 7.011624 0
M  V30 3 C 2.380946 -2.188371 5.688281 0
M  V30 4 C 3.420437 -1.658346 4.955415 0
M  V30 5 C 3.620149 -1.972492 3.646884 0
M  V30 6 C 2.778409 -2.846017 2.992295 0
M  V30 7 C 2.878355 -3.278891 1.558304 0
M  V30 8 N 2.163947 -2.455107 0.646287 0
M  V30 9 C 1.494380 -1.610091 -0.232296 0
M  V30 10 N 1.608282 -0.314709 -0.550147 0
M  V30 11 C 0.834388 0.298801 -1.448717 0
M  V30 12 S 1.268744 2.022871 -1.616166 0
M  V30 13 C 0.371640 3.077168 -0.485167 0
M  V30 14 C -1.069480 3.172716 -0.745389 0
M  V30 15 O -1.612887 3.914457 0.141834 0
M  V30 16 N -1.888647 2.609868 -1.755838 0
M  V30 17 C -3.260282 3.040815 -1.525210 0
M  V30 18 C -4.176965 2.494661 -2.538280 0
M  V30 19 C -4.798036 1.265407 -2.327774 0
M  V30 20 C -5.598547 0.982508 -3.414522 0
M  V30 21 C -5.409878 2.080354 -4.234551 0
M  V30 22 O -4.578894 2.946973 -3.704412 0
M  V30 23 N -0.100987 -0.416457 -2.061783 0
M  V30 24 C -0.312354 -1.709246 -1.832688 0
M  V30 25 C -1.322792 -2.286729 -2.558847 0
M  V30 26 C -1.561494 -3.626724 -2.340061 0
M  V30 27 C -0.802976 -4.324938 -1.428362 0
M  V30 28 C 0.193281 -3.674934 -0.738426 0
M  V30 29 C 0.498101 -2.324193 -0.900559 0
M  V30 30 C 1.723667 -3.385888 3.730617 0
M  V30 31 C 1.525345 -3.064995 5.055579 0
M  V30 32 H 3.108371 -0.142254 7.326778 0
M  V30 33 H 2.117580 -0.798250 8.674231 0
M  V30 34 H 3.724751 -1.573260 8.253665 0
M  V30 35 H 4.068277 -0.976033 5.485911 0
M  V30 36 H 4.422592 -1.570530 3.060698 0
M  V30 37 H 2.528659 -4.357392 1.504077 0
M  V30 38 H 3.983334 -3.401553 1.357037 0
M  V30 39 H 2.829281 -1.684250 0.993617 0
M  V30 40 H 0.483773 2.644526 0.552470 0
M  V30 41 H 0.849463 4.087958 -0.482679 0
M  V30 42 H -1.345526 2.035608 -2.417836 0
M  V30 43 H -3.564213 2.769574 -0.495159 0
M  V30 44 H -3.278880 4.164161 -1.559966 0
M  V30 45 H -4.716788 0.583522 -1.476175 0
M  V30 46 H -6.240935 0.174954 -3.680731 0
M  V30 47 H -5.805348 2.367265 -5.216583 0
M  V30 48 H -1.910490 -1.729126 -3.270978 0
M  V30 49 H -2.345729 -4.132277 -2.885061 0
M  V30 50 H -0.968658 -5.364446 -1.241219 0
M  V30 51 H 0.769966 -4.230769 -0.036628 0
M  V30 52 H 1.038999 -4.079896 3.244711 0
M  V30 53 H 0.677945 -3.533217 5.550923 0
M  V30 END ATOM
M  V30 BEGIN BOND
M  V30 1 1 1 2
M  V30 2 1 2 3
M  V30 3 2 3 4
M  V30 4 1 4 5
M  V30 5 2 5 6
M  V30 6 1 6 7
M  V30 7 1 7 8
M  V30 8 1 8 9
M  V30 9 2 9 10
M  V30 10 1 10 11
M  V30 11 1 11 12
M  V30 12 1 12 13
M  V30 13 1 13 14
M  V30 14 2 14 15
M  V30 15 1 14 16
M  V30 16 1 16 17
M  V30 17 1 17 18
M  V30 18 2 18 19
M  V30 19 1 19 20
M  V30 20 2 20 21
M  V30 21 1 21 22
M  V30 22 2 11 23
M  V30 23 1 23 24
M  V30 24 2 24 25
M  V30 25 1 25 26
M  V30 26 2 26 27
M  V30 27 1 27 28
M  V30 28 2 28 29
M  V30 29 1 6 30
M  V30 30 2 30 31
M  V30 31 1 31 3
M  V30 32 1 29 9
M  V30 33 1 22 18
M  V30 34 1 29 24
M  V30 35 1 1 32
M  V30 36 1 1 33
M  V30 37 1 1 34
M  V30 38 1 4 35
M  V30 39 1 5 36
M  V30 40 1 7 37
M  V30 41 1 7 38
M  V30 42 1 8 39
M  V30 43 1 13 40
M  V30 44 1 13 41
M  V30 45 1 16 42
M  V30 46 1 17 43
M  V30 47 1 17 44
M  V30 48 1 19 45
M  V30 49 1 20 46
M  V30 50 1 21 47
M  V30 51 1 25 48
M  V30 52 1 26 49
M  V30 53 1 27 50
M  V30 54 1 28 51
M  V30 55 1 30 52
M  V30 56 1 31 53
M  V30 END BOND
M  V30 END CTAB
M  END
>  <Dataset>  (825) 
ChEMBL_Kinases

>  <Ligand_Instance>  (825) 
nan

>  <PDB_ID>  (825) 
nan

>  <Standardized_SMILES>  (825) 
COc1ccc(CNc2nc(SCC(=O)NCc3ccco3)nc3ccccc23)cc1

>  <Name>  (825) 
nan

>  <Pocket>  (825) 
nan

>  <ATP_Site>  (825) 
nan

>  <Peripheral>  (825) 
nan

>  <Num_H_Atoms_ProtBoundConf>  (825) 
nan

>  <Num_Resolved_Atoms>  (825) 
nan

>  <Num_Not_Resolved_Atoms>  (825) 
nan

$$$$
CHEMBL1309340
     RDKit          3D

  0  0  0  0  0  0  0  0  0  0999 V3000
M  V30 BEGIN CTAB
M  V30 COUNTS 64 66 0 0 0
M  V30 BEGIN ATOM
M  V30 1 C 1.637158 -4.248050 7.116241 0
M  V30 2 C 1.456713 -3.345437 5.922756 0
M  V30 3 O 2.661121 -2.726226 5.508835 0
M  V30 4 C 2.609024 -1.872884 4.416575 0
M  V30 5 C 1.404646 -1.659512 3.780363 0
M  V30 6 C 1.334420 -0.816013 2.694968 0
M  V30 7 C 2.403685 -0.140304 2.168229 0
M  V30 8 C 2.567100 0.778432 1.042806 0
M  V30 9 N 3.043891 0.261731 -0.191499 0
M  V30 10 C 3.274230 1.505613 -1.007930 0
M  V30 11 C 2.018512 2.286480 -1.174272 0
M  V30 12 N 0.815101 1.571353 -1.318659 0
M  V30 13 C -0.360773 2.290251 -0.986496 0
M  V30 14 C -1.569792 1.446238 -1.177126 0
M  V30 15 C -2.525967 1.778616 -2.009348 0
M  V30 16 C -3.735123 1.002459 -2.246308 0
M  V30 17 C -4.014867 -0.176268 -1.619964 0
M  V30 18 C -5.154061 -0.924316 -1.831740 0
M  V30 19 C -6.097115 -0.475214 -2.735388 0
M  V30 20 O -7.287842 -1.116741 -3.052434 0
M  V30 21 C -7.594006 -2.335109 -2.415787 0
M  V30 22 C -5.839018 0.729332 -3.393043 0
M  V30 23 C -4.670993 1.458119 -3.149873 0
M  V30 24 C 0.775262 0.188095 -1.008635 0
M  V30 25 C 2.133196 -0.466215 -1.026271 0
M  V30 26 C 2.192874 -1.924250 -1.064851 0
M  V30 27 C 1.991650 -2.761345 0.118346 0
M  V30 28 O 2.120337 -4.106801 -0.326852 0
M  V30 29 C 3.602102 -0.383136 2.839942 0
M  V30 30 C 3.721827 -1.218885 3.930783 0
M  V30 31 H 0.670781 -4.253352 7.673749 0
M  V30 32 H 2.409197 -3.845178 7.785645 0
M  V30 33 H 1.836477 -5.303976 6.826442 0
M  V30 34 H 0.796008 -2.491868 6.251519 0
M  V30 35 H 0.913591 -3.861498 5.120565 0
M  V30 36 H 0.466732 -2.123017 4.079153 0
M  V30 37 H 0.413056 -0.616154 2.168410 0
M  V30 38 H 3.219562 1.636316 1.402885 0
M  V30 39 H 1.567709 1.297705 0.927510 0
M  V30 40 H 3.575265 1.106291 -1.998320 0
M  V30 41 H 4.111945 2.061226 -0.593448 0
M  V30 42 H 1.916617 2.916482 -0.239308 0
M  V30 43 H 2.136223 3.084237 -1.973008 0
M  V30 44 H -0.312661 2.721188 0.049212 0
M  V30 45 H -0.433405 3.165434 -1.660986 0
M  V30 46 H -1.667116 0.529070 -0.613403 0
M  V30 47 H -2.364724 2.705102 -2.538676 0
M  V30 48 H -3.338906 -0.590203 -0.909534 0
M  V30 49 H -5.373428 -1.856963 -1.334931 0
M  V30 50 H -7.629529 -2.136659 -1.315035 0
M  V30 51 H -8.556173 -2.743897 -2.768735 0
M  V30 52 H -6.768570 -3.063718 -2.558746 0
M  V30 53 H -6.516038 1.150591 -4.109181 0
M  V30 54 H -4.493369 2.382908 -3.667796 0
M  V30 55 H 0.144833 -0.300167 -1.811092 0
M  V30 56 H 0.234600 0.022283 -0.086816 0
M  V30 57 H 2.498785 -0.180914 -2.099605 0
M  V30 58 H 1.428065 -2.267436 -1.834265 0
M  V30 59 H 3.157687 -2.230579 -1.541196 0
M  V30 60 H 0.984783 -2.743481 0.568888 0
M  V30 61 H 2.772785 -2.692249 0.902070 0
M  V30 62 H 1.290411 -4.305712 -0.807357 0
M  V30 63 H 4.563153 0.058498 2.575850 0
M  V30 64 H 4.642827 -1.415703 4.459884 0
M  V30 END ATOM
M  V30 BEGIN BOND
M  V30 1 1 1 2
M  V30 2 1 2 3
M  V30 3 1 3 4
M  V30 4 2 4 5
M  V30 5 1 5 6
M  V30 6 2 6 7
M  V30 7 1 7 8
M  V30 8 1 8 9
M  V30 9 1 9 10
M  V30 10 1 10 11
M  V30 11 1 11 12
M  V30 12 1 12 13
M  V30 13 1 13 14
M  V30 14 2 14 15
M  V30 15 1 15 16
M  V30 16 2 16 17
M  V30 17 1 17 18
M  V30 18 2 18 19
M  V30 19 1 19 20
M  V30 20 1 20 21
M  V30 21 1 19 22
M  V30 22 2 22 23
M  V30 23 1 12 24
M  V30 24 1 24 25
M  V30 25 1 25 26
M  V30 26 1 26 27
M  V30 27 1 27 28
M  V30 28 1 7 29
M  V30 29 2 29 30
M  V30 30 1 30 4
M  V30 31 1 25 9
M  V30 32 1 23 16
M  V30 33 1 1 31
M  V30 34 1 1 32
M  V30 35 1 1 33
M  V30 36 1 2 34
M  V30 37 1 2 35
M  V30 38 1 5 36
M  V30 39 1 6 37
M  V30 40 1 8 38
M  V30 41 1 8 39
M  V30 42 1 10 40
M  V30 43 1 10 41
M  V30 44 1 11 42
M  V30 45 1 11 43
M  V30 46 1 13 44
M  V30 47 1 13 45
M  V30 48 1 14 46
M  V30 49 1 15 47
M  V30 50 1 17 48
M  V30 51 1 18 49
M  V30 52 1 21 50
M  V30 53 1 21 51
M  V30 54 1 21 52
M  V30 55 1 22 53
M  V30 56 1 23 54
M  V30 57 1 24 55
M  V30 58 1 24 56
M  V30 59 1 25 57
M  V30 60 1 26 58
M  V30 61 1 26 59
M  V30 62 1 27 60
M  V30 63 1 27 61
M  V30 64 1 28 62
M  V30 65 1 29 63
M  V30 66 1 30 64
M  V30 END BOND
M  V30 END CTAB
M  END
>  <Dataset>  (826) 
ChEMBL_Kinases

>  <Ligand_Instance>  (826) 
nan

>  <PDB_ID>  (826) 
nan

>  <Standardized_SMILES>  (826) 
CCOc1ccc(CN2CCN(C/C=C/c3ccc(OC)cc3)CC2CCO)cc1

>  <Name>  (826) 
nan

>  <Pocket>  (826) 
nan

>  <ATP_Site>  (826) 
nan

>  <Peripheral>  (826) 
nan

>  <Num_H_Atoms_ProtBoundConf>  (826) 
nan

>  <Num_Resolved_Atoms>  (826) 
nan

>  <Num_Not_Resolved_Atoms>  (826) 
nan

$$$$
CHEMBL1309477
     RDKit          3D

  0  0  0  0  0  0  0  0  0  0999 V3000
M  V30 BEGIN CTAB
M  V30 COUNTS 39 40 0 0 0
M  V30 BEGIN ATOM
M  V30 1 C 2.026415 -3.066216 1.631432 0
M  V30 2 N 2.335616 -3.669047 0.403246 0
M  V30 3 C 2.748388 -5.018638 0.386376 0
M  V30 4 S 2.834715 -2.672880 -0.856147 0
M  V30 5 O 4.074388 -1.930593 -0.438012 0
M  V30 6 O 3.212119 -3.490113 -2.054885 0
M  V30 7 C 1.672818 -1.491811 -1.365264 0
M  V30 8 C 0.766437 -1.805442 -2.361734 0
M  V30 9 C -0.136629 -0.830408 -2.729948 0
M  V30 10 C -0.174927 0.415999 -2.160941 0
M  V30 11 C 0.711248 0.766407 -1.165053 0
M  V30 12 C 0.823333 2.048830 -0.425992 0
M  V30 13 O 0.093392 2.069863 0.768539 0
M  V30 14 C -1.252546 1.912914 0.941925 0
M  V30 15 O -2.011070 1.721156 -0.038082 0
M  V30 16 C -1.784380 1.976588 2.321651 0
M  V30 17 C -1.066970 2.174343 3.419573 0
M  V30 18 O -1.700445 2.211037 4.654523 0
M  V30 19 C -2.839154 1.386904 4.825747 0
M  V30 20 C -3.816101 1.739038 3.723250 0
M  V30 21 O -3.151948 1.817239 2.499112 0
M  V30 22 C 1.611882 -0.228711 -0.809057 0
M  V30 23 H 0.973789 -2.906129 1.881912 0
M  V30 24 H 2.635917 -2.130472 1.719457 0
M  V30 25 H 2.423257 -3.737211 2.448904 0
M  V30 26 H 2.211143 -5.624899 -0.372342 0
M  V30 27 H 3.848413 -5.046253 0.198056 0
M  V30 28 H 2.517828 -5.470662 1.373354 0
M  V30 29 H 0.751149 -2.763662 -2.840840 0
M  V30 30 H -0.894598 -0.983600 -3.510338 0
M  V30 31 H -0.870878 1.185083 -2.444203 0
M  V30 32 H 1.889254 2.212178 -0.156035 0
M  V30 33 H 0.468376 2.874527 -1.080103 0
M  V30 34 H 0.003471 2.294460 3.232680 0
M  V30 35 H -3.287791 1.495601 5.830608 0
M  V30 36 H -2.523441 0.338325 4.622670 0
M  V30 37 H -4.299022 2.701423 4.041360 0
M  V30 38 H -4.592728 0.929569 3.657524 0
M  V30 39 H 2.356243 -0.045543 -0.026811 0
M  V30 END ATOM
M  V30 BEGIN BOND
M  V30 1 1 1 2
M  V30 2 1 2 3
M  V30 3 1 2 4
M  V30 4 2 4 5
M  V30 5 2 4 6
M  V30 6 1 4 7
M  V30 7 2 7 8
M  V30 8 1 8 9
M  V30 9 2 9 10
M  V30 10 1 10 11
M  V30 11 1 11 12
M  V30 12 1 12 13
M  V30 13 1 13 14
M  V30 14 2 14 15
M  V30 15 1 14 16
M  V30 16 2 16 17
M  V30 17 1 17 18
M  V30 18 1 18 19
M  V30 19 1 19 20
M  V30 20 1 20 21
M  V30 21 2 11 22
M  V30 22 1 22 7
M  V30 23 1 21 16
M  V30 24 1 1 23
M  V30 25 1 1 24
M  V30 26 1 1 25
M  V30 27 1 3 26
M  V30 28 1 3 27
M  V30 29 1 3 28
M  V30 30 1 8 29
M  V30 31 1 9 30
M  V30 32 1 10 31
M  V30 33 1 12 32
M  V30 34 1 12 33
M  V30 35 1 17 34
M  V30 36 1 19 35
M  V30 37 1 19 36
M  V30 38 1 20 37
M  V30 39 1 20 38
M  V30 40 1 22 39
M  V30 END BOND
M  V30 END CTAB
M  END
>  <Dataset>  (827) 
ChEMBL_Kinases

>  <Ligand_Instance>  (827) 
nan

>  <PDB_ID>  (827) 
nan

>  <Standardized_SMILES>  (827) 
CN(C)S(=O)(=O)c1cccc(COC(=O)C2=COCCO2)c1

>  <Name>  (827) 
nan

>  <Pocket>  (827) 
nan

>  <ATP_Site>  (827) 
nan

>  <Peripheral>  (827) 
nan

>  <Num_H_Atoms_ProtBoundConf>  (827) 
nan

>  <Num_Resolved_Atoms>  (827) 
nan

>  <Num_Not_Resolved_Atoms>  (827) 
nan

$$$$
CHEMBL1309506
     RDKit          3D

  0  0  0  0  0  0  0  0  0  0999 V3000
M  V30 BEGIN CTAB
M  V30 COUNTS 51 53 0 0 0
M  V30 BEGIN ATOM
M  V30 1 C 2.797767 -1.358998 6.358103 0
M  V30 2 O 2.788347 -2.305155 5.311544 0
M  V30 3 C 2.378494 -1.976421 4.032348 0
M  V30 4 C 1.942616 -0.741543 3.611580 0
M  V30 5 C 1.539780 -0.446487 2.327333 0
M  V30 6 N 1.095566 0.859493 1.987207 0
M  V30 7 C 1.623653 2.064357 1.515618 0
M  V30 8 O 2.836377 2.115508 1.296030 0
M  V30 9 C 0.582474 3.112523 1.356113 0
M  V30 10 C 0.893379 4.339160 0.908149 0
M  V30 11 C -0.040586 5.306579 0.753545 0
M  V30 12 C -1.380109 4.872040 1.119056 0
M  V30 13 S -1.121064 3.087345 1.650805 0
M  V30 14 C 1.580657 -1.468993 1.406279 0
M  V30 15 C 1.175403 -1.166808 0.040969 0
M  V30 16 O 0.838389 0.038374 -0.225250 0
M  V30 17 O 1.101088 -2.031905 -1.035172 0
M  V30 18 C 0.679684 -1.599133 -2.315437 0
M  V30 19 C -0.724435 -1.094529 -2.155294 0
M  V30 20 O -1.359319 -1.084275 -1.059918 0
M  V30 21 N -1.460093 -0.577996 -3.260475 0
M  V30 22 C -2.810133 -0.068605 -3.227594 0
M  V30 23 C -3.795167 -1.072267 -2.777532 0
M  V30 24 C -4.329768 -1.425103 -1.567961 0
M  V30 25 C -5.235761 -2.464933 -1.739982 0
M  V30 26 C -5.202588 -2.697585 -3.097258 0
M  V30 27 O -4.361096 -1.876902 -3.669287 0
M  V30 28 C 2.004825 -2.745030 1.737861 0
M  V30 29 C 2.398864 -2.973672 3.057506 0
M  V30 30 O 2.826149 -4.228369 3.418302 0
M  V30 31 C 2.864764 -5.250723 2.470298 0
M  V30 32 H 1.764908 -1.333209 6.816005 0
M  V30 33 H 3.468476 -1.653336 7.188806 0
M  V30 34 H 2.966213 -0.319308 6.020092 0
M  V30 35 H 1.910913 0.057424 4.335814 0
M  V30 36 H 0.076104 0.670909 2.218991 0
M  V30 37 H 1.908180 4.682016 0.626641 0
M  V30 38 H -0.024724 6.330353 0.419841 0
M  V30 39 H -2.355098 5.500272 1.079988 0
M  V30 40 H 1.360140 -0.792815 -2.618771 0
M  V30 41 H 0.755338 -2.425458 -3.036188 0
M  V30 42 H -0.910131 -0.595741 -4.169119 0
M  V30 43 H -2.765517 0.807413 -2.513587 0
M  V30 44 H -3.045496 0.321371 -4.239056 0
M  V30 45 H -4.056108 -0.937752 -0.662640 0
M  V30 46 H -5.825172 -2.967460 -0.974459 0
M  V30 47 H -5.815081 -3.469005 -3.560075 0
M  V30 48 H 2.011697 -3.499746 0.969661 0
M  V30 49 H 3.445413 -6.124316 2.836936 0
M  V30 50 H 3.378537 -4.881694 1.571706 0
M  V30 51 H 1.870957 -5.636570 2.186584 0
M  V30 END ATOM
M  V30 BEGIN BOND
M  V30 1 1 1 2
M  V30 2 1 2 3
M  V30 3 2 3 4
M  V30 4 1 4 5
M  V30 5 1 5 6
M  V30 6 1 6 7
M  V30 7 2 7 8
M  V30 8 1 7 9
M  V30 9 2 9 10
M  V30 10 1 10 11
M  V30 11 2 11 12
M  V30 12 1 12 13
M  V30 13 2 5 14
M  V30 14 1 14 15
M  V30 15 2 15 16
M  V30 16 1 15 17
M  V30 17 1 17 18
M  V30 18 1 18 19
M  V30 19 2 19 20
M  V30 20 1 19 21
M  V30 21 1 21 22
M  V30 22 1 22 23
M  V30 23 2 23 24
M  V30 24 1 24 25
M  V30 25 2 25 26
M  V30 26 1 26 27
M  V30 27 1 14 28
M  V30 28 2 28 29
M  V30 29 1 29 30
M  V30 30 1 30 31
M  V30 31 1 29 3
M  V30 32 1 13 9
M  V30 33 1 27 23
M  V30 34 1 1 32
M  V30 35 1 1 33
M  V30 36 1 1 34
M  V30 37 1 4 35
M  V30 38 1 6 36
M  V30 39 1 10 37
M  V30 40 1 11 38
M  V30 41 1 12 39
M  V30 42 1 18 40
M  V30 43 1 18 41
M  V30 44 1 21 42
M  V30 45 1 22 43
M  V30 46 1 22 44
M  V30 47 1 24 45
M  V30 48 1 25 46
M  V30 49 1 26 47
M  V30 50 1 28 48
M  V30 51 1 31 49
M  V30 52 1 31 50
M  V30 53 1 31 51
M  V30 END BOND
M  V30 END CTAB
M  END
>  <Dataset>  (828) 
ChEMBL_Kinases

>  <Ligand_Instance>  (828) 
nan

>  <PDB_ID>  (828) 
nan

>  <Standardized_SMILES>  (828) 
COc1cc(NC(=O)c2cccs2)c(C(=O)OCC(=O)NCc2ccco2)cc1OC

>  <Name>  (828) 
nan

>  <Pocket>  (828) 
nan

>  <ATP_Site>  (828) 
nan

>  <Peripheral>  (828) 
nan

>  <Num_H_Atoms_ProtBoundConf>  (828) 
nan

>  <Num_Resolved_Atoms>  (828) 
nan

>  <Num_Not_Resolved_Atoms>  (828) 
nan

$$$$
CHEMBL1309523
     RDKit          3D

  0  0  0  0  0  0  0  0  0  0999 V3000
M  V30 BEGIN CTAB
M  V30 COUNTS 57 59 0 0 0
M  V30 BEGIN ATOM
M  V30 1 C 5.114128 -7.657113 1.650697 0
M  V30 2 O 5.077608 -6.490206 0.865235 0
M  V30 3 C 4.004424 -5.619747 0.798105 0
M  V30 4 C 2.796858 -5.707741 1.458017 0
M  V30 5 C 1.808723 -4.763328 1.298095 0
M  V30 6 C 1.959363 -3.672513 0.471881 0
M  V30 7 C 0.903833 -2.679774 0.316611 0
M  V30 8 C 0.903984 -1.609268 -0.429509 0
M  V30 9 C -0.145208 -0.613332 -0.590362 0
M  V30 10 O 0.060176 0.370906 -1.380567 0
M  V30 11 N -1.399535 -0.590417 0.031151 0
M  V30 12 C -2.559454 0.225941 0.074105 0
M  V30 13 C -2.336175 1.560786 0.674377 0
M  V30 14 C -1.364038 2.459642 0.073351 0
M  V30 15 C -0.102914 2.650973 0.685507 0
M  V30 16 C 0.925194 3.460131 0.256425 0
M  V30 17 C 0.726389 4.176693 -0.901152 0
M  V30 18 F 1.696469 4.975427 -1.355914 0
M  V30 19 C -0.471246 4.054806 -1.567443 0
M  V30 20 C -1.420603 3.228073 -1.058219 0
M  V30 21 N -3.608677 2.208314 1.034113 0
M  V30 22 C -4.110171 1.681781 2.293263 0
M  V30 23 C -5.618703 1.700910 2.301325 0
M  V30 24 O -6.002111 0.701010 1.411803 0
M  V30 25 C -5.645054 1.074798 0.151991 0
M  V30 26 C -4.603589 2.117281 -0.003244 0
M  V30 27 C 3.170518 -3.593127 -0.183969 0
M  V30 28 C 4.201585 -4.523101 -0.055105 0
M  V30 29 O 5.393347 -4.367944 -0.753547 0
M  V30 30 C 5.512000 -3.236735 -1.592868 0
M  V30 31 H 4.304987 -7.663619 2.404371 0
M  V30 32 H 4.999242 -8.581360 1.049074 0
M  V30 33 H 6.060236 -7.697382 2.262024 0
M  V30 34 H 2.659314 -6.548827 2.104209 0
M  V30 35 H 0.884434 -4.915055 1.861231 0
M  V30 36 H -0.011247 -2.847404 0.899066 0
M  V30 37 H 1.816959 -1.469254 -0.991090 0
M  V30 38 H -1.448143 -1.468729 0.645481 0
M  V30 39 H -3.340383 -0.286178 0.679897 0
M  V30 40 H -3.052979 0.298335 -0.946142 0
M  V30 41 H -1.909650 1.329570 1.720824 0
M  V30 42 H 0.133265 2.109573 1.618985 0
M  V30 43 H 1.855275 3.538244 0.796375 0
M  V30 44 H -0.607124 4.623621 -2.470498 0
M  V30 45 H -2.326813 3.188159 -1.639141 0
M  V30 46 H -3.764450 2.291592 3.157051 0
M  V30 47 H -3.777044 0.638756 2.382380 0
M  V30 48 H -5.994745 1.534811 3.320551 0
M  V30 49 H -5.993798 2.668985 1.866373 0
M  V30 50 H -6.600084 1.435357 -0.342098 0
M  V30 51 H -5.398409 0.156249 -0.453433 0
M  V30 52 H -4.153278 1.998113 -0.987696 0
M  V30 53 H -5.098207 3.132725 -0.028063 0
M  V30 54 H 3.361629 -2.765636 -0.849040 0
M  V30 55 H 5.396536 -2.321083 -0.943196 0
M  V30 56 H 6.513934 -3.199842 -2.046858 0
M  V30 57 H 4.685436 -3.216599 -2.353698 0
M  V30 END ATOM
M  V30 BEGIN BOND
M  V30 1 1 1 2
M  V30 2 1 2 3
M  V30 3 2 3 4
M  V30 4 1 4 5
M  V30 5 2 5 6
M  V30 6 1 6 7
M  V30 7 2 7 8
M  V30 8 1 8 9
M  V30 9 2 9 10
M  V30 10 1 9 11
M  V30 11 1 11 12
M  V30 12 1 12 13
M  V30 13 1 13 14
M  V30 14 2 14 15
M  V30 15 1 15 16
M  V30 16 2 16 17
M  V30 17 1 17 18
M  V30 18 1 17 19
M  V30 19 2 19 20
M  V30 20 1 13 21
M  V30 21 1 21 22
M  V30 22 1 22 23
M  V30 23 1 23 24
M  V30 24 1 24 25
M  V30 25 1 25 26
M  V30 26 1 6 27
M  V30 27 2 27 28
M  V30 28 1 28 29
M  V30 29 1 29 30
M  V30 30 1 28 3
M  V30 31 1 20 14
M  V30 32 1 26 21
M  V30 33 1 1 31
M  V30 34 1 1 32
M  V30 35 1 1 33
M  V30 36 1 4 34
M  V30 37 1 5 35
M  V30 38 1 7 36
M  V30 39 1 8 37
M  V30 40 1 11 38
M  V30 41 1 12 39
M  V30 42 1 12 40
M  V30 43 1 13 41
M  V30 44 1 15 42
M  V30 45 1 16 43
M  V30 46 1 19 44
M  V30 47 1 20 45
M  V30 48 1 22 46
M  V30 49 1 22 47
M  V30 50 1 23 48
M  V30 51 1 23 49
M  V30 52 1 25 50
M  V30 53 1 25 51
M  V30 54 1 26 52
M  V30 55 1 26 53
M  V30 56 1 27 54
M  V30 57 1 30 55
M  V30 58 1 30 56
M  V30 59 1 30 57
M  V30 END BOND
M  V30 END CTAB
M  END
>  <Dataset>  (829) 
ChEMBL_Kinases

>  <Ligand_Instance>  (829) 
nan

>  <PDB_ID>  (829) 
nan

>  <Standardized_SMILES>  (829) 
COc1ccc(/C=C/C(=O)NCC(c2ccc(F)cc2)N2CCOCC2)cc1OC

>  <Name>  (829) 
nan

>  <Pocket>  (829) 
nan

>  <ATP_Site>  (829) 
nan

>  <Peripheral>  (829) 
nan

>  <Num_H_Atoms_ProtBoundConf>  (829) 
nan

>  <Num_Resolved_Atoms>  (829) 
nan

>  <Num_Not_Resolved_Atoms>  (829) 
nan

$$$$
CHEMBL1309720
     RDKit          3D

  0  0  0  0  0  0  0  0  0  0999 V3000
M  V30 BEGIN CTAB
M  V30 COUNTS 35 35 0 0 0
M  V30 BEGIN ATOM
M  V30 1 C -0.383949 -2.607873 4.783700 0
M  V30 2 O -0.574793 -2.049469 3.495874 0
M  V30 3 C 0.079746 -2.565319 2.368374 0
M  V30 4 O 0.805384 -3.541048 2.718397 0
M  V30 5 C -0.320177 -1.767838 1.146517 0
M  V30 6 N 0.394346 -2.358703 0.027226 0
M  V30 7 C 0.402470 -1.973303 -1.317374 0
M  V30 8 C 1.135388 -2.599961 -2.418146 0
M  V30 9 O -0.270786 -0.986105 -1.703844 0
M  V30 10 N 0.050908 -0.416677 1.372280 0
M  V30 11 C 0.037271 0.875581 0.780118 0
M  V30 12 C -1.036955 1.727787 0.973404 0
M  V30 13 C -1.065484 3.002475 0.397677 0
M  V30 14 C 0.026193 3.349340 -0.361451 0
M  V30 15 C 1.104202 2.513797 -0.564541 0
M  V30 16 C 2.260604 2.961586 -1.405901 0
M  V30 17 N 1.073517 1.291701 0.019234 0
M  V30 18 C -1.790059 -2.013089 0.931604 0
M  V30 19 F -1.969282 -3.367976 0.728981 0
M  V30 20 F -2.537719 -1.709075 2.053952 0
M  V30 21 F -2.268460 -1.366557 -0.181531 0
M  V30 22 H -0.142925 -3.691171 4.717198 0
M  V30 23 H -1.271921 -2.400260 5.411966 0
M  V30 24 H 0.528546 -2.126792 5.213858 0
M  V30 25 H 1.021690 -3.203723 0.151981 0
M  V30 26 H 1.830857 -3.370143 -1.989855 0
M  V30 27 H 1.708487 -1.819092 -2.955519 0
M  V30 28 H 0.466588 -3.086804 -3.179124 0
M  V30 29 H 0.523718 -0.089682 2.266751 0
M  V30 30 H -1.861743 1.390936 1.581630 0
M  V30 31 H -1.915030 3.678731 0.549472 0
M  V30 32 H 0.080128 4.326647 -0.844392 0
M  V30 33 H 3.114603 2.271622 -1.143373 0
M  V30 34 H 2.606299 3.973027 -1.102136 0
M  V30 35 H 2.052501 2.875976 -2.493715 0
M  V30 END ATOM
M  V30 BEGIN BOND
M  V30 1 1 1 2
M  V30 2 1 2 3
M  V30 3 2 3 4
M  V30 4 1 3 5
M  V30 5 1 5 6
M  V30 6 1 6 7
M  V30 7 1 7 8
M  V30 8 2 7 9
M  V30 9 1 5 10
M  V30 10 1 10 11
M  V30 11 2 11 12
M  V30 12 1 12 13
M  V30 13 2 13 14
M  V30 14 1 14 15
M  V30 15 1 15 16
M  V30 16 2 15 17
M  V30 17 1 5 18
M  V30 18 1 18 19
M  V30 19 1 18 20
M  V30 20 1 18 21
M  V30 21 1 17 11
M  V30 22 1 1 22
M  V30 23 1 1 23
M  V30 24 1 1 24
M  V30 25 1 6 25
M  V30 26 1 8 26
M  V30 27 1 8 27
M  V30 28 1 8 28
M  V30 29 1 10 29
M  V30 30 1 12 30
M  V30 31 1 13 31
M  V30 32 1 14 32
M  V30 33 1 16 33
M  V30 34 1 16 34
M  V30 35 1 16 35
M  V30 END BOND
M  V30 END CTAB
M  END
>  <Dataset>  (830) 
ChEMBL_Kinases

>  <Ligand_Instance>  (830) 
nan

>  <PDB_ID>  (830) 
nan

>  <Standardized_SMILES>  (830) 
COC(=O)C(NC(C)=O)(Nc1cccc(C)n1)C(F)(F)F

>  <Name>  (830) 
nan

>  <Pocket>  (830) 
nan

>  <ATP_Site>  (830) 
nan

>  <Peripheral>  (830) 
nan

>  <Num_H_Atoms_ProtBoundConf>  (830) 
nan

>  <Num_Resolved_Atoms>  (830) 
nan

>  <Num_Not_Resolved_Atoms>  (830) 
nan

$$$$
CHEMBL1310005
     RDKit          3D

  0  0  0  0  0  0  0  0  0  0999 V3000
M  V30 BEGIN CTAB
M  V30 COUNTS 52 56 0 0 0
M  V30 BEGIN ATOM
M  V30 1 C -3.321715 -1.086266 4.870592 0
M  V30 2 C -2.262164 -1.517267 3.936093 0
M  V30 3 N -1.038344 -1.000844 3.929900 0
M  V30 4 C -0.079834 -1.417909 3.058148 0
M  V30 5 S 1.601292 -0.802545 2.993791 0
M  V30 6 C 2.533904 -1.605672 1.654843 0
M  V30 7 C 2.047501 -1.190840 0.325502 0
M  V30 8 O 2.953639 -0.557291 -0.263689 0
M  V30 9 N 1.908608 -0.638232 -1.000557 0
M  V30 10 C 2.715346 0.094460 -1.945117 0
M  V30 11 C 2.081935 1.477546 -2.090493 0
M  V30 12 N 0.880505 1.583049 -1.298833 0
M  V30 13 C 0.635318 2.526159 -0.284716 0
M  V30 14 C 1.485655 3.551622 -0.039678 0
M  V30 15 C 1.263346 4.490911 0.966250 0
M  V30 16 C 0.122167 4.385876 1.764408 0
M  V30 17 C -0.737841 3.342065 1.511001 0
M  V30 18 C -0.480253 2.442531 0.512254 0
M  V30 19 C -0.008053 0.537633 -1.757098 0
M  V30 20 C 0.587279 -0.843329 -1.576028 0
M  V30 21 C -0.444944 -2.423821 2.160790 0
M  V30 22 O 0.190217 -3.040762 1.225225 0
M  V30 23 C -0.535032 -3.940164 0.604020 0
M  V30 24 C -0.225512 -4.794096 -0.433703 0
M  V30 25 C -1.191910 -5.656913 -0.905758 0
M  V30 26 C -2.449460 -5.634510 -0.315905 0
M  V30 27 C -2.781501 -4.786165 0.725315 0
M  V30 28 C -1.792997 -3.937491 1.172417 0
M  V30 29 C -1.730756 -2.960658 2.173445 0
M  V30 30 N -2.604805 -2.498866 3.054098 0
M  V30 31 H -2.903723 -0.823320 5.872564 0
M  V30 32 H -4.041088 -1.922477 5.068205 0
M  V30 33 H -3.945371 -0.266818 4.455260 0
M  V30 34 H 3.597753 -1.384406 1.859460 0
M  V30 35 H 2.438048 -2.718346 1.671743 0
M  V30 36 H 2.711286 -0.448787 -2.925639 0
M  V30 37 H 3.770357 0.194907 -1.659494 0
M  V30 38 H 1.827824 1.607200 -3.162931 0
M  V30 39 H 2.830153 2.263300 -1.858140 0
M  V30 40 H 2.383238 3.740287 -0.574531 0
M  V30 41 H 1.944679 5.320026 1.168530 0
M  V30 42 H -0.018892 5.136541 2.539950 0
M  V30 43 H -1.593483 3.339427 2.178287 0
M  V30 44 H -1.229692 1.671548 0.416152 0
M  V30 45 H -0.238466 0.765790 -2.837869 0
M  V30 46 H -0.987543 0.541808 -1.244788 0
M  V30 47 H 0.721013 -1.282409 -2.582872 0
M  V30 48 H -0.058020 -1.517519 -1.020616 0
M  V30 49 H 0.758841 -4.800394 -0.884424 0
M  V30 50 H -0.978191 -6.336941 -1.716754 0
M  V30 51 H -3.194726 -6.321707 -0.702028 0
M  V30 52 H -3.751246 -4.752463 1.197106 0
M  V30 END ATOM
M  V30 BEGIN BOND
M  V30 1 1 1 2
M  V30 2 2 2 3
M  V30 3 1 3 4
M  V30 4 1 4 5
M  V30 5 1 5 6
M  V30 6 1 6 7
M  V30 7 2 7 8
M  V30 8 1 7 9
M  V30 9 1 9 10
M  V30 10 1 10 11
M  V30 11 1 11 12
M  V30 12 1 12 13
M  V30 13 2 13 14
M  V30 14 1 14 15
M  V30 15 2 15 16
M  V30 16 1 16 17
M  V30 17 2 17 18
M  V30 18 1 12 19
M  V30 19 1 19 20
M  V30 20 2 4 21
M  V30 21 1 21 22
M  V30 22 1 22 23
M  V30 23 2 23 24
M  V30 24 1 24 25
M  V30 25 2 25 26
M  V30 26 1 26 27
M  V30 27 2 27 28
M  V30 28 1 28 29
M  V30 29 2 29 30
M  V30 30 1 30 2
M  V30 31 1 20 9
M  V30 32 1 29 21
M  V30 33 1 18 13
M  V30 34 1 28 23
M  V30 35 1 1 31
M  V30 36 1 1 32
M  V30 37 1 1 33
M  V30 38 1 6 34
M  V30 39 1 6 35
M  V30 40 1 10 36
M  V30 41 1 10 37
M  V30 42 1 11 38
M  V30 43 1 11 39
M  V30 44 1 14 40
M  V30 45 1 15 41
M  V30 46 1 16 42
M  V30 47 1 17 43
M  V30 48 1 18 44
M  V30 49 1 19 45
M  V30 50 1 19 46
M  V30 51 1 20 47
M  V30 52 1 20 48
M  V30 53 1 24 49
M  V30 54 1 25 50
M  V30 55 1 26 51
M  V30 56 1 27 52
M  V30 END BOND
M  V30 END CTAB
M  END
>  <Dataset>  (831) 
ChEMBL_Kinases

>  <Ligand_Instance>  (831) 
nan

>  <PDB_ID>  (831) 
nan

>  <Standardized_SMILES>  (831) 
Cc1nc(SCC(=O)N2CCN(c3ccccc3)CC2)c2oc3ccccc3c2n1

>  <Name>  (831) 
nan

>  <Pocket>  (831) 
nan

>  <ATP_Site>  (831) 
nan

>  <Peripheral>  (831) 
nan

>  <Num_H_Atoms_ProtBoundConf>  (831) 
nan

>  <Num_Resolved_Atoms>  (831) 
nan

>  <Num_Not_Resolved_Atoms>  (831) 
nan

$$$$
CHEMBL1309035
     RDKit          3D

  0  0  0  0  0  0  0  0  0  0999 V3000
M  V30 BEGIN CTAB
M  V30 COUNTS 37 39 0 0 0
M  V30 BEGIN ATOM
M  V30 1 O 0.456748 -4.277609 2.550569 0
M  V30 2 C 0.606070 -3.124441 2.091592 0
M  V30 3 N 1.272751 -2.242649 2.978169 0
M  V30 4 C 1.494219 -0.887049 2.536849 0
M  V30 5 O 2.067274 -0.019542 3.222811 0
M  V30 6 N 1.028596 -0.514967 1.233728 0
M  V30 7 C 1.209862 0.830777 0.716592 0
M  V30 8 C 0.057327 1.749407 1.045604 0
M  V30 9 C 0.267587 3.136414 0.501405 0
M  V30 10 C -0.188044 3.413637 -0.780100 0
M  V30 11 C -0.066241 4.642969 -1.411339 0
M  V30 12 C 0.553889 5.650361 -0.700794 0
M  V30 13 F 0.699305 6.876425 -1.272481 0
M  V30 14 C 1.017374 5.402544 0.577730 0
M  V30 15 C 0.890004 4.184235 1.187043 0
M  V30 16 C 0.357659 -1.411870 0.348883 0
M  V30 17 O -0.046602 -1.079315 -0.787985 0
M  V30 18 C 0.120047 -2.786137 0.767546 0
M  V30 19 C -0.494477 -3.673892 0.036490 0
M  V30 20 C -0.779070 -5.085303 0.421684 0
M  V30 21 C -0.481916 -5.984843 -0.672219 0
M  V30 22 C -0.702011 -7.314041 -0.496464 0
M  V30 23 C -1.198553 -7.744462 0.717046 0
M  V30 24 S -1.345839 -6.097651 1.640845 0
M  V30 25 H 1.611495 -2.513611 3.927097 0
M  V30 26 H 2.101332 1.240024 1.264629 0
M  V30 27 H 1.475856 0.853400 -0.348565 0
M  V30 28 H -0.044149 1.899452 2.138792 0
M  V30 29 H -0.918681 1.368678 0.685541 0
M  V30 30 H -0.675191 2.621531 -1.334739 0
M  V30 31 H -0.453012 4.770111 -2.418548 0
M  V30 32 H 1.513245 6.183690 1.166745 0
M  V30 33 H 1.234435 3.932856 2.188317 0
M  V30 34 H -0.804120 -3.279075 -0.920358 0
M  V30 35 H -0.088101 -5.830187 -1.692858 0
M  V30 36 H -0.617083 -8.242181 -1.023571 0
M  V30 37 H -1.534338 -8.604109 1.357286 0
M  V30 END ATOM
M  V30 BEGIN BOND
M  V30 1 2 1 2
M  V30 2 1 2 3
M  V30 3 1 3 4
M  V30 4 2 4 5
M  V30 5 1 4 6
M  V30 6 1 6 7
M  V30 7 1 7 8
M  V30 8 1 8 9
M  V30 9 2 9 10
M  V30 10 1 10 11
M  V30 11 2 11 12
M  V30 12 1 12 13
M  V30 13 1 12 14
M  V30 14 2 14 15
M  V30 15 1 6 16
M  V30 16 2 16 17
M  V30 17 1 16 18
M  V30 18 2 18 19
M  V30 19 1 19 20
M  V30 20 2 20 21
M  V30 21 1 21 22
M  V30 22 2 22 23
M  V30 23 1 23 24
M  V30 24 1 18 2
M  V30 25 1 24 20
M  V30 26 1 15 9
M  V30 27 1 3 25
M  V30 28 1 7 26
M  V30 29 1 7 27
M  V30 30 1 8 28
M  V30 31 1 8 29
M  V30 32 1 10 30
M  V30 33 1 11 31
M  V30 34 1 14 32
M  V30 35 1 15 33
M  V30 36 1 19 34
M  V30 37 1 21 35
M  V30 38 1 22 36
M  V30 39 1 23 37
M  V30 END BOND
M  V30 END CTAB
M  END
>  <Dataset>  (832) 
ChEMBL_Kinases

>  <Ligand_Instance>  (832) 
nan

>  <PDB_ID>  (832) 
nan

>  <Standardized_SMILES>  (832) 
O=C1NC(=O)N(CCc2ccc(F)cc2)C(=O)/C1=C/c1cccs1

>  <Name>  (832) 
nan

>  <Pocket>  (832) 
nan

>  <ATP_Site>  (832) 
nan

>  <Peripheral>  (832) 
nan

>  <Num_H_Atoms_ProtBoundConf>  (832) 
nan

>  <Num_Resolved_Atoms>  (832) 
nan

>  <Num_Not_Resolved_Atoms>  (832) 
nan

$$$$
CHEMBL1326295
     RDKit          3D

  0  0  0  0  0  0  0  0  0  0999 V3000
M  V30 BEGIN CTAB
M  V30 COUNTS 51 53 0 0 0
M  V30 BEGIN ATOM
M  V30 1 C -1.296391 -4.561573 2.847170 0
M  V30 2 C -0.063860 -4.018709 2.471435 0
M  V30 3 C 0.475444 -4.225508 1.043917 0
M  V30 4 N 0.605848 -2.834058 0.474606 0
M  V30 5 C 1.854366 -2.400429 0.789851 0
M  V30 6 N 2.931770 -2.888685 1.228948 0
M  V30 7 C 1.638843 -0.934119 0.529726 0
M  V30 8 C 2.988294 -0.304767 0.683497 0
M  V30 9 O 2.616795 0.952212 0.662581 0
M  V30 10 N 3.933870 0.698038 0.795373 0
M  V30 11 C 3.885239 2.124309 0.829024 0
M  V30 12 C 3.095955 2.727981 1.956996 0
M  V30 13 C 3.147682 4.253975 1.857216 0
M  V30 14 O 2.410723 4.819197 2.870730 0
M  V30 15 C 1.054002 4.537005 2.834382 0
M  V30 16 C 0.482328 -0.192027 0.085982 0
M  V30 17 C -0.487785 -1.120453 -0.095905 0
M  V30 18 C -1.616947 -0.367869 -0.576089 0
M  V30 19 O -1.662796 0.895292 -0.739331 0
M  V30 20 N -2.783771 -1.035065 -0.902941 0
M  V30 21 C -3.828952 -0.318062 -1.434953 0
M  V30 22 C -4.795377 -1.194995 -1.803964 0
M  V30 23 C -4.890318 -2.563438 -1.736477 0
M  V30 24 C -3.749932 -3.130057 -1.153097 0
M  V30 25 C -3.794003 -4.642165 -1.225261 0
M  V30 26 C -2.689310 -2.365705 -0.720610 0
M  V30 27 N -1.631222 -3.022551 -0.256778 0
M  V30 28 C -0.539290 -2.406335 0.060478 0
M  V30 29 H -0.962016 -4.030406 3.767953 0
M  V30 30 H -1.114355 -4.082423 3.853353 0
M  V30 31 H 0.852013 -3.410941 2.770106 0
M  V30 32 H 1.405085 -4.767079 1.060976 0
M  V30 33 H -0.310801 -4.808428 0.554600 0
M  V30 34 H 3.742655 -2.210379 1.362798 0
M  V30 35 H 4.599134 -0.182490 0.838640 0
M  V30 36 H 3.419807 2.491534 -0.141598 0
M  V30 37 H 4.907182 2.576244 0.769263 0
M  V30 38 H 2.034330 2.453292 2.021571 0
M  V30 39 H 3.520773 2.508478 2.977613 0
M  V30 40 H 4.165148 4.664265 1.846763 0
M  V30 41 H 2.663960 4.579651 0.896908 0
M  V30 42 H 0.597858 4.860810 1.843772 0
M  V30 43 H 0.568728 5.263055 3.566583 0
M  V30 44 H 0.742260 3.562201 3.148839 0
M  V30 45 H 0.600053 0.839791 -0.033830 0
M  V30 46 H -3.748394 0.735767 -1.458535 0
M  V30 47 H -5.644508 -0.573803 -2.164562 0
M  V30 48 H -5.728613 -3.095768 -2.131351 0
M  V30 49 H -4.796208 -5.016630 -1.068854 0
M  V30 50 H -3.556645 -4.880236 -2.314941 0
M  V30 51 H -3.000948 -5.084649 -0.617910 0
M  V30 END ATOM
M  V30 BEGIN BOND
M  V30 1 2 1 2
M  V30 2 1 2 3
M  V30 3 1 3 4
M  V30 4 1 4 5
M  V30 5 2 5 6 CFG=2
M  V30 6 1 5 7
M  V30 7 1 7 8
M  V30 8 2 8 9
M  V30 9 1 8 10
M  V30 10 1 10 11
M  V30 11 1 11 12
M  V30 12 1 12 13
M  V30 13 1 13 14
M  V30 14 1 14 15
M  V30 15 2 7 16
M  V30 16 1 16 17
M  V30 17 1 17 18
M  V30 18 2 18 19
M  V30 19 1 18 20
M  V30 20 1 20 21
M  V30 21 2 21 22
M  V30 22 1 22 23
M  V30 23 2 23 24
M  V30 24 1 24 25
M  V30 25 1 24 26
M  V30 26 2 26 27
M  V30 27 1 27 28
M  V30 28 1 28 4
M  V30 29 2 28 17
M  V30 30 1 26 20
M  V30 31 1 1 29
M  V30 32 1 1 30
M  V30 33 1 2 31
M  V30 34 1 3 32
M  V30 35 1 3 33
M  V30 36 1 6 34
M  V30 37 1 10 35
M  V30 38 1 11 36
M  V30 39 1 11 37
M  V30 40 1 12 38
M  V30 41 1 12 39
M  V30 42 1 13 40
M  V30 43 1 13 41
M  V30 44 1 15 42
M  V30 45 1 15 43
M  V30 46 1 15 44
M  V30 47 1 16 45
M  V30 48 1 21 46
M  V30 49 1 22 47
M  V30 50 1 23 48
M  V30 51 1 25 49
M  V30 52 1 25 50
M  V30 53 1 25 51
M  V30 END BOND
M  V30 END CTAB
M  END
>  <Dataset>  (833) 
ChEMBL_Kinases

>  <Ligand_Instance>  (833) 
nan

>  <PDB_ID>  (833) 
nan

>  <Standardized_SMILES>  (833) 
C=CCn1c(=N)c(C(=O)NCCCOC)cc2c(=O)n3cccc(C)c3nc21

>  <Name>  (833) 
nan

>  <Pocket>  (833) 
nan

>  <ATP_Site>  (833) 
nan

>  <Peripheral>  (833) 
nan

>  <Num_H_Atoms_ProtBoundConf>  (833) 
nan

>  <Num_Resolved_Atoms>  (833) 
nan

>  <Num_Not_Resolved_Atoms>  (833) 
nan

$$$$
CHEMBL1326226
     RDKit          3D

  0  0  0  0  0  0  0  0  0  0999 V3000
M  V30 BEGIN CTAB
M  V30 COUNTS 58 61 0 0 0
M  V30 BEGIN ATOM
M  V30 1 C 1.207197 0.098324 5.178686 0
M  V30 2 C 1.101119 1.394972 4.381586 0
M  V30 3 O 1.748399 1.152381 3.131594 0
M  V30 4 C 3.083963 0.793464 3.054282 0
M  V30 5 O 3.433238 0.769487 4.263848 0
M  V30 6 C 3.812835 0.530252 1.821473 0
M  V30 7 C 5.144542 0.192278 1.888554 0
M  V30 8 C 5.761083 -0.030408 0.696587 0
M  V30 9 C 5.137991 0.062909 -0.535397 0
M  V30 10 C 3.789690 0.409220 -0.525265 0
M  V30 11 C 3.086386 0.653580 0.661280 0
M  V30 12 N 1.724984 0.989925 0.481282 0
M  V30 13 C 1.121934 2.264695 0.327308 0
M  V30 14 O 1.870489 3.303109 0.350962 0
M  V30 15 C -0.271735 2.665031 0.133257 0
M  V30 16 N -1.248710 1.649561 0.071974 0
M  V30 17 C -1.534617 0.909183 1.243262 0
M  V30 18 C -1.913276 -0.524068 0.945694 0
M  V30 19 C -3.038135 -0.499757 -0.066355 0
M  V30 20 N -3.591277 -1.813248 -0.317256 0
M  V30 21 N -4.794901 -2.300055 0.028602 0
M  V30 22 N -4.927124 -3.552338 -0.383288 0
M  V30 23 C -3.802742 -3.938010 -1.021651 0
M  V30 24 C -3.419914 -5.125100 -1.635061 0
M  V30 25 C -2.153737 -5.221190 -2.226739 0
M  V30 26 C -1.687230 -6.462426 -2.898412 0
M  V30 27 F -0.634692 -6.133491 -3.728602 0
M  V30 28 F -2.716473 -7.067397 -3.592068 0
M  V30 29 F -1.184359 -7.391698 -1.994329 0
M  V30 30 C -1.335227 -4.111580 -2.169558 0
M  V30 31 C -1.740924 -2.934266 -1.549874 0
M  V30 32 C -2.987250 -2.827479 -0.962966 0
M  V30 33 C -2.733390 0.286069 -1.296020 0
M  V30 34 C -1.418053 0.984657 -1.174631 0
M  V30 35 H 1.924883 0.184181 6.007042 0
M  V30 36 H 1.487412 -0.761244 4.531025 0
M  V30 37 H 0.222347 -0.161366 5.651003 0
M  V30 38 H 0.053521 1.635775 4.193499 0
M  V30 39 H 1.648338 2.172544 4.957446 0
M  V30 40 H 5.614763 0.123743 2.860217 0
M  V30 41 H 6.818681 -0.302377 0.688138 0
M  V30 42 H 5.647137 -0.117914 -1.472352 0
M  V30 43 H 3.312232 0.478994 -1.500342 0
M  V30 44 H 1.018300 0.221561 0.450571 0
M  V30 45 H -0.305347 3.205737 -0.858397 0
M  V30 46 H -0.596718 3.428693 0.882213 0
M  V30 47 H -2.415964 1.355097 1.783289 0
M  V30 48 H -0.706097 0.896590 1.969709 0
M  V30 49 H -2.334222 -0.952613 1.882955 0
M  V30 50 H -1.022576 -1.062111 0.644551 0
M  V30 51 H -3.854254 0.078644 0.462375 0
M  V30 52 H -4.064793 -5.980393 -1.672708 0
M  V30 53 H -0.349387 -4.175499 -2.625761 0
M  V30 54 H -1.027005 -2.133895 -1.562700 0
M  V30 55 H -3.506642 1.072622 -1.540933 0
M  V30 56 H -2.696280 -0.392949 -2.174229 0
M  V30 57 H -0.636305 0.216983 -1.279356 0
M  V30 58 H -1.377502 1.754760 -1.972750 0
M  V30 END ATOM
M  V30 BEGIN BOND
M  V30 1 1 1 2
M  V30 2 1 2 3
M  V30 3 1 3 4
M  V30 4 2 4 5
M  V30 5 1 4 6
M  V30 6 2 6 7
M  V30 7 1 7 8
M  V30 8 2 8 9
M  V30 9 1 9 10
M  V30 10 2 10 11
M  V30 11 1 11 12
M  V30 12 1 12 13
M  V30 13 2 13 14
M  V30 14 1 13 15
M  V30 15 1 15 16
M  V30 16 1 16 17
M  V30 17 1 17 18
M  V30 18 1 18 19
M  V30 19 1 19 20
M  V30 20 1 20 21
M  V30 21 2 21 22
M  V30 22 1 22 23
M  V30 23 2 23 24
M  V30 24 1 24 25
M  V30 25 1 25 26
M  V30 26 1 26 27
M  V30 27 1 26 28
M  V30 28 1 26 29
M  V30 29 2 25 30
M  V30 30 1 30 31
M  V30 31 2 31 32
M  V30 32 1 19 33
M  V30 33 1 33 34
M  V30 34 1 11 6
M  V30 35 1 34 16
M  V30 36 1 32 20
M  V30 37 1 32 23
M  V30 38 1 1 35
M  V30 39 1 1 36
M  V30 40 1 1 37
M  V30 41 1 2 38
M  V30 42 1 2 39
M  V30 43 1 7 40
M  V30 44 1 8 41
M  V30 45 1 9 42
M  V30 46 1 10 43
M  V30 47 1 12 44
M  V30 48 1 15 45
M  V30 49 1 15 46
M  V30 50 1 17 47
M  V30 51 1 17 48
M  V30 52 1 18 49
M  V30 53 1 18 50
M  V30 54 1 19 51
M  V30 55 1 24 52
M  V30 56 1 30 53
M  V30 57 1 31 54
M  V30 58 1 33 55
M  V30 59 1 33 56
M  V30 60 1 34 57
M  V30 61 1 34 58
M  V30 END BOND
M  V30 END CTAB
M  END
>  <Dataset>  (834) 
ChEMBL_Kinases

>  <Ligand_Instance>  (834) 
nan

>  <PDB_ID>  (834) 
nan

>  <Standardized_SMILES>  (834) 
CCOC(=O)c1ccccc1NC(=O)CN1CCC(n2nnc3cc(C(F)(F)F)ccc32)CC1

>  <Name>  (834) 
nan

>  <Pocket>  (834) 
nan

>  <ATP_Site>  (834) 
nan

>  <Peripheral>  (834) 
nan

>  <Num_H_Atoms_ProtBoundConf>  (834) 
nan

>  <Num_Resolved_Atoms>  (834) 
nan

>  <Num_Not_Resolved_Atoms>  (834) 
nan

$$$$
CHEMBL1326188
     RDKit          3D

  0  0  0  0  0  0  0  0  0  0999 V3000
M  V30 BEGIN CTAB
M  V30 COUNTS 46 48 0 0 0
M  V30 BEGIN ATOM
M  V30 1 C 0.257583 -6.510394 -1.094836 0
M  V30 2 O 0.409788 -5.140032 -0.796381 0
M  V30 3 C 0.763372 -4.164728 -1.710113 0
M  V30 4 C 1.042131 -4.258028 -3.057967 0
M  V30 5 C 1.376192 -3.124858 -3.767216 0
M  V30 6 C 1.441159 -1.892460 -3.168674 0
M  V30 7 C 1.167006 -1.776749 -1.825656 0
M  V30 8 N 1.244971 -0.476668 -1.237383 0
M  V30 9 C 0.191762 0.470155 -1.127202 0
M  V30 10 O -0.917218 0.104423 -1.604352 0
M  V30 11 N 0.432841 1.732124 -0.508734 0
M  V30 12 C 1.662151 2.277663 0.081147 0
M  V30 13 C 1.340905 2.810740 1.478284 0
M  V30 14 N 0.009941 2.410563 1.884207 0
M  V30 15 C -0.308458 1.569817 2.984217 0
M  V30 16 C 0.676221 1.036161 3.787251 0
M  V30 17 C 0.244335 0.230389 4.830984 0
M  V30 18 C -1.082099 -0.048036 5.088070 0
M  V30 19 C -1.566883 -0.894738 6.182134 0
M  V30 20 F -2.773659 -0.452845 6.731608 0
M  V30 21 F -1.808040 -2.210849 5.795969 0
M  V30 22 F -0.646550 -0.964462 7.234507 0
M  V30 23 C -2.008961 0.522861 4.240117 0
M  V30 24 N -1.604721 1.306790 3.223280 0
M  V30 25 C -1.022911 2.966375 1.031773 0
M  V30 26 C -0.695271 2.672775 -0.422561 0
M  V30 27 C 0.826178 -2.917874 -1.091132 0
M  V30 28 H 0.801478 -7.139835 -0.334527 0
M  V30 29 H 0.660416 -6.782348 -2.080180 0
M  V30 30 H -0.832420 -6.801229 -1.104452 0
M  V30 31 H 0.960280 -5.274943 -3.422201 0
M  V30 32 H 1.575789 -3.301945 -4.812607 0
M  V30 33 H 1.708852 -1.038204 -3.776208 0
M  V30 34 H 2.205330 -0.259217 -0.867380 0
M  V30 35 H 2.066970 3.063396 -0.589053 0
M  V30 36 H 2.462787 1.494709 0.154528 0
M  V30 37 H 1.315167 3.932844 1.349687 0
M  V30 38 H 2.130460 2.597427 2.192920 0
M  V30 39 H 1.718573 1.221751 3.629481 0
M  V30 40 H 0.963399 -0.216871 5.494656 0
M  V30 41 H -3.092012 0.381030 4.335279 0
M  V30 42 H -2.003890 2.497075 1.289810 0
M  V30 43 H -1.144987 4.072089 1.185163 0
M  V30 44 H -1.564478 2.300774 -0.997177 0
M  V30 45 H -0.327707 3.619188 -0.884846 0
M  V30 46 H 0.632523 -2.690279 -0.036330 0
M  V30 END ATOM
M  V30 BEGIN BOND
M  V30 1 1 1 2
M  V30 2 1 2 3
M  V30 3 2 3 4
M  V30 4 1 4 5
M  V30 5 2 5 6
M  V30 6 1 6 7
M  V30 7 1 7 8
M  V30 8 1 8 9
M  V30 9 2 9 10
M  V30 10 1 9 11
M  V30 11 1 11 12
M  V30 12 1 12 13
M  V30 13 1 13 14
M  V30 14 1 14 15
M  V30 15 2 15 16
M  V30 16 1 16 17
M  V30 17 2 17 18
M  V30 18 1 18 19
M  V30 19 1 19 20
M  V30 20 1 19 21
M  V30 21 1 19 22
M  V30 22 1 18 23
M  V30 23 2 23 24
M  V30 24 1 14 25
M  V30 25 1 25 26
M  V30 26 2 7 27
M  V30 27 1 27 3
M  V30 28 1 26 11
M  V30 29 1 24 15
M  V30 30 1 1 28
M  V30 31 1 1 29
M  V30 32 1 1 30
M  V30 33 1 4 31
M  V30 34 1 5 32
M  V30 35 1 6 33
M  V30 36 1 8 34
M  V30 37 1 12 35
M  V30 38 1 12 36
M  V30 39 1 13 37
M  V30 40 1 13 38
M  V30 41 1 16 39
M  V30 42 1 17 40
M  V30 43 1 23 41
M  V30 44 1 25 42
M  V30 45 1 25 43
M  V30 46 1 26 44
M  V30 47 1 26 45
M  V30 48 1 27 46
M  V30 END BOND
M  V30 END CTAB
M  END
>  <Dataset>  (835) 
ChEMBL_Kinases

>  <Ligand_Instance>  (835) 
nan

>  <PDB_ID>  (835) 
nan

>  <Standardized_SMILES>  (835) 
COc1cccc(NC(=O)N2CCN(c3ccc(C(F)(F)F)cn3)CC2)c1

>  <Name>  (835) 
nan

>  <Pocket>  (835) 
nan

>  <ATP_Site>  (835) 
nan

>  <Peripheral>  (835) 
nan

>  <Num_H_Atoms_ProtBoundConf>  (835) 
nan

>  <Num_Resolved_Atoms>  (835) 
nan

>  <Num_Not_Resolved_Atoms>  (835) 
nan

$$$$
CHEMBL1326166
     RDKit          3D

  0  0  0  0  0  0  0  0  0  0999 V3000
M  V30 BEGIN CTAB
M  V30 COUNTS 45 48 0 0 0
M  V30 BEGIN ATOM
M  V30 1 C 4.033580 -3.673449 1.276808 0
M  V30 2 O 3.519175 -3.793520 -0.024015 0
M  V30 3 C 2.726293 -2.884460 -0.653829 0
M  V30 4 C 2.256866 -3.074523 -1.941823 0
M  V30 5 C 1.451757 -2.167122 -2.601075 0
M  V30 6 C 1.076074 -0.990727 -1.962550 0
M  V30 7 C 1.551964 -0.786082 -0.641821 0
M  V30 8 C 1.268322 0.435242 0.013633 0
M  V30 9 C 2.313674 1.319094 -0.309306 0
M  V30 10 C 3.470728 1.036698 -1.151206 0
M  V30 11 N 4.378470 0.794816 -1.820326 0
M  V30 12 C 2.299304 2.625337 0.201811 0
M  V30 13 O 3.318203 3.547628 -0.089598 0
M  V30 14 N 1.299860 3.065801 1.004629 0
M  V30 15 C 0.292737 2.225541 1.320371 0
M  V30 16 C 0.306950 0.952907 0.822478 0
M  V30 17 C -0.774828 0.072776 1.169880 0
M  V30 18 C -0.842670 -1.204679 0.731319 0
M  V30 19 C -1.840074 -2.105598 1.024945 0
M  V30 20 C -2.811576 -1.547404 1.852449 0
M  V30 21 O -3.898616 -2.361433 2.235557 0
M  V30 22 C -4.919112 -1.896282 3.057382 0
M  V30 23 C -2.811105 -0.254555 2.339894 0
M  V30 24 C -1.763626 0.555322 1.980019 0
M  V30 25 C -1.835820 1.932839 2.544953 0
M  V30 26 C -0.714991 2.827001 2.190975 0
M  V30 27 C 2.382548 -1.730183 0.028252 0
M  V30 28 H 4.279599 -4.682923 1.678190 0
M  V30 29 H 4.972695 -3.087489 1.338971 0
M  V30 30 H 3.327495 -3.182209 1.983278 0
M  V30 31 H 2.542276 -3.995399 -2.461064 0
M  V30 32 H 1.082552 -2.309078 -3.604623 0
M  V30 33 H 0.452215 -0.209405 -2.375071 0
M  V30 34 H 3.292498 3.898199 -1.046011 0
M  V30 35 H -0.202266 -1.757841 0.120966 0
M  V30 36 H -1.999113 -3.135036 0.737688 0
M  V30 37 H -4.652793 -1.924002 4.123876 0
M  V30 38 H -5.768135 -2.632233 2.931153 0
M  V30 39 H -5.370526 -0.926409 2.754446 0
M  V30 40 H -3.614262 0.075133 2.974998 0
M  V30 41 H -2.829317 2.377871 2.309353 0
M  V30 42 H -1.873993 1.773943 3.658932 0
M  V30 43 H -0.164324 3.097098 3.142110 0
M  V30 44 H -1.075988 3.815490 1.821773 0
M  V30 45 H 2.696131 -1.489696 1.031374 0
M  V30 END ATOM
M  V30 BEGIN BOND
M  V30 1 1 1 2
M  V30 2 1 2 3
M  V30 3 2 3 4
M  V30 4 1 4 5
M  V30 5 2 5 6
M  V30 6 1 6 7
M  V30 7 1 7 8
M  V30 8 2 8 9
M  V30 9 1 9 10
M  V30 10 3 10 11
M  V30 11 1 9 12
M  V30 12 1 12 13
M  V30 13 2 12 14
M  V30 14 1 14 15
M  V30 15 2 15 16
M  V30 16 1 16 17
M  V30 17 2 17 18
M  V30 18 1 18 19
M  V30 19 2 19 20
M  V30 20 1 20 21
M  V30 21 1 21 22
M  V30 22 1 20 23
M  V30 23 2 23 24
M  V30 24 1 24 25
M  V30 25 1 25 26
M  V30 26 2 7 27
M  V30 27 1 27 3
M  V30 28 1 16 8
M  V30 29 1 24 17
M  V30 30 1 26 15
M  V30 31 1 1 28
M  V30 32 1 1 29
M  V30 33 1 1 30
M  V30 34 1 4 31
M  V30 35 1 5 32
M  V30 36 1 6 33
M  V30 37 1 13 34
M  V30 38 1 18 35
M  V30 39 1 19 36
M  V30 40 1 22 37
M  V30 41 1 22 38
M  V30 42 1 22 39
M  V30 43 1 23 40
M  V30 44 1 25 41
M  V30 45 1 25 42
M  V30 46 1 26 43
M  V30 47 1 26 44
M  V30 48 1 27 45
M  V30 END BOND
M  V30 END CTAB
M  END
>  <Dataset>  (836) 
ChEMBL_Kinases

>  <Ligand_Instance>  (836) 
nan

>  <PDB_ID>  (836) 
nan

>  <Standardized_SMILES>  (836) 
COc1cccc(-c2c(C#N)c(O)nc3c2-c2ccc(OC)cc2CC3)c1

>  <Name>  (836) 
nan

>  <Pocket>  (836) 
nan

>  <ATP_Site>  (836) 
nan

>  <Peripheral>  (836) 
nan

>  <Num_H_Atoms_ProtBoundConf>  (836) 
nan

>  <Num_Resolved_Atoms>  (836) 
nan

>  <Num_Not_Resolved_Atoms>  (836) 
nan

$$$$
CHEMBL1326100
     RDKit          3D

  0  0  0  0  0  0  0  0  0  0999 V3000
M  V30 BEGIN CTAB
M  V30 COUNTS 33 35 0 0 0
M  V30 BEGIN ATOM
M  V30 1 C -3.291252 0.232012 3.594081 0
M  V30 2 C -2.187359 -0.111638 2.657363 0
M  V30 3 N -1.449771 -1.222840 2.874162 0
M  V30 4 C -0.441821 -1.543494 2.025430 0
M  V30 5 C 0.340195 -2.666501 2.202566 0
M  V30 6 N 1.320292 -2.909620 1.311613 0
M  V30 7 C 1.574708 -2.115363 0.260810 0
M  V30 8 N 2.629029 -2.422036 -0.654502 0
M  V30 9 C 2.889729 -1.551398 -1.785243 0
M  V30 10 C 3.425547 -3.611553 -0.430733 0
M  V30 11 N 0.814161 -1.019146 0.084678 0
M  V30 12 C -0.195196 -0.709605 0.945675 0
M  V30 13 N -0.900980 0.417186 0.677520 0
M  V30 14 C -0.620369 1.252637 -0.442693 0
M  V30 15 C -0.915204 2.679958 -0.502483 0
M  V30 16 C -1.830533 1.761664 -1.270424 0
M  V30 17 C -1.880864 0.673286 1.555790 0
M  V30 18 O -2.612108 1.687246 1.424661 0
M  V30 19 H -4.154023 -0.418076 3.337150 0
M  V30 20 H -2.973419 -0.037865 4.609976 0
M  V30 21 H -3.576370 1.289410 3.482991 0
M  V30 22 H 0.163273 -3.334179 3.043545 0
M  V30 23 H 3.645064 -2.048270 -2.441896 0
M  V30 24 H 3.286870 -0.564416 -1.503807 0
M  V30 25 H 1.977317 -1.461004 -2.433496 0
M  V30 26 H 2.858024 -4.477357 -0.830206 0
M  V30 27 H 4.421788 -3.582366 -0.881447 0
M  V30 28 H 3.529098 -3.824752 0.673635 0
M  V30 29 H 0.261138 0.906615 -1.059756 0
M  V30 30 H -0.308217 3.324080 -1.177525 0
M  V30 31 H -1.303690 3.291386 0.339606 0
M  V30 32 H -2.827925 1.487472 -0.894026 0
M  V30 33 H -1.726153 1.646458 -2.357907 0
M  V30 END ATOM
M  V30 BEGIN BOND
M  V30 1 1 1 2
M  V30 2 2 2 3
M  V30 3 1 3 4
M  V30 4 2 4 5
M  V30 5 1 5 6
M  V30 6 2 6 7
M  V30 7 1 7 8
M  V30 8 1 8 9
M  V30 9 1 8 10
M  V30 10 1 7 11
M  V30 11 2 11 12
M  V30 12 1 12 13
M  V30 13 1 13 14
M  V30 14 1 14 15
M  V30 15 1 15 16
M  V30 16 1 13 17
M  V30 17 2 17 18
M  V30 18 1 17 2
M  V30 19 1 12 4
M  V30 20 1 16 14
M  V30 21 1 1 19
M  V30 22 1 1 20
M  V30 23 1 1 21
M  V30 24 1 5 22
M  V30 25 1 9 23
M  V30 26 1 9 24
M  V30 27 1 9 25
M  V30 28 1 10 26
M  V30 29 1 10 27
M  V30 30 1 10 28
M  V30 31 1 14 29
M  V30 32 1 15 30
M  V30 33 1 15 31
M  V30 34 1 16 32
M  V30 35 1 16 33
M  V30 END BOND
M  V30 END CTAB
M  END
>  <Dataset>  (837) 
ChEMBL_Kinases

>  <Ligand_Instance>  (837) 
nan

>  <PDB_ID>  (837) 
nan

>  <Standardized_SMILES>  (837) 
Cc1nc2cnc(N(C)C)nc2n(C2CC2)c1=O

>  <Name>  (837) 
nan

>  <Pocket>  (837) 
nan

>  <ATP_Site>  (837) 
nan

>  <Peripheral>  (837) 
nan

>  <Num_H_Atoms_ProtBoundConf>  (837) 
nan

>  <Num_Resolved_Atoms>  (837) 
nan

>  <Num_Not_Resolved_Atoms>  (837) 
nan

$$$$
CHEMBL1325995
     RDKit          3D

  0  0  0  0  0  0  0  0  0  0999 V3000
M  V30 BEGIN CTAB
M  V30 COUNTS 34 34 0 0 0
M  V30 BEGIN ATOM
M  V30 1 C -2.393275 -1.195124 2.227173 0
M  V30 2 C -1.217844 -2.163625 2.394595 0
M  V30 3 N -0.844973 -2.722609 1.098772 0
M  V30 4 C -1.723495 -3.622412 0.405059 0
M  V30 5 C -1.156719 -4.083244 -0.916717 0
M  V30 6 C 0.396727 -2.367104 0.529317 0
M  V30 7 S 1.838256 -3.138791 -0.217469 0
M  V30 8 N 1.385323 -1.673678 0.106316 0
M  V30 9 C 1.468356 -0.257472 0.171276 0
M  V30 10 C 0.322631 0.459038 -0.138751 0
M  V30 11 C 0.372797 1.831557 -0.085376 0
M  V30 12 C 1.506719 2.525604 0.261316 0
M  V30 13 O 1.815956 3.868036 0.388099 0
M  V30 14 C 0.840945 4.847771 0.130473 0
M  V30 15 F 0.782270 5.639807 1.287542 0
M  V30 16 F 1.405843 5.705486 -0.824877 0
M  V30 17 C 2.674406 1.808862 0.578087 0
M  V30 18 C 2.621375 0.406025 0.522905 0
M  V30 19 H -2.179401 -0.597233 1.332044 0
M  V30 20 H -3.348045 -1.776039 2.115449 0
M  V30 21 H -2.514671 -0.600729 3.138144 0
M  V30 22 H -0.357160 -1.669670 2.856720 0
M  V30 23 H -1.550059 -2.946121 3.090386 0
M  V30 24 H -1.938774 -4.513870 1.036925 0
M  V30 25 H -2.714281 -3.131192 0.221897 0
M  V30 26 H -0.610026 -5.035268 -0.818528 0
M  V30 27 H -1.970757 -4.218399 -1.666742 0
M  V30 28 H -0.462705 -3.321915 -1.292976 0
M  V30 29 H 1.652943 -4.542239 -0.193404 0
M  V30 30 H -0.640373 0.054818 -0.427216 0
M  V30 31 H -0.430914 2.504324 -0.297466 0
M  V30 32 H -0.136952 4.489349 -0.168629 0
M  V30 33 H 3.653336 2.148327 0.870209 0
M  V30 34 H 3.450936 -0.255754 0.743691 0
M  V30 END ATOM
M  V30 BEGIN BOND
M  V30 1 1 1 2
M  V30 2 1 2 3
M  V30 3 1 3 4
M  V30 4 1 4 5
M  V30 5 1 3 6
M  V30 6 1 6 7
M  V30 7 2 6 8 CFG=2
M  V30 8 1 8 9
M  V30 9 2 9 10
M  V30 10 1 10 11
M  V30 11 2 11 12
M  V30 12 1 12 13
M  V30 13 1 13 14
M  V30 14 1 14 15
M  V30 15 1 14 16
M  V30 16 1 12 17
M  V30 17 2 17 18
M  V30 18 1 18 9
M  V30 19 1 1 19
M  V30 20 1 1 20
M  V30 21 1 1 21
M  V30 22 1 2 22
M  V30 23 1 2 23
M  V30 24 1 4 24
M  V30 25 1 4 25
M  V30 26 1 5 26
M  V30 27 1 5 27
M  V30 28 1 5 28
M  V30 29 1 7 29
M  V30 30 1 10 30
M  V30 31 1 11 31
M  V30 32 1 14 32
M  V30 33 1 17 33
M  V30 34 1 18 34
M  V30 END BOND
M  V30 END CTAB
M  END
>  <Dataset>  (838) 
ChEMBL_Kinases

>  <Ligand_Instance>  (838) 
nan

>  <PDB_ID>  (838) 
nan

>  <Standardized_SMILES>  (838) 
CCN(CC)C(S)=Nc1ccc(OC(F)F)cc1

>  <Name>  (838) 
nan

>  <Pocket>  (838) 
nan

>  <ATP_Site>  (838) 
nan

>  <Peripheral>  (838) 
nan

>  <Num_H_Atoms_ProtBoundConf>  (838) 
nan

>  <Num_Resolved_Atoms>  (838) 
nan

>  <Num_Not_Resolved_Atoms>  (838) 
nan

$$$$
CHEMBL1325960
     RDKit          3D

  0  0  0  0  0  0  0  0  0  0999 V3000
M  V30 BEGIN CTAB
M  V30 COUNTS 29 30 0 0 0
M  V30 BEGIN ATOM
M  V30 1 C 0.364109 -4.551353 2.807032 0
M  V30 2 O 1.256067 -3.485581 3.151276 0
M  V30 3 C 1.304331 -2.374963 2.329054 0
M  V30 4 O 0.578564 -2.345804 1.333157 0
M  V30 5 C 2.177438 -1.243901 2.595879 0
M  V30 6 C 3.020189 -1.178196 3.672807 0
M  V30 7 C 3.821755 -0.029744 3.829878 0
M  V30 8 S 3.331102 1.004224 2.346624 0
M  V30 9 C 2.199830 -0.115974 1.725142 0
M  V30 10 N 1.436915 0.103512 0.527428 0
M  V30 11 C 0.172416 0.734939 0.552591 0
M  V30 12 O -0.241166 1.091051 1.684368 0
M  V30 13 C -0.636730 0.978564 -0.636154 0
M  V30 14 C -0.239108 0.620274 -1.843628 0
M  V30 15 O -1.101559 0.909193 -2.890929 0
M  V30 16 C -2.500845 0.817097 -2.700462 0
M  V30 17 C -2.949374 1.438503 -1.398077 0
M  V30 18 O -1.864020 1.605119 -0.509061 0
M  V30 19 H 0.739304 -5.462101 3.290954 0
M  V30 20 H 0.291727 -4.663747 1.691354 0
M  V30 21 H -0.636121 -4.246037 3.146320 0
M  V30 22 H 3.107356 -1.959205 4.413320 0
M  V30 23 H 4.520282 0.176032 4.601677 0
M  V30 24 H 1.840099 -0.214440 -0.356566 0
M  V30 25 H 0.698241 0.133486 -2.003088 0
M  V30 26 H -2.745365 -0.265067 -2.701362 0
M  V30 27 H -3.022025 1.318118 -3.565600 0
M  V30 28 H -3.711773 0.756743 -0.919041 0
M  V30 29 H -3.488741 2.396859 -1.526200 0
M  V30 END ATOM
M  V30 BEGIN BOND
M  V30 1 1 1 2
M  V30 2 1 2 3
M  V30 3 2 3 4
M  V30 4 1 3 5
M  V30 5 1 5 6
M  V30 6 2 6 7
M  V30 7 1 7 8
M  V30 8 1 8 9
M  V30 9 1 9 10
M  V30 10 1 10 11
M  V30 11 2 11 12
M  V30 12 1 11 13
M  V30 13 2 13 14
M  V30 14 1 14 15
M  V30 15 1 15 16
M  V30 16 1 16 17
M  V30 17 1 17 18
M  V30 18 2 9 5
M  V30 19 1 18 13
M  V30 20 1 1 19
M  V30 21 1 1 20
M  V30 22 1 1 21
M  V30 23 1 6 22
M  V30 24 1 7 23
M  V30 25 1 10 24
M  V30 26 1 14 25
M  V30 27 1 16 26
M  V30 28 1 16 27
M  V30 29 1 17 28
M  V30 30 1 17 29
M  V30 END BOND
M  V30 END CTAB
M  END
>  <Dataset>  (839) 
ChEMBL_Kinases

>  <Ligand_Instance>  (839) 
nan

>  <PDB_ID>  (839) 
nan

>  <Standardized_SMILES>  (839) 
COC(=O)c1ccsc1NC(=O)C1=COCCO1

>  <Name>  (839) 
nan

>  <Pocket>  (839) 
nan

>  <ATP_Site>  (839) 
nan

>  <Peripheral>  (839) 
nan

>  <Num_H_Atoms_ProtBoundConf>  (839) 
nan

>  <Num_Resolved_Atoms>  (839) 
nan

>  <Num_Not_Resolved_Atoms>  (839) 
nan

$$$$
CHEMBL1325908
     RDKit          3D

  0  0  0  0  0  0  0  0  0  0999 V3000
M  V30 BEGIN CTAB
M  V30 COUNTS 52 54 0 0 0
M  V30 BEGIN ATOM
M  V30 1 C -2.678686 -6.037599 1.699950 0
M  V30 2 C -1.969979 -5.027547 0.858788 0
M  V30 3 C -2.341839 -3.717134 1.081382 0
M  V30 4 C -1.756587 -2.694174 0.364309 0
M  V30 5 C -0.793237 -2.992735 -0.580321 0
M  V30 6 N -0.049317 -2.130157 -1.437842 0
M  V30 7 C 1.183703 -1.640077 -0.957622 0
M  V30 8 O 1.500251 -2.018455 0.193064 0
M  V30 9 N 2.086603 -0.780931 -1.627661 0
M  V30 10 C 3.331141 -0.188349 -1.325787 0
M  V30 11 C 3.450568 0.763532 -0.200702 0
M  V30 12 C 2.597607 1.982739 -0.307742 0
M  V30 13 C 1.213102 1.696571 0.114152 0
M  V30 14 N 1.031443 1.000164 1.310252 0
M  V30 15 C 0.159626 1.604836 2.294711 0
M  V30 16 C -1.222758 1.800099 1.871587 0
M  V30 17 C -1.831367 2.883918 1.299697 0
M  V30 18 C -3.154278 2.927081 0.941754 0
M  V30 19 C -3.962873 1.840370 1.149368 0
M  V30 20 C -3.422074 0.708836 1.722413 0
M  V30 21 Cl -4.429920 -0.691966 1.999225 0
M  V30 22 C -2.085849 0.719351 2.063049 0
M  V30 23 C 2.190734 0.533136 1.990143 0
M  V30 24 C 3.394789 0.249963 1.182300 0
M  V30 25 C -0.410367 -4.320593 -0.812075 0
M  V30 26 C -1.007630 -5.355878 -0.081350 0
M  V30 27 Cl -0.594014 -7.040445 -0.301989 0
M  V30 28 H -2.432378 -7.034360 1.286392 0
M  V30 29 H -3.764595 -5.886570 1.692622 0
M  V30 30 H -2.315480 -6.021632 2.747263 0
M  V30 31 H -3.078536 -3.361812 1.788724 0
M  V30 32 H -1.903647 -1.627591 0.386029 0
M  V30 33 H -0.336059 -1.820754 -2.406345 0
M  V30 34 H 1.667771 -0.563214 -2.590111 0
M  V30 35 H 3.737776 0.313935 -2.241637 0
M  V30 36 H 4.068088 -1.035585 -1.161259 0
M  V30 37 H 4.526427 1.184772 -0.318668 0
M  V30 38 H 3.032302 2.726198 0.423125 0
M  V30 39 H 2.591431 2.431296 -1.322153 0
M  V30 40 H 0.674146 1.181579 -0.720145 0
M  V30 41 H 0.667931 2.683698 0.193895 0
M  V30 42 H 0.145830 0.991176 3.243501 0
M  V30 43 H 0.583209 2.590060 2.650826 0
M  V30 44 H -1.203957 3.747876 1.138938 0
M  V30 45 H -3.531746 3.839430 0.494838 0
M  V30 46 H -4.996717 1.926004 0.849751 0
M  V30 47 H -1.725668 -0.209562 2.511871 0
M  V30 48 H 1.872001 -0.431041 2.487041 0
M  V30 49 H 2.378701 1.207734 2.850729 0
M  V30 50 H 3.701454 -0.842849 1.251435 0
M  V30 51 H 4.261335 0.729126 1.751255 0
M  V30 52 H 0.315929 -4.689013 -1.507279 0
M  V30 END ATOM
M  V30 BEGIN BOND
M  V30 1 1 1 2
M  V30 2 2 2 3
M  V30 3 1 3 4
M  V30 4 2 4 5
M  V30 5 1 5 6
M  V30 6 1 6 7
M  V30 7 2 7 8
M  V30 8 1 7 9
M  V30 9 1 9 10
M  V30 10 1 10 11
M  V30 11 1 11 12
M  V30 12 1 12 13
M  V30 13 1 13 14
M  V30 14 1 14 15
M  V30 15 1 15 16
M  V30 16 2 16 17
M  V30 17 1 17 18
M  V30 18 2 18 19
M  V30 19 1 19 20
M  V30 20 1 20 21
M  V30 21 2 20 22
M  V30 22 1 14 23
M  V30 23 1 23 24
M  V30 24 1 5 25
M  V30 25 2 25 26
M  V30 26 1 26 27
M  V30 27 1 26 2
M  V30 28 1 24 11
M  V30 29 1 22 16
M  V30 30 1 1 28
M  V30 31 1 1 29
M  V30 32 1 1 30
M  V30 33 1 3 31
M  V30 34 1 4 32
M  V30 35 1 6 33
M  V30 36 1 9 34
M  V30 37 1 10 35
M  V30 38 1 10 36
M  V30 39 1 11 37
M  V30 40 1 12 38
M  V30 41 1 12 39
M  V30 42 1 13 40
M  V30 43 1 13 41
M  V30 44 1 15 42
M  V30 45 1 15 43
M  V30 46 1 17 44
M  V30 47 1 18 45
M  V30 48 1 19 46
M  V30 49 1 22 47
M  V30 50 1 23 48
M  V30 51 1 23 49
M  V30 52 1 24 50
M  V30 53 1 24 51
M  V30 54 1 25 52
M  V30 END BOND
M  V30 END CTAB
M  END
>  <Dataset>  (840) 
ChEMBL_Kinases

>  <Ligand_Instance>  (840) 
nan

>  <PDB_ID>  (840) 
nan

>  <Standardized_SMILES>  (840) 
Cc1ccc(NC(=O)NCC2CCN(Cc3cccc(Cl)c3)CC2)cc1Cl

>  <Name>  (840) 
nan

>  <Pocket>  (840) 
nan

>  <ATP_Site>  (840) 
nan

>  <Peripheral>  (840) 
nan

>  <Num_H_Atoms_ProtBoundConf>  (840) 
nan

>  <Num_Resolved_Atoms>  (840) 
nan

>  <Num_Not_Resolved_Atoms>  (840) 
nan

$$$$
CHEMBL1325833
     RDKit          3D

  0  0  0  0  0  0  0  0  0  0999 V3000
M  V30 BEGIN CTAB
M  V30 COUNTS 43 46 0 0 0
M  V30 BEGIN ATOM
M  V30 1 C -1.142727 -5.378452 2.803426 0
M  V30 2 O 0.225977 -5.146479 2.518076 0
M  V30 3 C 0.600991 -4.370071 1.425403 0
M  V30 4 C -0.345528 -3.802922 0.587284 0
M  V30 5 C 0.037489 -3.029757 -0.500509 0
M  V30 6 C 1.395362 -2.841449 -0.724056 0
M  V30 7 O 1.658392 -2.054496 -1.835399 0
M  V30 8 C 1.766188 -0.679398 -1.686736 0
M  V30 9 N 2.023594 -0.015551 -2.835994 0
M  V30 10 C 2.157060 1.331712 -2.855504 0
M  V30 11 C 2.017284 1.980626 -1.651393 0
M  V30 12 N 2.148814 3.317814 -1.651443 0
M  V30 13 C 2.020856 4.003821 -0.482649 0
M  V30 14 C 1.758317 3.280972 0.661798 0
M  V30 15 O 1.657357 3.993607 1.687759 0
M  V30 16 N 1.614697 1.945636 0.733987 0
M  V30 17 C 1.341615 1.251752 1.967775 0
M  V30 18 C -0.127803 1.163835 2.146264 0
M  V30 19 C -0.901311 0.118368 1.687788 0
M  V30 20 C -2.267379 0.010742 1.839762 0
M  V30 21 C -2.936724 1.018795 2.501063 0
M  V30 22 F -4.269355 0.936021 2.661559 0
M  V30 23 C -2.232037 2.098057 2.989063 0
M  V30 24 C -0.867407 2.135253 2.798335 0
M  V30 25 C 1.754968 1.340491 -0.459788 0
M  V30 26 N 1.639769 0.003381 -0.542885 0
M  V30 27 C 2.314101 -3.417516 0.125845 0
M  V30 28 C 1.947508 -4.179461 1.198209 0
M  V30 29 H -1.261065 -5.754314 3.830113 0
M  V30 30 H -1.702610 -4.402774 2.750308 0
M  V30 31 H -1.598089 -6.053655 2.066456 0
M  V30 32 H -1.407412 -3.956017 0.770406 0
M  V30 33 H -0.745598 -2.611501 -1.121385 0
M  V30 34 H 2.362983 1.864608 -3.773867 0
M  V30 35 H 2.129973 5.077741 -0.503154 0
M  V30 36 H 1.703720 0.194040 1.882338 0
M  V30 37 H 1.827523 1.727248 2.842684 0
M  V30 38 H -0.437315 -0.703849 1.163991 0
M  V30 39 H -2.816999 -0.842357 1.452923 0
M  V30 40 H -2.767032 2.883272 3.506337 0
M  V30 41 H -0.388871 3.006354 3.208467 0
M  V30 42 H 3.359366 -3.217186 -0.125049 0
M  V30 43 H 2.726327 -4.606321 1.831182 0
M  V30 END ATOM
M  V30 BEGIN BOND
M  V30 1 1 1 2
M  V30 2 1 2 3
M  V30 3 2 3 4
M  V30 4 1 4 5
M  V30 5 2 5 6
M  V30 6 1 6 7
M  V30 7 1 7 8
M  V30 8 2 8 9
M  V30 9 1 9 10
M  V30 10 2 10 11
M  V30 11 1 11 12
M  V30 12 2 12 13
M  V30 13 1 13 14
M  V30 14 2 14 15
M  V30 15 1 14 16
M  V30 16 1 16 17
M  V30 17 1 17 18
M  V30 18 2 18 19
M  V30 19 1 19 20
M  V30 20 2 20 21
M  V30 21 1 21 22
M  V30 22 1 21 23
M  V30 23 2 23 24
M  V30 24 1 16 25
M  V30 25 2 25 26
M  V30 26 1 6 27
M  V30 27 2 27 28
M  V30 28 1 28 3
M  V30 29 1 26 8
M  V30 30 1 25 11
M  V30 31 1 24 18
M  V30 32 1 1 29
M  V30 33 1 1 30
M  V30 34 1 1 31
M  V30 35 1 4 32
M  V30 36 1 5 33
M  V30 37 1 10 34
M  V30 38 1 13 35
M  V30 39 1 17 36
M  V30 40 1 17 37
M  V30 41 1 19 38
M  V30 42 1 20 39
M  V30 43 1 23 40
M  V30 44 1 24 41
M  V30 45 1 27 42
M  V30 46 1 28 43
M  V30 END BOND
M  V30 END CTAB
M  END
>  <Dataset>  (841) 
ChEMBL_Kinases

>  <Ligand_Instance>  (841) 
nan

>  <PDB_ID>  (841) 
nan

>  <Standardized_SMILES>  (841) 
COc1ccc(Oc2ncc3ncc(=O)n(Cc4ccc(F)cc4)c3n2)cc1

>  <Name>  (841) 
nan

>  <Pocket>  (841) 
nan

>  <ATP_Site>  (841) 
nan

>  <Peripheral>  (841) 
nan

>  <Num_H_Atoms_ProtBoundConf>  (841) 
nan

>  <Num_Resolved_Atoms>  (841) 
nan

>  <Num_Not_Resolved_Atoms>  (841) 
nan

$$$$
CHEMBL1325810
     RDKit          3D

  0  0  0  0  0  0  0  0  0  0999 V3000
M  V30 BEGIN CTAB
M  V30 COUNTS 45 47 0 0 0
M  V30 BEGIN ATOM
M  V30 1 C 3.088800 -7.098023 1.064602 0
M  V30 2 C 2.827104 -5.630349 0.918240 0
M  V30 3 C 2.186523 -4.908100 1.927830 0
M  V30 4 C 1.961272 -3.550360 1.756491 0
M  V30 5 C 2.381307 -2.950218 0.582445 0
M  V30 6 N 2.148649 -1.565394 0.414379 0
M  V30 7 C 0.890973 -1.349101 -0.199860 0
M  V30 8 O -0.047678 -2.079956 -0.622155 0
M  V30 9 N 0.303532 -0.084351 -0.533859 0
M  V30 10 C -1.007487 -0.182035 -1.161176 0
M  V30 11 C -1.270096 1.210714 -1.688025 0
M  V30 12 C 0.039575 1.938016 -1.588994 0
M  V30 13 C 0.699967 1.299081 -0.398935 0
M  V30 14 C 0.168021 1.795710 0.895652 0
M  V30 15 O 0.522302 3.017742 1.004571 0
M  V30 16 N -0.596152 1.114309 1.883097 0
M  V30 17 C -1.015954 1.790784 3.082624 0
M  V30 18 C -1.848106 2.941982 2.923765 0
M  V30 19 C -3.257904 3.181908 2.855814 0
M  V30 20 C -3.724313 4.449259 2.693598 0
M  V30 21 C -2.755652 5.493487 2.598051 0
M  V30 22 S -1.122593 4.544357 2.755695 0
M  V30 23 C 3.019571 -3.627807 -0.443593 0
M  V30 24 C 3.228462 -4.988412 -0.236295 0
M  V30 25 H 3.031566 -7.426634 2.104099 0
M  V30 26 H 2.319089 -7.691942 0.508163 0
M  V30 27 H 4.061917 -7.299161 0.603463 0
M  V30 28 H 1.877367 -5.432269 2.831326 0
M  V30 29 H 1.464793 -2.991514 2.539632 0
M  V30 30 H 2.686787 -0.693448 0.638097 0
M  V30 31 H -1.792936 -0.532961 -0.463434 0
M  V30 32 H -1.020198 -0.926621 -2.002208 0
M  V30 33 H -1.620844 1.120224 -2.749682 0
M  V30 34 H -2.071891 1.714948 -1.110253 0
M  V30 35 H -0.061768 3.027623 -1.507595 0
M  V30 36 H 0.663028 1.614962 -2.471882 0
M  V30 37 H 1.799921 1.427827 -0.423455 0
M  V30 38 H -0.786185 0.123384 1.615023 0
M  V30 39 H -1.599897 1.017021 3.664838 0
M  V30 40 H -0.167867 2.035471 3.766845 0
M  V30 41 H -3.798844 2.255905 2.949574 0
M  V30 42 H -4.794190 4.570473 2.649192 0
M  V30 43 H -3.226301 6.569741 2.458173 0
M  V30 44 H 3.312093 -3.105722 -1.310967 0
M  V30 45 H 3.733075 -5.513554 -1.052765 0
M  V30 END ATOM
M  V30 BEGIN BOND
M  V30 1 1 1 2
M  V30 2 2 2 3
M  V30 3 1 3 4
M  V30 4 2 4 5
M  V30 5 1 5 6
M  V30 6 1 6 7
M  V30 7 2 7 8
M  V30 8 1 7 9
M  V30 9 1 9 10
M  V30 10 1 10 11
M  V30 11 1 11 12
M  V30 12 1 12 13
M  V30 13 1 13 14
M  V30 14 2 14 15
M  V30 15 1 14 16
M  V30 16 1 16 17
M  V30 17 1 17 18
M  V30 18 2 18 19
M  V30 19 1 19 20
M  V30 20 2 20 21
M  V30 21 1 21 22
M  V30 22 1 5 23
M  V30 23 2 23 24
M  V30 24 1 24 2
M  V30 25 1 13 9
M  V30 26 1 22 18
M  V30 27 1 1 25
M  V30 28 1 1 26
M  V30 29 1 1 27
M  V30 30 1 3 28
M  V30 31 1 4 29
M  V30 32 1 6 30
M  V30 33 1 10 31
M  V30 34 1 10 32
M  V30 35 1 11 33
M  V30 36 1 11 34
M  V30 37 1 12 35
M  V30 38 1 12 36
M  V30 39 1 13 37
M  V30 40 1 16 38
M  V30 41 1 17 39
M  V30 42 1 17 40
M  V30 43 1 19 41
M  V30 44 1 20 42
M  V30 45 1 21 43
M  V30 46 1 23 44
M  V30 47 1 24 45
M  V30 END BOND
M  V30 END CTAB
M  END
>  <Dataset>  (842) 
ChEMBL_Kinases

>  <Ligand_Instance>  (842) 
nan

>  <PDB_ID>  (842) 
nan

>  <Standardized_SMILES>  (842) 
Cc1ccc(NC(=O)N2CCCC2C(=O)NCc2cccs2)cc1

>  <Name>  (842) 
nan

>  <Pocket>  (842) 
nan

>  <ATP_Site>  (842) 
nan

>  <Peripheral>  (842) 
nan

>  <Num_H_Atoms_ProtBoundConf>  (842) 
nan

>  <Num_Resolved_Atoms>  (842) 
nan

>  <Num_Not_Resolved_Atoms>  (842) 
nan

$$$$
CHEMBL1325791
     RDKit          3D

  0  0  0  0  0  0  0  0  0  0999 V3000
M  V30 BEGIN CTAB
M  V30 COUNTS 41 43 0 0 0
M  V30 BEGIN ATOM
M  V30 1 C 2.195386 -6.911221 1.546868 0
M  V30 2 C 2.797327 -5.630783 2.107103 0
M  V30 3 C 2.313140 -4.443447 1.322938 0
M  V30 4 C 2.963697 -3.948662 0.208333 0
M  V30 5 C 2.427533 -2.846522 -0.439423 0
M  V30 6 C 1.265285 -2.265730 0.032360 0
M  V30 7 N 0.655808 -1.116010 -0.597018 0
M  V30 8 C 1.000978 0.236294 -0.207719 0
M  V30 9 O 1.844880 -0.020427 0.685605 0
M  V30 10 C 0.186546 1.131305 -1.059573 0
M  V30 11 C 0.373705 2.586688 -0.825909 0
M  V30 12 N 0.026679 2.931403 0.531346 0
M  V30 13 C 0.697385 3.037681 1.693415 0
M  V30 14 O 1.927505 2.828284 1.774069 0
M  V30 15 O -0.076687 3.374047 2.673814 0
M  V30 16 C -1.317595 3.523918 2.273963 0
M  V30 17 C -2.532567 3.859028 2.835602 0
M  V30 18 C -3.684648 3.922071 2.079169 0
M  V30 19 C -3.648912 3.652314 0.747435 0
M  V30 20 C -2.423921 3.315714 0.187640 0
M  V30 21 C -1.243508 3.243732 0.925310 0
M  V30 22 C 0.615777 -2.765726 1.151404 0
M  V30 23 C 1.144408 -3.872771 1.811211 0
M  V30 24 H 1.252694 -7.089489 2.082872 0
M  V30 25 H 2.914503 -7.736340 1.664293 0
M  V30 26 H 1.993083 -6.707424 0.461923 0
M  V30 27 H 3.880650 -5.712036 2.003593 0
M  V30 28 H 2.546896 -5.533965 3.169586 0
M  V30 29 H 3.856456 -4.426154 -0.121517 0
M  V30 30 H 2.903231 -2.425504 -1.315883 0
M  V30 31 H 0.018161 -1.631039 -1.283660 0
M  V30 32 H -0.898075 0.885423 -0.876217 0
M  V30 33 H 0.328739 0.906201 -2.140332 0
M  V30 34 H 1.411156 2.926939 -1.037671 0
M  V30 35 H -0.323686 3.156250 -1.496429 0
M  V30 36 H -2.517437 4.066580 3.900005 0
M  V30 37 H -4.626538 4.189447 2.552965 0
M  V30 38 H -4.555308 3.705999 0.172981 0
M  V30 39 H -2.467737 3.110993 -0.889220 0
M  V30 40 H -0.294790 -2.347435 1.559132 0
M  V30 41 H 0.622635 -4.255675 2.690723 0
M  V30 END ATOM
M  V30 BEGIN BOND
M  V30 1 1 1 2
M  V30 2 1 2 3
M  V30 3 2 3 4
M  V30 4 1 4 5
M  V30 5 2 5 6
M  V30 6 1 6 7
M  V30 7 1 7 8
M  V30 8 2 8 9
M  V30 9 1 8 10
M  V30 10 1 10 11
M  V30 11 1 11 12
M  V30 12 1 12 13
M  V30 13 2 13 14
M  V30 14 1 13 15
M  V30 15 1 15 16
M  V30 16 2 16 17
M  V30 17 1 17 18
M  V30 18 2 18 19
M  V30 19 1 19 20
M  V30 20 2 20 21
M  V30 21 1 6 22
M  V30 22 2 22 23
M  V30 23 1 23 3
M  V30 24 1 21 12
M  V30 25 1 21 16
M  V30 26 1 1 24
M  V30 27 1 1 25
M  V30 28 1 1 26
M  V30 29 1 2 27
M  V30 30 1 2 28
M  V30 31 1 4 29
M  V30 32 1 5 30
M  V30 33 1 7 31
M  V30 34 1 10 32
M  V30 35 1 10 33
M  V30 36 1 11 34
M  V30 37 1 11 35
M  V30 38 1 17 36
M  V30 39 1 18 37
M  V30 40 1 19 38
M  V30 41 1 20 39
M  V30 42 1 22 40
M  V30 43 1 23 41
M  V30 END BOND
M  V30 END CTAB
M  END
>  <Dataset>  (843) 
ChEMBL_Kinases

>  <Ligand_Instance>  (843) 
nan

>  <PDB_ID>  (843) 
nan

>  <Standardized_SMILES>  (843) 
CCc1ccc(NC(=O)CCn2c(=O)oc3ccccc32)cc1

>  <Name>  (843) 
nan

>  <Pocket>  (843) 
nan

>  <ATP_Site>  (843) 
nan

>  <Peripheral>  (843) 
nan

>  <Num_H_Atoms_ProtBoundConf>  (843) 
nan

>  <Num_Resolved_Atoms>  (843) 
nan

>  <Num_Not_Resolved_Atoms>  (843) 
nan

$$$$
CHEMBL1325738
     RDKit          3D

  0  0  0  0  0  0  0  0  0  0999 V3000
M  V30 BEGIN CTAB
M  V30 COUNTS 44 46 0 0 0
M  V30 BEGIN ATOM
M  V30 1 C 1.676893 -2.488339 2.263944 0
M  V30 2 C 3.134030 -2.272592 2.063735 0
M  V30 3 S 3.607446 -0.677612 1.509146 0
M  V30 4 O 5.123103 -0.718858 1.342695 0
M  V30 5 O 3.379991 0.380359 2.555938 0
M  V30 6 C 2.923408 -0.261530 -0.016439 0
M  V30 7 N 3.484254 -0.583684 -1.201918 0
M  V30 8 C 2.779580 -0.126127 -2.235347 0
M  V30 9 C 2.964506 -0.212023 -3.589147 0
M  V30 10 C 2.056384 0.368298 -4.476060 0
M  V30 11 C 0.963067 1.033622 -3.956673 0
M  V30 12 C 0.805095 1.102528 -2.588870 0
M  V30 13 C 1.690647 0.536374 -1.716904 0
M  V30 14 N 1.814025 0.432124 -0.390308 0
M  V30 15 C 0.881298 1.014367 0.541587 0
M  V30 16 C -0.247091 0.149845 0.846193 0
M  V30 17 O -0.085391 -0.858249 0.122974 0
M  V30 18 N -1.404876 0.074064 1.645823 0
M  V30 19 C -2.025387 -1.200165 1.332268 0
M  V30 20 C -3.262179 -1.427332 2.163432 0
M  V30 21 C -3.071919 -1.080448 3.611234 0
M  V30 22 C -2.265877 0.150661 3.865438 0
M  V30 23 C -2.004334 0.967099 2.620500 0
M  V30 24 H 1.540451 -3.282317 3.058707 0
M  V30 25 H 1.139457 -1.611899 2.658443 0
M  V30 26 H 1.182578 -2.941787 1.369366 0
M  V30 27 H 3.474418 -3.054138 1.321239 0
M  V30 28 H 3.666376 -2.572429 3.004447 0
M  V30 29 H 3.799991 -0.719156 -4.048368 0
M  V30 30 H 2.219177 0.290040 -5.550438 0
M  V30 31 H 0.232073 1.500180 -4.624070 0
M  V30 32 H -0.046853 1.620076 -2.153259 0
M  V30 33 H 1.361491 1.305559 1.511591 0
M  V30 34 H 0.534080 1.991753 0.115071 0
M  V30 35 H -1.327161 -2.058578 1.367982 0
M  V30 36 H -2.369548 -1.122326 0.269624 0
M  V30 37 H -4.138358 -0.874208 1.778303 0
M  V30 38 H -3.525754 -2.509973 2.137432 0
M  V30 39 H -4.091839 -0.900884 4.035206 0
M  V30 40 H -2.698341 -1.964898 4.206901 0
M  V30 41 H -1.294238 -0.046483 4.404256 0
M  V30 42 H -2.790359 0.863284 4.567686 0
M  V30 43 H -1.366137 1.816140 2.868036 0
M  V30 44 H -3.020292 1.298843 2.266193 0
M  V30 END ATOM
M  V30 BEGIN BOND
M  V30 1 1 1 2
M  V30 2 1 2 3
M  V30 3 2 3 4
M  V30 4 2 3 5
M  V30 5 1 3 6
M  V30 6 2 6 7
M  V30 7 1 7 8
M  V30 8 2 8 9
M  V30 9 1 9 10
M  V30 10 2 10 11
M  V30 11 1 11 12
M  V30 12 2 12 13
M  V30 13 1 13 14
M  V30 14 1 14 15
M  V30 15 1 15 16
M  V30 16 2 16 17
M  V30 17 1 16 18
M  V30 18 1 18 19
M  V30 19 1 19 20
M  V30 20 1 20 21
M  V30 21 1 21 22
M  V30 22 1 22 23
M  V30 23 1 14 6
M  V30 24 1 23 18
M  V30 25 1 13 8
M  V30 26 1 1 24
M  V30 27 1 1 25
M  V30 28 1 1 26
M  V30 29 1 2 27
M  V30 30 1 2 28
M  V30 31 1 9 29
M  V30 32 1 10 30
M  V30 33 1 11 31
M  V30 34 1 12 32
M  V30 35 1 15 33
M  V30 36 1 15 34
M  V30 37 1 19 35
M  V30 38 1 19 36
M  V30 39 1 20 37
M  V30 40 1 20 38
M  V30 41 1 21 39
M  V30 42 1 21 40
M  V30 43 1 22 41
M  V30 44 1 22 42
M  V30 45 1 23 43
M  V30 46 1 23 44
M  V30 END BOND
M  V30 END CTAB
M  END
>  <Dataset>  (844) 
ChEMBL_Kinases

>  <Ligand_Instance>  (844) 
nan

>  <PDB_ID>  (844) 
nan

>  <Standardized_SMILES>  (844) 
CCS(=O)(=O)c1nc2ccccc2n1CC(=O)N1CCCCC1

>  <Name>  (844) 
nan

>  <Pocket>  (844) 
nan

>  <ATP_Site>  (844) 
nan

>  <Peripheral>  (844) 
nan

>  <Num_H_Atoms_ProtBoundConf>  (844) 
nan

>  <Num_Resolved_Atoms>  (844) 
nan

>  <Num_Not_Resolved_Atoms>  (844) 
nan

$$$$
CHEMBL1325732
     RDKit          3D

  0  0  0  0  0  0  0  0  0  0999 V3000
M  V30 BEGIN CTAB
M  V30 COUNTS 32 34 0 0 0
M  V30 BEGIN ATOM
M  V30 1 N -0.115663 -3.366395 2.761666 0
M  V30 2 S 0.836508 -4.031560 1.476352 0
M  V30 3 O 2.204747 -4.355714 1.973816 0
M  V30 4 O 0.155563 -5.239491 0.927356 0
M  V30 5 C 0.921796 -2.836633 0.190757 0
M  V30 6 C 1.975835 -1.951278 0.264172 0
M  V30 7 C 2.072564 -0.992191 -0.738415 0
M  V30 8 C 1.128078 -0.960667 -1.752602 0
M  V30 9 N 1.385936 0.096351 -2.700946 0
M  V30 10 N 0.987695 1.283680 -2.390917 0
M  V30 11 C 0.322037 1.423677 -1.117399 0
M  V30 12 N 0.942655 1.644873 0.068312 0
M  V30 13 C -0.001496 1.721417 1.051485 0
M  V30 14 C 0.205431 1.936300 2.399088 0
M  V30 15 O 1.463157 2.108331 2.938116 0
M  V30 16 N -0.910347 1.971037 3.185025 0
M  V30 17 C -2.121030 1.793021 2.582354 0
M  V30 18 O -3.239880 1.836144 3.426381 0
M  V30 19 N -2.259429 1.587637 1.264958 0
M  V30 20 C -1.198832 1.539475 0.415720 0
M  V30 21 N -1.003683 1.358348 -0.902875 0
M  V30 22 C 0.086813 -1.864287 -1.791790 0
M  V30 23 C -0.014770 -2.817378 -0.801129 0
M  V30 24 H 0.367011 -3.507662 3.654458 0
M  V30 25 H -1.083482 -3.707715 2.776930 0
M  V30 26 H 2.709761 -1.978952 1.055921 0
M  V30 27 H 2.919319 -0.303597 -0.653411 0
M  V30 28 H 1.953246 1.340657 3.400414 0
M  V30 29 H -3.792809 0.995870 3.508128 0
M  V30 30 H -1.768145 1.200512 -1.589956 0
M  V30 31 H -0.591041 -1.750960 -2.623947 0
M  V30 32 H -0.839659 -3.517150 -0.850650 0
M  V30 END ATOM
M  V30 BEGIN BOND
M  V30 1 1 1 2
M  V30 2 2 2 3
M  V30 3 2 2 4
M  V30 4 1 2 5
M  V30 5 2 5 6
M  V30 6 1 6 7
M  V30 7 2 7 8
M  V30 8 1 8 9
M  V30 9 2 9 10
M  V30 10 1 10 11
M  V30 11 2 11 12
M  V30 12 1 12 13
M  V30 13 2 13 14
M  V30 14 1 14 15
M  V30 15 1 14 16
M  V30 16 2 16 17
M  V30 17 1 17 18
M  V30 18 1 17 19
M  V30 19 2 19 20
M  V30 20 1 20 21
M  V30 21 1 8 22
M  V30 22 2 22 23
M  V30 23 1 23 5
M  V30 24 1 21 11
M  V30 25 1 20 13
M  V30 26 1 1 24
M  V30 27 1 1 25
M  V30 28 1 6 26
M  V30 29 1 7 27
M  V30 30 1 15 28
M  V30 31 1 18 29
M  V30 32 1 21 30
M  V30 33 1 22 31
M  V30 34 1 23 32
M  V30 END BOND
M  V30 END CTAB
M  END
>  <Dataset>  (845) 
ChEMBL_Kinases

>  <Ligand_Instance>  (845) 
nan

>  <PDB_ID>  (845) 
nan

>  <Standardized_SMILES>  (845) 
NS(=O)(=O)c1ccc(/N=N\c2nc3c(O)nc(O)nc3[nH]2)cc1

>  <Name>  (845) 
nan

>  <Pocket>  (845) 
nan

>  <ATP_Site>  (845) 
nan

>  <Peripheral>  (845) 
nan

>  <Num_H_Atoms_ProtBoundConf>  (845) 
nan

>  <Num_Resolved_Atoms>  (845) 
nan

>  <Num_Not_Resolved_Atoms>  (845) 
nan

$$$$
CHEMBL1325724
     RDKit          3D

  0  0  0  0  0  0  0  0  0  0999 V3000
M  V30 BEGIN CTAB
M  V30 COUNTS 42 44 0 0 0
M  V30 BEGIN ATOM
M  V30 1 C 4.157444 -1.885097 5.290564 0
M  V30 2 C 3.153111 -1.267386 4.400436 0
M  V30 3 O 2.476099 -0.244049 4.669695 0
M  V30 4 N 2.928163 -1.882635 3.121724 0
M  V30 5 C 1.972404 -1.326287 2.229550 0
M  V30 6 N 2.357479 -0.391587 1.341369 0
M  V30 7 C 1.456123 0.153477 0.478028 0
M  V30 8 C 1.890875 1.165656 -0.478349 0
M  V30 9 C 3.212835 1.564360 -0.502076 0
M  V30 10 C 3.759821 2.499862 -1.341493 0
M  V30 11 C 2.853454 3.074343 -2.238066 0
M  V30 12 C 1.517614 2.730642 -2.277818 0
M  V30 13 C 1.061408 1.778314 -1.392433 0
M  V30 14 N 0.175715 -0.221744 0.489199 0
M  V30 15 C -0.233884 -1.150343 1.363285 0
M  V30 16 C -1.611797 -1.663622 1.493141 0
M  V30 17 C -1.975398 -2.616186 2.409093 0
M  V30 18 C -3.276377 -3.062310 2.490810 0
M  V30 19 C -4.265991 -2.576817 1.663131 0
M  V30 20 C -3.935823 -1.622414 0.734903 0
M  V30 21 C -2.631758 -1.203536 0.683502 0
M  V30 22 O -2.377650 -0.224126 -0.295115 0
M  V30 23 C -2.016827 -0.613461 -1.589181 0
M  V30 24 C -1.626720 -0.881473 -2.996340 0
M  V30 25 O -2.165589 -1.718415 -0.988913 0
M  V30 26 N 0.672803 -1.672710 2.203826 0
M  V30 27 H 4.911632 -2.424846 4.680180 0
M  V30 28 H 3.656146 -2.649845 5.919389 0
M  V30 29 H 4.734779 -1.134119 5.864712 0
M  V30 30 H 3.424222 -2.744511 2.763940 0
M  V30 31 H 3.880140 1.091602 0.211647 0
M  V30 32 H 4.803560 2.758657 -1.299928 0
M  V30 33 H 3.278792 3.827907 -2.918905 0
M  V30 34 H 0.852658 3.197463 -2.984430 0
M  V30 35 H 0.020956 1.493236 -1.404679 0
M  V30 36 H -1.177664 -2.997480 3.065433 0
M  V30 37 H -3.455702 -3.827175 3.260872 0
M  V30 38 H -5.257507 -2.993184 1.807791 0
M  V30 39 H -4.708656 -1.241364 0.086455 0
M  V30 40 H -1.516576 0.067201 -3.562181 0
M  V30 41 H -0.687714 -1.467783 -2.970853 0
M  V30 42 H -2.421709 -1.490760 -3.450204 0
M  V30 END ATOM
M  V30 BEGIN BOND
M  V30 1 1 1 2
M  V30 2 2 2 3
M  V30 3 1 2 4
M  V30 4 1 4 5
M  V30 5 2 5 6
M  V30 6 1 6 7
M  V30 7 1 7 8
M  V30 8 2 8 9
M  V30 9 1 9 10
M  V30 10 2 10 11
M  V30 11 1 11 12
M  V30 12 2 12 13
M  V30 13 2 7 14
M  V30 14 1 14 15
M  V30 15 1 15 16
M  V30 16 2 16 17
M  V30 17 1 17 18
M  V30 18 2 18 19
M  V30 19 1 19 20
M  V30 20 2 20 21
M  V30 21 1 21 22
M  V30 22 1 22 23
M  V30 23 1 23 24
M  V30 24 2 23 25
M  V30 25 2 15 26
M  V30 26 1 26 5
M  V30 27 1 13 8
M  V30 28 1 21 16
M  V30 29 1 1 27
M  V30 30 1 1 28
M  V30 31 1 1 29
M  V30 32 1 4 30
M  V30 33 1 9 31
M  V30 34 1 10 32
M  V30 35 1 11 33
M  V30 36 1 12 34
M  V30 37 1 13 35
M  V30 38 1 17 36
M  V30 39 1 18 37
M  V30 40 1 19 38
M  V30 41 1 20 39
M  V30 42 1 24 40
M  V30 43 1 24 41
M  V30 44 1 24 42
M  V30 END BOND
M  V30 END CTAB
M  END
>  <Dataset>  (846) 
ChEMBL_Kinases

>  <Ligand_Instance>  (846) 
nan

>  <PDB_ID>  (846) 
nan

>  <Standardized_SMILES>  (846) 
CC(=O)Nc1nc(-c2ccccc2)nc(-c2ccccc2OC(C)=O)n1

>  <Name>  (846) 
nan

>  <Pocket>  (846) 
nan

>  <ATP_Site>  (846) 
nan

>  <Peripheral>  (846) 
nan

>  <Num_H_Atoms_ProtBoundConf>  (846) 
nan

>  <Num_Resolved_Atoms>  (846) 
nan

>  <Num_Not_Resolved_Atoms>  (846) 
nan

$$$$
CHEMBL1325377
     RDKit          3D

  0  0  0  0  0  0  0  0  0  0999 V3000
M  V30 BEGIN CTAB
M  V30 COUNTS 48 51 0 0 0
M  V30 BEGIN ATOM
M  V30 1 O -0.566181 1.022374 1.464356 0
M  V30 2 C -0.848999 1.137185 2.681311 0
M  V30 3 C -0.369191 2.380598 3.282253 0
M  V30 4 C 0.361261 3.268789 2.335476 0
M  V30 5 C 1.558514 2.602414 1.770863 0
M  V30 6 N 2.286753 3.326520 0.902227 0
M  V30 7 C 3.339113 2.590062 0.475990 0
M  V30 8 C 4.395978 2.981408 -0.477854 0
M  V30 9 C 5.425621 2.135692 -0.837501 0
M  V30 10 C 6.399156 2.533489 -1.733333 0
M  V30 11 C 6.337916 3.813117 -2.282520 0
M  V30 12 C 5.302817 4.650326 -1.914938 0
M  V30 13 C 4.314023 4.260355 -1.011597 0
M  V30 14 F 3.301794 5.087726 -0.656109 0
M  V30 15 N 3.214468 1.411660 1.114988 0
M  V30 16 O 2.151615 1.441228 1.877588 0
M  V30 17 N -1.565390 0.123579 3.346370 0
M  V30 18 C -2.053429 -1.095111 2.820899 0
M  V30 19 C -1.935504 -1.563393 1.535254 0
M  V30 20 C -2.443012 -2.767979 1.105390 0
M  V30 21 C -3.117955 -3.590734 1.976777 0
M  V30 22 O -3.665676 -4.815890 1.651496 0
M  V30 23 C -3.615712 -5.396846 0.397912 0
M  V30 24 C -4.537709 -5.247271 -0.619052 0
M  V30 25 C -4.364488 -5.892106 -1.836962 0
M  V30 26 C -3.276477 -6.697287 -2.073127 0
M  V30 27 C -2.337994 -6.859888 -1.061619 0
M  V30 28 C -2.515957 -6.213213 0.153501 0
M  V30 29 C -3.247032 -3.142732 3.264443 0
M  V30 30 C -2.731821 -1.933661 3.675303 0
M  V30 31 H 0.345718 2.130857 4.107120 0
M  V30 32 H -1.206260 2.973044 3.738777 0
M  V30 33 H 0.734913 4.131581 2.920059 0
M  V30 34 H -0.283881 3.705856 1.546956 0
M  V30 35 H 5.464649 1.140311 -0.403989 0
M  V30 36 H 7.198564 1.863350 -2.006299 0
M  V30 37 H 7.074290 4.175598 -2.988711 0
M  V30 38 H 5.214293 5.645895 -2.312356 0
M  V30 39 H -1.717226 0.366954 4.336259 0
M  V30 40 H -1.423782 -0.972713 0.813404 0
M  V30 41 H -2.324273 -3.091185 0.085525 0
M  V30 42 H -5.375255 -4.605098 -0.386201 0
M  V30 43 H -5.139746 -5.706185 -2.554674 0
M  V30 44 H -3.158236 -7.186783 -3.017173 0
M  V30 45 H -1.489653 -7.501025 -1.276199 0
M  V30 46 H -1.733012 -6.404285 0.870759 0
M  V30 47 H -3.762809 -3.742948 3.983196 0
M  V30 48 H -2.870771 -1.640849 4.710490 0
M  V30 END ATOM
M  V30 BEGIN BOND
M  V30 1 2 1 2
M  V30 2 1 2 3
M  V30 3 1 3 4
M  V30 4 1 4 5
M  V30 5 2 5 6
M  V30 6 1 6 7
M  V30 7 1 7 8
M  V30 8 2 8 9
M  V30 9 1 9 10
M  V30 10 2 10 11
M  V30 11 1 11 12
M  V30 12 2 12 13
M  V30 13 1 13 14
M  V30 14 2 7 15
M  V30 15 1 15 16
M  V30 16 1 2 17
M  V30 17 1 17 18
M  V30 18 2 18 19
M  V30 19 1 19 20
M  V30 20 2 20 21
M  V30 21 1 21 22
M  V30 22 1 22 23
M  V30 23 2 23 24
M  V30 24 1 24 25
M  V30 25 2 25 26
M  V30 26 1 26 27
M  V30 27 2 27 28
M  V30 28 1 21 29
M  V30 29 2 29 30
M  V30 30 1 16 5
M  V30 31 1 30 18
M  V30 32 1 13 8
M  V30 33 1 28 23
M  V30 34 1 3 31
M  V30 35 1 3 32
M  V30 36 1 4 33
M  V30 37 1 4 34
M  V30 38 1 9 35
M  V30 39 1 10 36
M  V30 40 1 11 37
M  V30 41 1 12 38
M  V30 42 1 17 39
M  V30 43 1 19 40
M  V30 44 1 20 41
M  V30 45 1 24 42
M  V30 46 1 25 43
M  V30 47 1 26 44
M  V30 48 1 27 45
M  V30 49 1 28 46
M  V30 50 1 29 47
M  V30 51 1 30 48
M  V30 END BOND
M  V30 END CTAB
M  END
>  <Dataset>  (847) 
ChEMBL_Kinases

>  <Ligand_Instance>  (847) 
nan

>  <PDB_ID>  (847) 
nan

>  <Standardized_SMILES>  (847) 
O=C(CCc1nc(-c2ccccc2F)no1)Nc1ccc(Oc2ccccc2)cc1

>  <Name>  (847) 
nan

>  <Pocket>  (847) 
nan

>  <ATP_Site>  (847) 
nan

>  <Peripheral>  (847) 
nan

>  <Num_H_Atoms_ProtBoundConf>  (847) 
nan

>  <Num_Resolved_Atoms>  (847) 
nan

>  <Num_Not_Resolved_Atoms>  (847) 
nan

$$$$
CHEMBL1316353
     RDKit          3D

  0  0  0  0  0  0  0  0  0  0999 V3000
M  V30 BEGIN CTAB
M  V30 COUNTS 42 44 0 0 0
M  V30 BEGIN ATOM
M  V30 1 C 2.097293 -5.684923 1.458128 0
M  V30 2 C 3.453288 -5.009424 1.466871 0
M  V30 3 N 3.206931 -3.598542 1.716063 0
M  V30 4 C 2.393160 -2.892817 0.780881 0
M  V30 5 N 1.899262 -3.564848 -0.275901 0
M  V30 6 C 1.122143 -2.987579 -1.211934 0
M  V30 7 C 0.869028 -1.634066 -0.998646 0
M  V30 8 N 0.089867 -1.028684 -1.925290 0
M  V30 9 C -0.224364 0.292457 -1.820191 0
M  V30 10 C -1.077022 0.992394 -2.817594 0
M  V30 11 C 0.294311 0.957098 -0.728692 0
M  V30 12 O 0.016381 2.168968 -0.616661 0
M  V30 13 N 1.071744 0.394975 0.214579 0
M  V30 14 C 1.616587 1.067302 1.351046 0
M  V30 15 C 0.714110 1.015879 2.559908 0
M  V30 16 C -0.597505 1.635985 2.322471 0
M  V30 17 C -0.837898 2.984278 2.560045 0
M  V30 18 C -2.070653 3.562647 2.336699 0
M  V30 19 C -3.133919 2.802619 1.857612 0
M  V30 20 C -2.948362 1.449725 1.603200 0
M  V30 21 C -1.691990 0.912487 1.842708 0
M  V30 22 C 1.366521 -0.929038 0.078324 0
M  V30 23 N 2.143079 -1.568685 0.985762 0
M  V30 24 H 1.328348 -5.086610 2.006760 0
M  V30 25 H 1.725805 -5.881179 0.430153 0
M  V30 26 H 2.125303 -6.692646 1.946398 0
M  V30 27 H 3.852398 -5.129658 0.426066 0
M  V30 28 H 4.125746 -5.431603 2.221406 0
M  V30 29 H 3.605003 -3.094150 2.551275 0
M  V30 30 H 0.724596 -3.525838 -2.061367 0
M  V30 31 H -2.063973 1.179648 -2.353643 0
M  V30 32 H -1.283883 0.244206 -3.631114 0
M  V30 33 H -0.587124 1.900797 -3.221858 0
M  V30 34 H 1.678669 2.156167 1.069962 0
M  V30 35 H 2.644859 0.780967 1.626031 0
M  V30 36 H 1.233682 1.421625 3.451002 0
M  V30 37 H 0.528663 -0.062965 2.793108 0
M  V30 38 H -0.000595 3.575680 2.935694 0
M  V30 39 H -2.182835 4.626618 2.546495 0
M  V30 40 H -4.099742 3.239764 1.678992 0
M  V30 41 H -3.718965 0.790458 1.231311 0
M  V30 42 H -1.543056 -0.142037 1.645652 0
M  V30 END ATOM
M  V30 BEGIN BOND
M  V30 1 1 1 2
M  V30 2 1 2 3
M  V30 3 1 3 4
M  V30 4 2 4 5
M  V30 5 1 5 6
M  V30 6 2 6 7
M  V30 7 1 7 8
M  V30 8 2 8 9
M  V30 9 1 9 10
M  V30 10 1 9 11
M  V30 11 2 11 12
M  V30 12 1 11 13
M  V30 13 1 13 14
M  V30 14 1 14 15
M  V30 15 1 15 16
M  V30 16 2 16 17
M  V30 17 1 17 18
M  V30 18 2 18 19
M  V30 19 1 19 20
M  V30 20 2 20 21
M  V30 21 1 13 22
M  V30 22 2 22 23
M  V30 23 1 23 4
M  V30 24 1 22 7
M  V30 25 1 21 16
M  V30 26 1 1 24
M  V30 27 1 1 25
M  V30 28 1 1 26
M  V30 29 1 2 27
M  V30 30 1 2 28
M  V30 31 1 3 29
M  V30 32 1 6 30
M  V30 33 1 10 31
M  V30 34 1 10 32
M  V30 35 1 10 33
M  V30 36 1 14 34
M  V30 37 1 14 35
M  V30 38 1 15 36
M  V30 39 1 15 37
M  V30 40 1 17 38
M  V30 41 1 18 39
M  V30 42 1 19 40
M  V30 43 1 20 41
M  V30 44 1 21 42
M  V30 END BOND
M  V30 END CTAB
M  END
>  <Dataset>  (848) 
ChEMBL_Kinases

>  <Ligand_Instance>  (848) 
nan

>  <PDB_ID>  (848) 
nan

>  <Standardized_SMILES>  (848) 
CCNc1ncc2nc(C)c(=O)n(CCc3ccccc3)c2n1

>  <Name>  (848) 
nan

>  <Pocket>  (848) 
nan

>  <ATP_Site>  (848) 
nan

>  <Peripheral>  (848) 
nan

>  <Num_H_Atoms_ProtBoundConf>  (848) 
nan

>  <Num_Resolved_Atoms>  (848) 
nan

>  <Num_Not_Resolved_Atoms>  (848) 
nan

$$$$
CHEMBL1323407
     RDKit          3D

  0  0  0  0  0  0  0  0  0  0999 V3000
M  V30 BEGIN CTAB
M  V30 COUNTS 44 47 0 0 0
M  V30 BEGIN ATOM
M  V30 1 C -1.609873 2.482127 3.049053 0
M  V30 2 N -0.478831 2.281153 2.165625 0
M  V30 3 C 0.117143 3.432479 1.578293 0
M  V30 4 O -0.252593 4.621408 1.758242 0
M  V30 5 N 1.220291 3.153519 0.724685 0
M  V30 6 C 1.815687 1.885745 0.372208 0
M  V30 7 C 1.869922 1.660340 -1.089717 0
M  V30 8 C 3.005965 1.166315 -1.732657 0
M  V30 9 C 3.082725 0.947849 -3.088729 0
M  V30 10 C 1.965144 1.233612 -3.876298 0
M  V30 11 C 0.837208 1.721409 -3.257112 0
M  V30 12 C 0.776836 1.935188 -1.893017 0
M  V30 13 C 1.060669 0.820408 1.078180 0
M  V30 14 C 0.025545 0.978308 1.889226 0
M  V30 15 C -0.467160 -0.322437 2.408579 0
M  V30 16 N 0.431245 -1.274709 1.783760 0
M  V30 17 C 0.201157 -2.645524 2.100385 0
M  V30 18 C 0.782097 -3.310727 3.159455 0
M  V30 19 C 0.478959 -4.645195 3.364239 0
M  V30 20 C -0.395011 -5.300781 2.517003 0
M  V30 21 C -0.983340 -4.644724 1.452393 0
M  V30 22 C -1.931767 -5.329684 0.521070 0
M  V30 23 F -1.436409 -5.244819 -0.782565 0
M  V30 24 F -1.948068 -6.664014 0.845820 0
M  V30 25 F -3.160362 -4.735247 0.496532 0
M  V30 26 C -0.670267 -3.311393 1.261110 0
M  V30 27 C 1.385548 -0.610355 0.957521 0
M  V30 28 O 2.258717 -1.244636 0.321944 0
M  V30 29 H -2.179054 3.349874 2.656983 0
M  V30 30 H -1.287781 2.603074 4.102034 0
M  V30 31 H -2.245984 1.555978 2.993367 0
M  V30 32 H 1.725246 3.930405 0.246323 0
M  V30 33 H 2.865641 1.869855 0.776662 0
M  V30 34 H 3.837368 0.965239 -1.065113 0
M  V30 35 H 4.014416 0.556560 -3.517636 0
M  V30 36 H 2.022967 1.063858 -4.934579 0
M  V30 37 H -0.052359 1.954304 -3.845443 0
M  V30 38 H -0.111745 2.320708 -1.396452 0
M  V30 39 H -1.526411 -0.510789 2.156683 0
M  V30 40 H -0.282962 -0.310070 3.520943 0
M  V30 41 H 1.451645 -2.740237 3.777782 0
M  V30 42 H 0.945607 -5.164579 4.208218 0
M  V30 43 H -0.614062 -6.349993 2.703226 0
M  V30 44 H -1.145822 -2.800624 0.409367 0
M  V30 END ATOM
M  V30 BEGIN BOND
M  V30 1 1 1 2
M  V30 2 1 2 3
M  V30 3 2 3 4
M  V30 4 1 3 5
M  V30 5 1 5 6
M  V30 6 1 6 7
M  V30 7 2 7 8
M  V30 8 1 8 9
M  V30 9 2 9 10
M  V30 10 1 10 11
M  V30 11 2 11 12
M  V30 12 1 6 13
M  V30 13 2 13 14
M  V30 14 1 14 15
M  V30 15 1 15 16
M  V30 16 1 16 17
M  V30 17 2 17 18
M  V30 18 1 18 19
M  V30 19 2 19 20
M  V30 20 1 20 21
M  V30 21 1 21 22
M  V30 22 1 22 23
M  V30 23 1 22 24
M  V30 24 1 22 25
M  V30 25 2 21 26
M  V30 26 1 16 27
M  V30 27 2 27 28
M  V30 28 1 14 2
M  V30 29 1 26 17
M  V30 30 1 12 7
M  V30 31 1 27 13
M  V30 32 1 1 29
M  V30 33 1 1 30
M  V30 34 1 1 31
M  V30 35 1 5 32
M  V30 36 1 6 33
M  V30 37 1 8 34
M  V30 38 1 9 35
M  V30 39 1 10 36
M  V30 40 1 11 37
M  V30 41 1 12 38
M  V30 42 1 15 39
M  V30 43 1 15 40
M  V30 44 1 18 41
M  V30 45 1 19 42
M  V30 46 1 20 43
M  V30 47 1 26 44
M  V30 END BOND
M  V30 END CTAB
M  END
>  <Dataset>  (849) 
ChEMBL_Kinases

>  <Ligand_Instance>  (849) 
nan

>  <PDB_ID>  (849) 
nan

>  <Standardized_SMILES>  (849) 
CN1C(=O)NC(c2ccccc2)C2=C1CN(c1cccc(C(F)(F)F)c1)C2=O

>  <Name>  (849) 
nan

>  <Pocket>  (849) 
nan

>  <ATP_Site>  (849) 
nan

>  <Peripheral>  (849) 
nan

>  <Num_H_Atoms_ProtBoundConf>  (849) 
nan

>  <Num_Resolved_Atoms>  (849) 
nan

>  <Num_Not_Resolved_Atoms>  (849) 
nan

$$$$
CHEMBL1323500
     RDKit          3D

  0  0  0  0  0  0  0  0  0  0999 V3000
M  V30 BEGIN CTAB
M  V30 COUNTS 35 35 0 0 0
M  V30 BEGIN ATOM
M  V30 1 C 0.075917 -1.283667 3.075859 0
M  V30 2 C -0.300025 -2.318020 2.012545 0
M  V30 3 C -1.738011 -2.681646 2.295259 0
M  V30 4 C 0.556134 -3.548147 2.203718 0
M  V30 5 C -0.111542 -1.767183 0.669071 0
M  V30 6 O -1.071194 -1.662345 -0.164137 0
M  V30 7 N 1.148513 -1.328093 0.240209 0
M  V30 8 C 1.513294 -0.769149 -1.023176 0
M  V30 9 S 1.975162 0.984911 -0.893711 0
M  V30 10 C 0.565710 1.981756 -0.432161 0
M  V30 11 C -0.115220 2.426639 -1.564782 0
M  V30 12 C -1.254535 3.228242 -1.433530 0
M  V30 13 C -1.693830 3.571098 -0.175429 0
M  V30 14 C -1.006282 3.121007 0.933761 0
M  V30 15 C 0.118058 2.330359 0.813806 0
M  V30 16 C 2.485301 -1.563661 -1.821468 0
M  V30 17 Cl 2.798833 -0.685455 -3.357479 0
M  V30 18 Cl 4.050416 -1.783235 -1.040553 0
M  V30 19 Cl 1.750928 -3.110913 -2.280654 0
M  V30 20 H -0.474398 -0.346530 2.917887 0
M  V30 21 H -0.272408 -1.718299 4.050581 0
M  V30 22 H 1.168650 -1.178750 3.145295 0
M  V30 23 H -2.174590 -3.395194 1.573977 0
M  V30 24 H -2.312387 -1.749278 2.396168 0
M  V30 25 H -1.738786 -3.211403 3.277475 0
M  V30 26 H 0.039553 -4.201474 2.966219 0
M  V30 27 H 1.574469 -3.286574 2.572784 0
M  V30 28 H 0.592808 -4.121681 1.242670 0
M  V30 29 H 2.027630 -1.362113 0.838829 0
M  V30 30 H 0.565089 -0.751008 -1.636760 0
M  V30 31 H 0.120790 2.231986 -2.609859 0
M  V30 32 H -1.832467 3.610556 -2.263311 0
M  V30 33 H -2.565917 4.185971 -0.051536 0
M  V30 34 H -1.304128 3.358177 1.956525 0
M  V30 35 H 0.732624 1.921661 1.595199 0
M  V30 END ATOM
M  V30 BEGIN BOND
M  V30 1 1 1 2
M  V30 2 1 2 3
M  V30 3 1 2 4
M  V30 4 1 2 5
M  V30 5 2 5 6
M  V30 6 1 5 7
M  V30 7 1 7 8
M  V30 8 1 8 9
M  V30 9 1 9 10
M  V30 10 2 10 11
M  V30 11 1 11 12
M  V30 12 2 12 13
M  V30 13 1 13 14
M  V30 14 2 14 15
M  V30 15 1 8 16
M  V30 16 1 16 17
M  V30 17 1 16 18
M  V30 18 1 16 19
M  V30 19 1 15 10
M  V30 20 1 1 20
M  V30 21 1 1 21
M  V30 22 1 1 22
M  V30 23 1 3 23
M  V30 24 1 3 24
M  V30 25 1 3 25
M  V30 26 1 4 26
M  V30 27 1 4 27
M  V30 28 1 4 28
M  V30 29 1 7 29
M  V30 30 1 8 30
M  V30 31 1 11 31
M  V30 32 1 12 32
M  V30 33 1 13 33
M  V30 34 1 14 34
M  V30 35 1 15 35
M  V30 END BOND
M  V30 END CTAB
M  END
>  <Dataset>  (850) 
ChEMBL_Kinases

>  <Ligand_Instance>  (850) 
nan

>  <PDB_ID>  (850) 
nan

>  <Standardized_SMILES>  (850) 
CC(C)(C)C(=O)NC(Sc1ccccc1)C(Cl)(Cl)Cl

>  <Name>  (850) 
nan

>  <Pocket>  (850) 
nan

>  <ATP_Site>  (850) 
nan

>  <Peripheral>  (850) 
nan

>  <Num_H_Atoms_ProtBoundConf>  (850) 
nan

>  <Num_Resolved_Atoms>  (850) 
nan

>  <Num_Not_Resolved_Atoms>  (850) 
nan

$$$$
CHEMBL1323605
     RDKit          3D

  0  0  0  0  0  0  0  0  0  0999 V3000
M  V30 BEGIN CTAB
M  V30 COUNTS 51 55 0 0 0
M  V30 BEGIN ATOM
M  V30 1 C 4.253805 -1.657020 2.395813 0
M  V30 2 C 3.176700 -2.376784 2.018064 0
M  V30 3 C 1.820954 -2.061733 2.536653 0
M  V30 4 N 0.886661 -1.725751 1.512611 0
M  V30 5 C 0.630916 -0.486702 1.017618 0
M  V30 6 N 1.237735 0.743025 1.411777 0
M  V30 7 C 2.411714 1.051831 0.653947 0
M  V30 8 O 2.830836 0.273499 -0.269211 0
M  V30 9 C 3.173309 2.263560 0.905133 0
M  V30 10 C 4.313325 2.599899 0.195834 0
M  V30 11 C 4.789996 3.818656 0.691223 0
M  V30 12 C 3.874877 4.142711 1.697000 0
M  V30 13 O 2.947528 3.201103 1.783261 0
M  V30 14 C -0.346658 -0.625123 0.037905 0
M  V30 15 S -1.033141 0.683314 -0.913306 0
M  V30 16 O -1.443701 0.113173 -2.261004 0
M  V30 17 O -0.016527 1.771599 -1.089009 0
M  V30 18 C -2.426381 1.305732 -0.063031 0
M  V30 19 C -3.690058 0.797265 -0.269465 0
M  V30 20 C -4.760860 1.318472 0.422876 0
M  V30 21 C -4.591282 2.347830 1.326100 0
M  V30 22 C -3.311014 2.829669 1.504915 0
M  V30 23 C -2.186858 2.340551 0.830960 0
M  V30 24 C -0.668000 -1.966513 -0.041590 0
M  V30 25 N -1.547735 -2.636992 -0.821074 0
M  V30 26 C -1.702053 -3.977679 -0.728878 0
M  V30 27 C -2.590188 -4.693044 -1.508644 0
M  V30 28 C -2.748836 -6.059070 -1.416194 0
M  V30 29 C -1.964727 -6.738910 -0.482342 0
M  V30 30 C -1.068377 -6.028327 0.306766 0
M  V30 31 C -0.925626 -4.659327 0.197429 0
M  V30 32 N -0.041533 -3.978580 0.979465 0
M  V30 33 C 0.109379 -2.642685 0.884649 0
M  V30 34 H 4.097138 -0.825191 3.103315 0
M  V30 35 H 4.563603 -0.816643 3.020212 0
M  V30 36 H 4.112888 -2.695616 1.577531 0
M  V30 37 H 1.915987 -1.203464 3.233350 0
M  V30 38 H 1.422951 -2.917749 3.153502 0
M  V30 39 H 0.919275 1.401511 2.162414 0
M  V30 40 H 4.840735 2.103092 -0.611564 0
M  V30 41 H 5.634399 4.449124 0.445935 0
M  V30 42 H 3.826989 5.009372 2.373802 0
M  V30 43 H -3.846276 -0.006989 -0.970290 0
M  V30 44 H -5.783656 0.958322 0.302601 0
M  V30 45 H -5.364989 2.819543 1.912987 0
M  V30 46 H -3.122048 3.635569 2.200639 0
M  V30 47 H -1.202718 2.741230 0.996042 0
M  V30 48 H -3.169555 -4.087275 -2.218033 0
M  V30 49 H -3.461534 -6.575036 -2.052750 0
M  V30 50 H -2.050061 -7.808336 -0.369931 0
M  V30 51 H -0.479604 -6.595818 1.018649 0
M  V30 END ATOM
M  V30 BEGIN BOND
M  V30 1 2 1 2
M  V30 2 1 2 3
M  V30 3 1 3 4
M  V30 4 1 4 5
M  V30 5 1 5 6
M  V30 6 1 6 7
M  V30 7 2 7 8
M  V30 8 1 7 9
M  V30 9 2 9 10
M  V30 10 1 10 11
M  V30 11 2 11 12
M  V30 12 1 12 13
M  V30 13 2 5 14
M  V30 14 1 14 15
M  V30 15 2 15 16
M  V30 16 2 15 17
M  V30 17 1 15 18
M  V30 18 2 18 19
M  V30 19 1 19 20
M  V30 20 2 20 21
M  V30 21 1 21 22
M  V30 22 2 22 23
M  V30 23 1 14 24
M  V30 24 2 24 25
M  V30 25 1 25 26
M  V30 26 2 26 27
M  V30 27 1 27 28
M  V30 28 2 28 29
M  V30 29 1 29 30
M  V30 30 2 30 31
M  V30 31 1 31 32
M  V30 32 2 32 33
M  V30 33 1 33 4
M  V30 34 1 13 9
M  V30 35 1 23 18
M  V30 36 1 33 24
M  V30 37 1 31 26
M  V30 38 1 1 34
M  V30 39 1 1 35
M  V30 40 1 2 36
M  V30 41 1 3 37
M  V30 42 1 3 38
M  V30 43 1 6 39
M  V30 44 1 10 40
M  V30 45 1 11 41
M  V30 46 1 12 42
M  V30 47 1 19 43
M  V30 48 1 20 44
M  V30 49 1 21 45
M  V30 50 1 22 46
M  V30 51 1 23 47
M  V30 52 1 27 48
M  V30 53 1 28 49
M  V30 54 1 29 50
M  V30 55 1 30 51
M  V30 END BOND
M  V30 END CTAB
M  END
>  <Dataset>  (851) 
ChEMBL_Kinases

>  <Ligand_Instance>  (851) 
nan

>  <PDB_ID>  (851) 
nan

>  <Standardized_SMILES>  (851) 
C=CCn1c(NC(=O)c2ccco2)c(S(=O)(=O)c2ccccc2)c2nc3ccccc3nc21

>  <Name>  (851) 
nan

>  <Pocket>  (851) 
nan

>  <ATP_Site>  (851) 
nan

>  <Peripheral>  (851) 
nan

>  <Num_H_Atoms_ProtBoundConf>  (851) 
nan

>  <Num_Resolved_Atoms>  (851) 
nan

>  <Num_Not_Resolved_Atoms>  (851) 
nan

$$$$
CHEMBL1324011
     RDKit          3D

  0  0  0  0  0  0  0  0  0  0999 V3000
M  V30 BEGIN CTAB
M  V30 COUNTS 36 38 0 0 0
M  V30 BEGIN ATOM
M  V30 1 C 0.361235 -0.471412 4.082736 0
M  V30 2 C 0.731594 -1.317812 2.915989 0
M  V30 3 C 0.387828 -2.645478 2.774461 0
M  V30 4 C 0.797460 -3.318357 1.636535 0
M  V30 5 C 1.544629 -2.680453 0.641723 0
M  V30 6 C 1.862811 -3.621507 -0.483623 0
M  V30 7 C 1.885881 -1.335855 0.797606 0
M  V30 8 N 2.634609 -0.839474 -0.281877 0
M  V30 9 N 2.275596 0.156225 -0.970101 0
M  V30 10 C 1.084429 0.885494 -0.737346 0
M  V30 11 C 1.193872 2.154454 -0.185314 0
M  V30 12 C 0.126127 2.979747 0.096890 0
M  V30 13 C -1.148760 2.534347 -0.180269 0
M  V30 14 O -2.302429 3.268685 0.057114 0
M  V30 15 C -1.281135 1.275810 -0.729385 0
M  V30 16 N -2.520123 0.807827 -1.014009 0
M  V30 17 C -2.644164 -0.409295 -1.544979 0
M  V30 18 C -1.596197 -1.268756 -1.843222 0
M  V30 19 C -0.341037 -0.786839 -1.551521 0
M  V30 20 C -0.199033 0.469590 -1.002443 0
M  V30 21 C 1.468483 -0.698437 1.929209 0
M  V30 22 H 0.015008 -1.149936 4.890456 0
M  V30 23 H -0.447189 0.208375 3.794700 0
M  V30 24 H 1.250804 0.105139 4.414094 0
M  V30 25 H -0.190319 -3.100086 3.566812 0
M  V30 26 H 0.476880 -4.352404 1.622803 0
M  V30 27 H 0.945743 -4.131797 -0.782333 0
M  V30 28 H 2.577552 -4.389233 -0.086893 0
M  V30 29 H 2.314938 -3.067924 -1.332145 0
M  V30 30 H 2.172832 2.543414 0.047647 0
M  V30 31 H 0.248259 3.955756 0.524035 0
M  V30 32 H -2.308135 4.160154 0.516162 0
M  V30 33 H -3.660863 -0.741241 -1.756175 0
M  V30 34 H -1.774184 -2.244920 -2.274386 0
M  V30 35 H 0.511420 -1.394867 -1.755247 0
M  V30 36 H 1.759245 0.334193 1.997279 0
M  V30 END ATOM
M  V30 BEGIN BOND
M  V30 1 1 1 2
M  V30 2 2 2 3
M  V30 3 1 3 4
M  V30 4 2 4 5
M  V30 5 1 5 6
M  V30 6 1 5 7
M  V30 7 1 7 8
M  V30 8 2 8 9 CFG=2
M  V30 9 1 9 10
M  V30 10 2 10 11
M  V30 11 1 11 12
M  V30 12 2 12 13
M  V30 13 1 13 14
M  V30 14 1 13 15
M  V30 15 2 15 16
M  V30 16 1 16 17
M  V30 17 2 17 18
M  V30 18 1 18 19
M  V30 19 2 19 20
M  V30 20 2 7 21
M  V30 21 1 21 2
M  V30 22 1 20 10
M  V30 23 1 20 15
M  V30 24 1 1 22
M  V30 25 1 1 23
M  V30 26 1 1 24
M  V30 27 1 3 25
M  V30 28 1 4 26
M  V30 29 1 6 27
M  V30 30 1 6 28
M  V30 31 1 6 29
M  V30 32 1 11 30
M  V30 33 1 12 31
M  V30 34 1 14 32
M  V30 35 1 17 33
M  V30 36 1 18 34
M  V30 37 1 19 35
M  V30 38 1 21 36
M  V30 END BOND
M  V30 END CTAB
M  END
>  <Dataset>  (852) 
ChEMBL_Kinases

>  <Ligand_Instance>  (852) 
nan

>  <PDB_ID>  (852) 
nan

>  <Standardized_SMILES>  (852) 
Cc1ccc(C)c(N=Nc2ccc(O)c3ncccc23)c1

>  <Name>  (852) 
nan

>  <Pocket>  (852) 
nan

>  <ATP_Site>  (852) 
nan

>  <Peripheral>  (852) 
nan

>  <Num_H_Atoms_ProtBoundConf>  (852) 
nan

>  <Num_Resolved_Atoms>  (852) 
nan

>  <Num_Not_Resolved_Atoms>  (852) 
nan

$$$$
CHEMBL1324191
     RDKit          3D

  0  0  0  0  0  0  0  0  0  0999 V3000
M  V30 BEGIN CTAB
M  V30 COUNTS 21 21 0 0 0
M  V30 BEGIN ATOM
M  V30 1 C -0.966456 0.552832 2.540151 0
M  V30 2 C 0.399547 0.082497 2.206415 0
M  V30 3 C 1.493354 0.340907 3.030449 0
M  V30 4 C 2.591955 -0.235711 2.421103 0
M  V30 5 N 2.157802 -0.809332 1.284498 0
M  V30 6 N 0.856591 -0.628718 1.142913 0
M  V30 7 C -0.082512 -1.031990 0.124381 0
M  V30 8 C -0.195629 0.021064 -0.962808 0
M  V30 9 C 1.131701 0.219014 -1.590121 0
M  V30 10 O 2.254160 -0.338651 -1.348362 0
M  V30 11 O 1.342306 1.112295 -2.607614 0
M  V30 12 H -1.451101 -0.185081 3.220977 0
M  V30 13 H -1.575087 0.743212 1.640343 0
M  V30 14 H -0.906714 1.520126 3.082039 0
M  V30 15 H 1.485812 0.878857 3.952374 0
M  V30 16 H 3.590407 -0.203899 2.822585 0
M  V30 17 H -1.071179 -1.270538 0.506395 0
M  V30 18 H 0.297436 -1.954263 -0.387753 0
M  V30 19 H -0.522867 0.989397 -0.513674 0
M  V30 20 H -0.901253 -0.272253 -1.742130 0
M  V30 21 H 2.119565 1.755401 -2.653605 0
M  V30 END ATOM
M  V30 BEGIN BOND
M  V30 1 1 1 2
M  V30 2 2 2 3
M  V30 3 1 3 4
M  V30 4 2 4 5
M  V30 5 1 5 6
M  V30 6 1 6 7
M  V30 7 1 7 8
M  V30 8 1 8 9
M  V30 9 2 9 10
M  V30 10 1 9 11
M  V30 11 1 6 2
M  V30 12 1 1 12
M  V30 13 1 1 13
M  V30 14 1 1 14
M  V30 15 1 3 15
M  V30 16 1 4 16
M  V30 17 1 7 17
M  V30 18 1 7 18
M  V30 19 1 8 19
M  V30 20 1 8 20
M  V30 21 1 11 21
M  V30 END BOND
M  V30 END CTAB
M  END
>  <Dataset>  (853) 
ChEMBL_Kinases

>  <Ligand_Instance>  (853) 
nan

>  <PDB_ID>  (853) 
nan

>  <Standardized_SMILES>  (853) 
Cc1ccnn1CCC(=O)O

>  <Name>  (853) 
nan

>  <Pocket>  (853) 
nan

>  <ATP_Site>  (853) 
nan

>  <Peripheral>  (853) 
nan

>  <Num_H_Atoms_ProtBoundConf>  (853) 
nan

>  <Num_Resolved_Atoms>  (853) 
nan

>  <Num_Not_Resolved_Atoms>  (853) 
nan

$$$$
CHEMBL1324201
     RDKit          3D

  0  0  0  0  0  0  0  0  0  0999 V3000
M  V30 BEGIN CTAB
M  V30 COUNTS 15 15 0 0 0
M  V30 BEGIN ATOM
M  V30 1 C -1.102241 0.311555 0.204587 0
M  V30 2 C 0.029314 0.589616 1.138964 0 CFG=2
M  V30 3 O 0.837868 1.694520 1.027597 0
M  V30 4 C 1.407129 0.563798 0.485173 0 CFG=1
M  V30 5 P 2.610529 -0.409831 1.400275 0
M  V30 6 O 2.997482 -1.590965 0.524654 0
M  V30 7 O 4.000369 0.443646 1.792078 0
M  V30 8 O 1.973220 -1.059857 2.828349 0
M  V30 9 H -1.990330 0.916257 0.402440 0
M  V30 10 H -1.331820 -0.777121 0.293422 0
M  V30 11 H -0.789482 0.498843 -0.859910 0
M  V30 12 H -0.085341 0.204541 2.157702 0
M  V30 13 H 1.457238 0.503522 -0.614581 0
M  V30 14 H 4.700013 -0.236689 2.009353 0
M  V30 15 H 1.576813 -0.352998 3.419217 0
M  V30 END ATOM
M  V30 BEGIN BOND
M  V30 1 1 1 2
M  V30 2 1 2 3
M  V30 3 1 3 4
M  V30 4 1 4 5
M  V30 5 2 5 6
M  V30 6 1 5 7
M  V30 7 1 5 8
M  V30 8 1 4 2
M  V30 9 1 1 9
M  V30 10 1 1 10
M  V30 11 1 1 11
M  V30 12 1 2 12 CFG=1
M  V30 13 1 4 13 CFG=3
M  V30 14 1 7 14
M  V30 15 1 8 15
M  V30 END BOND
M  V30 END CTAB
M  END
>  <Dataset>  (854) 
ChEMBL_Kinases

>  <Ligand_Instance>  (854) 
nan

>  <PDB_ID>  (854) 
nan

>  <Standardized_SMILES>  (854) 
C[C@@H]1O[C@H]1P(=O)(O)O

>  <Name>  (854) 
nan

>  <Pocket>  (854) 
nan

>  <ATP_Site>  (854) 
nan

>  <Peripheral>  (854) 
nan

>  <Num_H_Atoms_ProtBoundConf>  (854) 
nan

>  <Num_Resolved_Atoms>  (854) 
nan

>  <Num_Not_Resolved_Atoms>  (854) 
nan

$$$$
CHEMBL1324221
     RDKit          3D

  0  0  0  0  0  0  0  0  0  0999 V3000
M  V30 BEGIN CTAB
M  V30 COUNTS 46 48 0 0 0
M  V30 BEGIN ATOM
M  V30 1 C 4.203474 2.441184 0.086204 0
M  V30 2 C 3.828103 1.502240 -0.783581 0
M  V30 3 C 3.215161 0.177679 -0.503277 0
M  V30 4 N 1.904551 0.111181 -1.161988 0
M  V30 5 C 0.873514 0.523208 -0.446857 0
M  V30 6 S 0.903510 1.146968 1.218393 0
M  V30 7 C -0.759406 1.584485 1.792661 0
M  V30 8 C -1.533682 0.305934 1.899928 0
M  V30 9 O -0.376343 -0.009386 1.532965 0
M  V30 10 N -2.906039 0.376896 2.307121 0
M  V30 11 C -3.484891 -0.915449 2.357645 0
M  V30 12 S -3.445853 -1.871258 3.818804 0
M  V30 13 C -4.343757 -3.312128 3.095660 0
M  V30 14 C -4.585330 -2.896144 1.773500 0
M  V30 15 C -4.125383 -1.650316 1.430888 0
M  V30 16 C -4.344437 -1.154338 0.065362 0
M  V30 17 N -5.010398 -1.869378 -0.975904 0
M  V30 18 O -3.905964 -0.006384 -0.195497 0
M  V30 19 N -0.308826 0.449469 -1.081476 0
M  V30 20 C -0.403309 -0.014072 -2.350448 0
M  V30 21 S -1.813193 -0.220222 -3.424255 0
M  V30 22 C -0.871041 -0.874635 -4.816461 0
M  V30 23 C -1.471854 -1.267754 -6.080207 0
M  V30 24 C 0.454528 -0.887664 -4.357702 0
M  V30 25 C 1.483546 -1.392049 -5.306840 0
M  V30 26 C 0.681449 -0.441018 -3.084668 0
M  V30 27 C 1.881169 -0.355974 -2.414303 0
M  V30 28 O 2.989732 -0.709384 -2.946090 0
M  V30 29 H 3.777188 1.549763 0.529403 0
M  V30 30 H 4.626559 3.322720 -0.379773 0
M  V30 31 H 3.923028 1.578323 -1.882520 0
M  V30 32 H 3.907244 -0.599027 -0.879414 0
M  V30 33 H 3.101444 -0.017136 0.583352 0
M  V30 34 H -1.192107 2.282124 1.045223 0
M  V30 35 H -0.736200 2.117049 2.740708 0
M  V30 36 H -3.287581 1.302267 2.503427 0
M  V30 37 H -4.614654 -4.253963 3.590763 0
M  V30 38 H -5.114794 -3.608469 1.155392 0
M  V30 39 H -4.187701 -2.405867 -1.328694 0
M  V30 40 H -5.949614 -1.452921 -0.799432 0
M  V30 41 H -0.908281 -2.096583 -6.544418 0
M  V30 42 H -2.508458 -1.677619 -5.929237 0
M  V30 43 H -1.587318 -0.376158 -6.728621 0
M  V30 44 H 1.934393 -0.469886 -5.769218 0
M  V30 45 H 2.311292 -1.939566 -4.774139 0
M  V30 46 H 1.068154 -2.084693 -6.046931 0
M  V30 END ATOM
M  V30 BEGIN BOND
M  V30 1 2 1 2
M  V30 2 1 2 3
M  V30 3 1 3 4
M  V30 4 1 4 5
M  V30 5 1 5 6
M  V30 6 1 6 7
M  V30 7 1 7 8
M  V30 8 2 8 9
M  V30 9 1 8 10
M  V30 10 1 10 11
M  V30 11 1 11 12
M  V30 12 1 12 13
M  V30 13 2 13 14
M  V30 14 1 14 15
M  V30 15 1 15 16
M  V30 16 1 16 17
M  V30 17 2 16 18
M  V30 18 2 5 19
M  V30 19 1 19 20
M  V30 20 1 20 21
M  V30 21 1 21 22
M  V30 22 1 22 23
M  V30 23 2 22 24
M  V30 24 1 24 25
M  V30 25 1 24 26
M  V30 26 1 26 27
M  V30 27 2 27 28
M  V30 28 1 27 4
M  V30 29 2 15 11
M  V30 30 2 26 20
M  V30 31 1 1 29
M  V30 32 1 1 30
M  V30 33 1 2 31
M  V30 34 1 3 32
M  V30 35 1 3 33
M  V30 36 1 7 34
M  V30 37 1 7 35
M  V30 38 1 10 36
M  V30 39 1 13 37
M  V30 40 1 14 38
M  V30 41 1 17 39
M  V30 42 1 17 40
M  V30 43 1 23 41
M  V30 44 1 23 42
M  V30 45 1 23 43
M  V30 46 1 25 44
M  V30 47 1 25 45
M  V30 48 1 25 46
M  V30 END BOND
M  V30 END CTAB
M  END
>  <Dataset>  (855) 
ChEMBL_Kinases

>  <Ligand_Instance>  (855) 
nan

>  <PDB_ID>  (855) 
nan

>  <Standardized_SMILES>  (855) 
C=CCn1c(SCC(=O)Nc2sccc2C(N)=O)nc2sc(C)c(C)c2c1=O

>  <Name>  (855) 
nan

>  <Pocket>  (855) 
nan

>  <ATP_Site>  (855) 
nan

>  <Peripheral>  (855) 
nan

>  <Num_H_Atoms_ProtBoundConf>  (855) 
nan

>  <Num_Resolved_Atoms>  (855) 
nan

>  <Num_Not_Resolved_Atoms>  (855) 
nan

$$$$
CHEMBL1325231
     RDKit          3D

  0  0  0  0  0  0  0  0  0  0999 V3000
M  V30 BEGIN CTAB
M  V30 COUNTS 38 40 0 0 0
M  V30 BEGIN ATOM
M  V30 1 C -1.146866 -6.566671 2.089885 0
M  V30 2 C -0.311349 -5.416226 1.549231 0
M  V30 3 O -0.995937 -4.189223 1.648520 0
M  V30 4 C -0.359052 -3.044458 1.194006 0
M  V30 5 C 0.921949 -3.205114 0.669964 0
M  V30 6 C 1.660165 -2.120273 0.181473 0
M  V30 7 C 1.061271 -0.879839 0.241784 0
M  V30 8 C 1.720207 0.336051 -0.233435 0
M  V30 9 N 2.955369 0.363998 -0.767708 0
M  V30 10 N 3.229421 1.628907 -1.085582 0
M  V30 11 C 2.163316 2.390396 -0.748848 0
M  V30 12 C 2.084400 3.840655 -0.944654 0
M  V30 13 C 3.060444 4.663328 -1.493683 0
M  V30 14 C 2.468813 5.915907 -1.438212 0
M  V30 15 C 1.203423 5.824135 -0.880787 0
M  V30 16 O 1.008693 4.540426 -0.593959 0
M  V30 17 O 1.271750 1.570153 -0.236498 0
M  V30 18 C -0.206853 -0.743408 0.764038 0
M  V30 19 C -0.944809 -1.773768 1.244004 0
M  V30 20 O -2.213117 -1.793202 1.792092 0
M  V30 21 C -2.929329 -0.585225 1.918009 0
M  V30 22 C -2.242124 0.428919 2.799213 0
M  V30 23 H -2.122455 -6.627381 1.541991 0
M  V30 24 H -1.279041 -6.515520 3.186530 0
M  V30 25 H -0.608873 -7.509049 1.868543 0
M  V30 26 H 0.665570 -5.441467 2.043784 0
M  V30 27 H -0.113355 -5.664582 0.477279 0
M  V30 28 H 1.422704 -4.157463 0.606016 0
M  V30 29 H 2.654364 -2.228458 -0.227776 0
M  V30 30 H 4.024998 4.368153 -1.860762 0
M  V30 31 H 2.916645 6.840257 -1.776719 0
M  V30 32 H 0.453334 6.578097 -0.678369 0
M  V30 33 H -0.686104 0.221901 0.811638 0
M  V30 34 H -3.953406 -0.771069 2.350010 0
M  V30 35 H -3.133878 -0.115792 0.931225 0
M  V30 36 H -2.823985 0.586738 3.739245 0
M  V30 37 H -1.245615 0.041735 3.120012 0
M  V30 38 H -2.155969 1.387297 2.280681 0
M  V30 END ATOM
M  V30 BEGIN BOND
M  V30 1 1 1 2
M  V30 2 1 2 3
M  V30 3 1 3 4
M  V30 4 2 4 5
M  V30 5 1 5 6
M  V30 6 2 6 7
M  V30 7 1 7 8
M  V30 8 2 8 9
M  V30 9 1 9 10
M  V30 10 2 10 11
M  V30 11 1 11 12
M  V30 12 2 12 13
M  V30 13 1 13 14
M  V30 14 2 14 15
M  V30 15 1 15 16
M  V30 16 1 11 17
M  V30 17 1 7 18
M  V30 18 2 18 19
M  V30 19 1 19 20
M  V30 20 1 20 21
M  V30 21 1 21 22
M  V30 22 1 19 4
M  V30 23 1 17 8
M  V30 24 1 16 12
M  V30 25 1 1 23
M  V30 26 1 1 24
M  V30 27 1 1 25
M  V30 28 1 2 26
M  V30 29 1 2 27
M  V30 30 1 5 28
M  V30 31 1 6 29
M  V30 32 1 13 30
M  V30 33 1 14 31
M  V30 34 1 15 32
M  V30 35 1 18 33
M  V30 36 1 21 34
M  V30 37 1 21 35
M  V30 38 1 22 36
M  V30 39 1 22 37
M  V30 40 1 22 38
M  V30 END BOND
M  V30 END CTAB
M  END
>  <Dataset>  (856) 
ChEMBL_Kinases

>  <Ligand_Instance>  (856) 
nan

>  <PDB_ID>  (856) 
nan

>  <Standardized_SMILES>  (856) 
CCOc1ccc(-c2nnc(-c3ccco3)o2)cc1OCC

>  <Name>  (856) 
nan

>  <Pocket>  (856) 
nan

>  <ATP_Site>  (856) 
nan

>  <Peripheral>  (856) 
nan

>  <Num_H_Atoms_ProtBoundConf>  (856) 
nan

>  <Num_Resolved_Atoms>  (856) 
nan

>  <Num_Not_Resolved_Atoms>  (856) 
nan

$$$$
CHEMBL1324393
     RDKit          3D

  0  0  0  0  0  0  0  0  0  0999 V3000
M  V30 BEGIN CTAB
M  V30 COUNTS 46 48 0 0 0
M  V30 BEGIN ATOM
M  V30 1 C 0.266438 -4.990764 3.748217 0
M  V30 2 O -0.682134 -4.436803 2.858700 0
M  V30 3 C -0.256193 -3.739906 1.736060 0
M  V30 4 C 1.044792 -3.497484 1.343031 0
M  V30 5 C 1.293869 -2.778169 0.184757 0
M  V30 6 C 0.249490 -2.290083 -0.598476 0
M  V30 7 S 0.627595 -1.394370 -2.040552 0
M  V30 8 O -0.471529 -1.623797 -3.070883 0
M  V30 9 O 1.881097 -1.912818 -2.705287 0
M  V30 10 N 0.785287 0.266161 -1.848040 0
M  V30 11 C -0.329655 1.005122 -1.395642 0
M  V30 12 C 0.111155 2.412845 -1.066896 0
M  V30 13 N 1.182461 2.473999 -0.138667 0
M  V30 14 C 0.855464 2.752786 1.216140 0
M  V30 15 C -0.043599 1.793771 1.870588 0
M  V30 16 C 0.443272 0.672079 2.551124 0
M  V30 17 C -0.360845 -0.249974 3.178842 0
M  V30 18 C -1.731837 -0.089134 3.155082 0
M  V30 19 Cl -2.789040 -1.235524 3.938746 0
M  V30 20 C -2.270482 0.992392 2.502951 0
M  V30 21 C -1.426453 1.871951 1.899810 0
M  V30 22 C 2.266396 1.576880 -0.363566 0
M  V30 23 C 2.075966 0.799141 -1.636892 0
M  V30 24 C -1.044674 -2.545194 -0.185008 0
M  V30 25 C -1.329533 -3.268680 0.980046 0
M  V30 26 H 0.674776 -4.235572 4.454706 0
M  V30 27 H 1.150487 -5.407053 3.209143 0
M  V30 28 H -0.153497 -5.825637 4.343917 0
M  V30 29 H 1.806780 -3.903445 1.994603 0
M  V30 30 H 2.318545 -2.617434 -0.076206 0
M  V30 31 H -0.930299 0.526941 -0.618633 0
M  V30 32 H -1.032724 1.110817 -2.274229 0
M  V30 33 H -0.759623 2.974797 -0.690357 0
M  V30 34 H 0.430457 2.903043 -2.010195 0
M  V30 35 H 0.413615 3.771224 1.251066 0
M  V30 36 H 1.821221 2.833293 1.773634 0
M  V30 37 H 1.483391 0.471988 2.619339 0
M  V30 38 H 0.026617 -1.107457 3.698145 0
M  V30 39 H -3.348434 1.131024 2.476565 0
M  V30 40 H -1.891734 2.709649 1.399006 0
M  V30 41 H 3.181153 2.206585 -0.494855 0
M  V30 42 H 2.480970 0.914017 0.488619 0
M  V30 43 H 2.273637 1.526706 -2.475704 0
M  V30 44 H 2.827819 -0.014061 -1.718280 0
M  V30 45 H -1.851490 -2.161297 -0.801077 0
M  V30 46 H -2.380678 -3.419026 1.224507 0
M  V30 END ATOM
M  V30 BEGIN BOND
M  V30 1 1 1 2
M  V30 2 1 2 3
M  V30 3 2 3 4
M  V30 4 1 4 5
M  V30 5 2 5 6
M  V30 6 1 6 7
M  V30 7 2 7 8
M  V30 8 2 7 9
M  V30 9 1 7 10
M  V30 10 1 10 11
M  V30 11 1 11 12
M  V30 12 1 12 13
M  V30 13 1 13 14
M  V30 14 1 14 15
M  V30 15 2 15 16
M  V30 16 1 16 17
M  V30 17 2 17 18
M  V30 18 1 18 19
M  V30 19 1 18 20
M  V30 20 2 20 21
M  V30 21 1 13 22
M  V30 22 1 22 23
M  V30 23 1 6 24
M  V30 24 2 24 25
M  V30 25 1 25 3
M  V30 26 1 23 10
M  V30 27 1 21 15
M  V30 28 1 1 26
M  V30 29 1 1 27
M  V30 30 1 1 28
M  V30 31 1 4 29
M  V30 32 1 5 30
M  V30 33 1 11 31
M  V30 34 1 11 32
M  V30 35 1 12 33
M  V30 36 1 12 34
M  V30 37 1 14 35
M  V30 38 1 14 36
M  V30 39 1 16 37
M  V30 40 1 17 38
M  V30 41 1 20 39
M  V30 42 1 21 40
M  V30 43 1 22 41
M  V30 44 1 22 42
M  V30 45 1 23 43
M  V30 46 1 23 44
M  V30 47 1 24 45
M  V30 48 1 25 46
M  V30 END BOND
M  V30 END CTAB
M  END
>  <Dataset>  (857) 
ChEMBL_Kinases

>  <Ligand_Instance>  (857) 
nan

>  <PDB_ID>  (857) 
nan

>  <Standardized_SMILES>  (857) 
COc1ccc(S(=O)(=O)N2CCN(Cc3ccc(Cl)cc3)CC2)cc1

>  <Name>  (857) 
nan

>  <Pocket>  (857) 
nan

>  <ATP_Site>  (857) 
nan

>  <Peripheral>  (857) 
nan

>  <Num_H_Atoms_ProtBoundConf>  (857) 
nan

>  <Num_Resolved_Atoms>  (857) 
nan

>  <Num_Not_Resolved_Atoms>  (857) 
nan

$$$$
CHEMBL1324546
     RDKit          3D

  0  0  0  0  0  0  0  0  0  0999 V3000
M  V30 BEGIN CTAB
M  V30 COUNTS 53 55 0 0 0
M  V30 BEGIN ATOM
M  V30 1 C 1.910988 -3.532891 4.276973 0
M  V30 2 C 2.548699 -3.634740 2.911478 0
M  V30 3 C 1.895255 -2.561556 2.037934 0
M  V30 4 C 2.474186 -2.587866 0.654945 0
M  V30 5 C 1.770061 -1.505671 -0.181866 0
M  V30 6 N 0.369536 -1.737861 -0.260975 0
M  V30 7 C -0.513313 -1.183088 0.538848 0
M  V30 8 S -0.750131 0.021137 1.766528 0
M  V30 9 C 0.582089 1.102248 2.169027 0
M  V30 10 C 0.912439 2.105072 1.073986 0
M  V30 11 N -0.219030 2.886315 0.844402 0
M  V30 12 C -0.702979 3.801208 1.774693 0
M  V30 13 C -1.721082 4.755056 1.189218 0
M  V30 14 O -2.680029 4.166808 0.413019 0
M  V30 15 C -2.305678 3.002536 -0.213092 0
M  V30 16 C -0.786087 3.006383 -0.434678 0
M  V30 17 N -1.715492 -1.729260 0.184408 0
M  V30 18 C -1.520603 -2.608879 -0.836694 0
M  V30 19 C -0.167264 -2.613986 -1.126328 0
M  V30 20 C 0.263712 -3.440427 -2.142377 0
M  V30 21 O 1.499883 -3.406045 -2.366341 0
M  V30 22 N -0.564400 -4.224575 -2.846135 0
M  V30 23 C -1.867016 -4.203883 -2.549288 0
M  V30 24 O -2.745306 -4.895582 -3.138412 0
M  V30 25 N -2.339879 -3.416050 -1.568588 0
M  V30 26 C -3.761630 -3.350081 -1.201041 0
M  V30 27 H 2.233680 -4.366999 4.925324 0
M  V30 28 H 2.217431 -2.539994 4.680517 0
M  V30 29 H 0.828120 -3.507480 4.144059 0
M  V30 30 H 3.645483 -3.478865 2.954262 0
M  V30 31 H 2.373970 -4.644361 2.529373 0
M  V30 32 H 2.163341 -1.595875 2.504870 0
M  V30 33 H 0.824619 -2.772163 2.048340 0
M  V30 34 H 2.411014 -3.584493 0.198223 0
M  V30 35 H 3.564009 -2.332483 0.708796 0
M  V30 36 H 1.993616 -0.565697 0.370810 0
M  V30 37 H 2.237562 -1.411657 -1.188324 0
M  V30 38 H 0.231263 1.759400 3.028706 0
M  V30 39 H 1.489619 0.623009 2.568746 0
M  V30 40 H 1.326938 1.643894 0.177838 0
M  V30 41 H 1.774205 2.701629 1.510380 0
M  V30 42 H 0.055860 4.432072 2.285387 0
M  V30 43 H -1.234568 3.263173 2.592830 0
M  V30 44 H -1.200245 5.622551 0.706327 0
M  V30 45 H -2.253544 5.221870 2.061026 0
M  V30 46 H -2.864758 2.766048 -1.116622 0
M  V30 47 H -2.474169 2.180444 0.517908 0
M  V30 48 H -0.562037 3.964172 -0.984795 0
M  V30 49 H -0.499761 2.213125 -1.157205 0
M  V30 50 H -0.225597 -4.838521 -3.604632 0
M  V30 51 H -3.921572 -3.728417 -0.181975 0
M  V30 52 H -4.330582 -3.975815 -1.927368 0
M  V30 53 H -4.084762 -2.276873 -1.254842 0
M  V30 END ATOM
M  V30 BEGIN BOND
M  V30 1 1 1 2
M  V30 2 1 2 3
M  V30 3 1 3 4
M  V30 4 1 4 5
M  V30 5 1 5 6
M  V30 6 1 6 7
M  V30 7 1 7 8
M  V30 8 1 8 9
M  V30 9 1 9 10
M  V30 10 1 10 11
M  V30 11 1 11 12
M  V30 12 1 12 13
M  V30 13 1 13 14
M  V30 14 1 14 15
M  V30 15 1 15 16
M  V30 16 2 7 17
M  V30 17 1 17 18
M  V30 18 2 18 19
M  V30 19 1 19 20
M  V30 20 2 20 21
M  V30 21 1 20 22
M  V30 22 1 22 23
M  V30 23 2 23 24
M  V30 24 1 23 25
M  V30 25 1 25 26
M  V30 26 1 19 6
M  V30 27 1 16 11
M  V30 28 1 25 18
M  V30 29 1 1 27
M  V30 30 1 1 28
M  V30 31 1 1 29
M  V30 32 1 2 30
M  V30 33 1 2 31
M  V30 34 1 3 32
M  V30 35 1 3 33
M  V30 36 1 4 34
M  V30 37 1 4 35
M  V30 38 1 5 36
M  V30 39 1 5 37
M  V30 40 1 9 38
M  V30 41 1 9 39
M  V30 42 1 10 40
M  V30 43 1 10 41
M  V30 44 1 12 42
M  V30 45 1 12 43
M  V30 46 1 13 44
M  V30 47 1 13 45
M  V30 48 1 15 46
M  V30 49 1 15 47
M  V30 50 1 16 48
M  V30 51 1 16 49
M  V30 52 1 22 50
M  V30 53 1 26 51
M  V30 54 1 26 52
M  V30 55 1 26 53
M  V30 END BOND
M  V30 END CTAB
M  END
>  <Dataset>  (858) 
ChEMBL_Kinases

>  <Ligand_Instance>  (858) 
nan

>  <PDB_ID>  (858) 
nan

>  <Standardized_SMILES>  (858) 
CCCCCn1c(SCCN2CCOCC2)nc2c1c(=O)[nH]c(=O)n2C

>  <Name>  (858) 
nan

>  <Pocket>  (858) 
nan

>  <ATP_Site>  (858) 
nan

>  <Peripheral>  (858) 
nan

>  <Num_H_Atoms_ProtBoundConf>  (858) 
nan

>  <Num_Resolved_Atoms>  (858) 
nan

>  <Num_Not_Resolved_Atoms>  (858) 
nan

$$$$
CHEMBL1324563
     RDKit          3D

  0  0  0  0  0  0  0  0  0  0999 V3000
M  V30 BEGIN CTAB
M  V30 COUNTS 52 55 0 0 0
M  V30 BEGIN ATOM
M  V30 1 O 2.401345 3.014728 -0.587813 0
M  V30 2 C 1.746457 3.814232 -1.301534 0
M  V30 3 C 1.717799 4.553882 -2.575694 0
M  V30 4 O 2.893426 4.254789 -3.300254 0
M  V30 5 C 3.267677 2.997200 -3.727691 0
M  V30 6 C 4.456190 2.832635 -4.432111 0
M  V30 7 C 4.819265 1.564096 -4.855486 0
M  V30 8 C 4.056502 0.425989 -4.615909 0
M  V30 9 C 2.881075 0.598178 -3.917878 0
M  V30 10 C 2.508008 1.868840 -3.488633 0
M  V30 11 N 0.544283 4.120001 -0.562433 0
M  V30 12 C 0.383218 3.453807 0.781872 0
M  V30 13 N -0.113258 2.459677 0.975081 0
M  V30 14 C -0.313976 1.778766 2.086923 0
M  V30 15 C -0.971715 0.490278 2.237178 0
M  V30 16 C -1.485987 -0.189497 1.152894 0
M  V30 17 C -2.110534 -1.409250 1.265090 0
M  V30 18 C -2.241566 -2.000218 2.503281 0
M  V30 19 S -3.050572 -3.544040 2.510955 0
M  V30 20 O -4.053160 -3.622993 1.383054 0
M  V30 21 O -3.850626 -3.666339 3.777165 0
M  V30 22 N -1.948246 -4.822911 2.309130 0
M  V30 23 C -0.955125 -4.954985 3.321202 0
M  V30 24 C -1.326808 -5.786552 4.502843 0
M  V30 25 O -2.066673 -6.909192 4.225164 0
M  V30 26 C -3.084044 -6.693775 3.309261 0
M  V30 27 C -2.555041 -6.090336 2.025041 0
M  V30 28 C -1.745889 -1.361883 3.609776 0
M  V30 29 C -1.127150 -0.139967 3.450347 0
M  V30 30 C 0.209545 2.465251 3.223776 0
M  V30 31 S 0.927833 4.037346 2.448719 0
M  V30 32 H 1.691283 5.638246 -2.453236 0
M  V30 33 H 0.876526 4.249158 -3.230813 0
M  V30 34 H 5.118416 3.657163 -4.667597 0
M  V30 35 H 5.733475 1.365823 -5.409030 0
M  V30 36 H 4.335181 -0.557208 -4.941942 0
M  V30 37 H 2.251459 -0.277524 -3.709063 0
M  V30 38 H 1.572417 1.924350 -2.950959 0
M  V30 39 H -0.306708 4.705730 -0.690518 0
M  V30 40 H -1.360133 0.316027 0.187327 0
M  V30 41 H -2.470333 -1.841629 0.347195 0
M  V30 42 H -0.080763 -5.479916 2.835425 0
M  V30 43 H -0.542413 -4.000559 3.683966 0
M  V30 44 H -0.367402 -6.161205 4.965765 0
M  V30 45 H -1.787836 -5.176142 5.331485 0
M  V30 46 H -3.885646 -6.013707 3.676475 0
M  V30 47 H -3.553319 -7.663475 3.077968 0
M  V30 48 H -3.442565 -5.929338 1.365085 0
M  V30 49 H -1.782429 -6.747271 1.557964 0
M  V30 50 H -1.860383 -1.843802 4.567095 0
M  V30 51 H -0.763635 0.305486 4.345171 0
M  V30 52 H 0.176893 2.095493 4.362611 0
M  V30 END ATOM
M  V30 BEGIN BOND
M  V30 1 2 1 2
M  V30 2 1 2 3
M  V30 3 1 3 4
M  V30 4 1 4 5
M  V30 5 2 5 6
M  V30 6 1 6 7
M  V30 7 2 7 8
M  V30 8 1 8 9
M  V30 9 2 9 10
M  V30 10 1 2 11
M  V30 11 1 11 12
M  V30 12 2 12 13
M  V30 13 1 13 14
M  V30 14 1 14 15
M  V30 15 2 15 16
M  V30 16 1 16 17
M  V30 17 2 17 18
M  V30 18 1 18 19
M  V30 19 2 19 20
M  V30 20 2 19 21
M  V30 21 1 19 22
M  V30 22 1 22 23
M  V30 23 1 23 24
M  V30 24 1 24 25
M  V30 25 1 25 26
M  V30 26 1 26 27
M  V30 27 1 18 28
M  V30 28 2 28 29
M  V30 29 2 14 30
M  V30 30 1 30 31
M  V30 31 1 10 5
M  V30 32 1 31 12
M  V30 33 1 29 15
M  V30 34 1 27 22
M  V30 35 1 3 32
M  V30 36 1 3 33
M  V30 37 1 6 34
M  V30 38 1 7 35
M  V30 39 1 8 36
M  V30 40 1 9 37
M  V30 41 1 10 38
M  V30 42 1 11 39
M  V30 43 1 16 40
M  V30 44 1 17 41
M  V30 45 1 23 42
M  V30 46 1 23 43
M  V30 47 1 24 44
M  V30 48 1 24 45
M  V30 49 1 26 46
M  V30 50 1 26 47
M  V30 51 1 27 48
M  V30 52 1 27 49
M  V30 53 1 28 50
M  V30 54 1 29 51
M  V30 55 1 30 52
M  V30 END BOND
M  V30 END CTAB
M  END
>  <Dataset>  (859) 
ChEMBL_Kinases

>  <Ligand_Instance>  (859) 
nan

>  <PDB_ID>  (859) 
nan

>  <Standardized_SMILES>  (859) 
O=C(COc1ccccc1)Nc1nc(-c2ccc(S(=O)(=O)N3CCOCC3)cc2)cs1

>  <Name>  (859) 
nan

>  <Pocket>  (859) 
nan

>  <ATP_Site>  (859) 
nan

>  <Peripheral>  (859) 
nan

>  <Num_H_Atoms_ProtBoundConf>  (859) 
nan

>  <Num_Resolved_Atoms>  (859) 
nan

>  <Num_Not_Resolved_Atoms>  (859) 
nan

$$$$
CHEMBL1324815
     RDKit          3D

  0  0  0  0  0  0  0  0  0  0999 V3000
M  V30 BEGIN CTAB
M  V30 COUNTS 32 33 0 0 0
M  V30 BEGIN ATOM
M  V30 1 C -1.970185 -3.971996 4.290981 0
M  V30 2 O -1.629643 -4.093763 2.923098 0
M  V30 3 C -1.060832 -2.996248 2.289899 0
M  V30 4 C -0.816996 -1.802049 2.937241 0
M  V30 5 C -0.253445 -0.698402 2.330564 0
M  V30 6 C 0.063963 -0.857685 0.997516 0
M  V30 7 C 0.667443 0.203824 0.195079 0
M  V30 8 O 1.027751 0.266610 -1.008591 0
M  V30 9 O 0.979976 1.474539 0.694414 0
M  V30 10 C 1.556204 2.453500 -0.115677 0
M  V30 11 C 0.611538 3.240983 -0.751417 0
M  V30 12 C 1.038159 4.262486 -1.594733 0
M  V30 13 C 2.387070 4.441500 -1.756907 0
M  V30 14 N 3.309557 3.667557 -1.132032 0
M  V30 15 C 2.906421 2.663796 -0.303544 0
M  V30 16 C -0.156872 -2.027713 0.298914 0
M  V30 17 C -0.723640 -3.101429 0.955051 0
M  V30 18 O -0.965621 -4.291710 0.306058 0
M  V30 19 C -0.650668 -4.484973 -1.061473 0
M  V30 20 H -1.048110 -3.567616 4.801945 0
M  V30 21 H -2.238405 -4.945142 4.743136 0
M  V30 22 H -2.760492 -3.210379 4.400449 0
M  V30 23 H -1.074944 -1.695069 3.992046 0
M  V30 24 H -0.058340 0.239039 2.825559 0
M  V30 25 H -0.464101 3.125628 -0.644582 0
M  V30 26 H 0.351755 4.913433 -2.121317 0
M  V30 27 H 2.839401 5.196521 -2.381764 0
M  V30 28 H 3.551342 1.993020 0.239781 0
M  V30 29 H 0.085143 -2.171302 -0.745616 0
M  V30 30 H 0.390654 -4.174228 -1.247347 0
M  V30 31 H -1.378241 -3.841523 -1.631232 0
M  V30 32 H -0.817954 -5.555509 -1.318129 0
M  V30 END ATOM
M  V30 BEGIN BOND
M  V30 1 1 1 2
M  V30 2 1 2 3
M  V30 3 2 3 4
M  V30 4 1 4 5
M  V30 5 2 5 6
M  V30 6 1 6 7
M  V30 7 2 7 8
M  V30 8 1 7 9
M  V30 9 1 9 10
M  V30 10 2 10 11
M  V30 11 1 11 12
M  V30 12 2 12 13
M  V30 13 1 13 14
M  V30 14 2 14 15
M  V30 15 1 6 16
M  V30 16 2 16 17
M  V30 17 1 17 18
M  V30 18 1 18 19
M  V30 19 1 17 3
M  V30 20 1 15 10
M  V30 21 1 1 20
M  V30 22 1 1 21
M  V30 23 1 1 22
M  V30 24 1 4 23
M  V30 25 1 5 24
M  V30 26 1 11 25
M  V30 27 1 12 26
M  V30 28 1 13 27
M  V30 29 1 15 28
M  V30 30 1 16 29
M  V30 31 1 19 30
M  V30 32 1 19 31
M  V30 33 1 19 32
M  V30 END BOND
M  V30 END CTAB
M  END
>  <Dataset>  (860) 
ChEMBL_Kinases

>  <Ligand_Instance>  (860) 
nan

>  <PDB_ID>  (860) 
nan

>  <Standardized_SMILES>  (860) 
COc1ccc(C(=O)Oc2cccnc2)cc1OC

>  <Name>  (860) 
nan

>  <Pocket>  (860) 
nan

>  <ATP_Site>  (860) 
nan

>  <Peripheral>  (860) 
nan

>  <Num_H_Atoms_ProtBoundConf>  (860) 
nan

>  <Num_Resolved_Atoms>  (860) 
nan

>  <Num_Not_Resolved_Atoms>  (860) 
nan

$$$$
CHEMBL1324862
     RDKit          3D

  0  0  0  0  0  0  0  0  0  0999 V3000
M  V30 BEGIN CTAB
M  V30 COUNTS 42 46 0 0 0
M  V30 BEGIN ATOM
M  V30 1 C 5.483860 -4.832846 1.873569 0
M  V30 2 O 4.506633 -3.862183 1.528330 0
M  V30 3 C 4.548206 -3.153796 0.330593 0
M  V30 4 O 5.457118 -3.335809 -0.514016 0
M  V30 5 C 3.477974 -2.208120 0.142325 0
M  V30 6 C 2.445558 -1.966507 1.045208 0
M  V30 7 C 1.458710 -1.039256 0.782309 0
M  V30 8 C 1.485442 -0.328831 -0.399952 0
M  V30 9 C 0.463435 0.706433 -0.793420 0
M  V30 10 C -0.779352 0.359771 -0.060834 0
M  V30 11 C -1.424068 1.041985 0.869686 0
M  V30 12 N -0.865148 2.295006 1.240700 0
M  V30 13 C 0.332013 2.781287 0.632128 0
M  V30 14 N 1.115210 3.876057 0.729801 0
M  V30 15 N 2.134882 3.771135 -0.120099 0
M  V30 16 N 1.994232 2.608229 -0.754627 0
M  V30 17 N 0.904629 1.997889 -0.307725 0
M  V30 18 C -2.638775 0.540608 1.482173 0
M  V30 19 C -3.263844 1.299767 2.446618 0
M  V30 20 C -4.425802 0.820496 3.032610 0
M  V30 21 C -4.939365 -0.401117 2.646990 0
M  V30 22 C -4.318456 -1.181497 1.672194 0
M  V30 23 C -3.152672 -0.681528 1.096479 0
M  V30 24 O -2.447995 -1.356421 0.124735 0
M  V30 25 C -1.283356 -0.958048 -0.516202 0
M  V30 26 C 2.488138 -0.533069 -1.326038 0
M  V30 27 C 3.456657 -1.470090 -1.024374 0
M  V30 28 H 6.496212 -4.545335 1.575086 0
M  V30 29 H 5.457112 -5.032440 2.946618 0
M  V30 30 H 5.259120 -5.777934 1.329249 0
M  V30 31 H 2.450349 -2.535912 1.959932 0
M  V30 32 H 0.652682 -0.839026 1.468452 0
M  V30 33 H 0.321420 0.717988 -1.887129 0
M  V30 34 H -1.267506 2.913077 1.944278 0
M  V30 35 H -2.940268 2.249911 2.804781 0
M  V30 36 H -4.968163 1.364053 3.795927 0
M  V30 37 H -5.842377 -0.816069 3.075260 0
M  V30 38 H -4.695410 -2.147688 1.344755 0
M  V30 39 H -0.494962 -1.732913 -0.549735 0
M  V30 40 H -1.549705 -0.795633 -1.602224 0
M  V30 41 H 2.534099 0.017305 -2.273599 0
M  V30 42 H 4.238425 -1.621474 -1.759100 0
M  V30 END ATOM
M  V30 BEGIN BOND
M  V30 1 1 1 2
M  V30 2 1 2 3
M  V30 3 2 3 4
M  V30 4 1 3 5
M  V30 5 2 5 6
M  V30 6 1 6 7
M  V30 7 2 7 8
M  V30 8 1 8 9
M  V30 9 1 9 10
M  V30 10 2 10 11
M  V30 11 1 11 12
M  V30 12 1 12 13
M  V30 13 2 13 14
M  V30 14 1 14 15
M  V30 15 2 15 16
M  V30 16 1 16 17
M  V30 17 1 11 18
M  V30 18 2 18 19
M  V30 19 1 19 20
M  V30 20 2 20 21
M  V30 21 1 21 22
M  V30 22 2 22 23
M  V30 23 1 23 24
M  V30 24 1 24 25
M  V30 25 1 8 26
M  V30 26 2 26 27
M  V30 27 1 27 5
M  V30 28 1 17 9
M  V30 29 1 23 18
M  V30 30 1 25 10
M  V30 31 1 17 13
M  V30 32 1 1 28
M  V30 33 1 1 29
M  V30 34 1 1 30
M  V30 35 1 6 31
M  V30 36 1 7 32
M  V30 37 1 9 33
M  V30 38 1 12 34
M  V30 39 1 19 35
M  V30 40 1 20 36
M  V30 41 1 21 37
M  V30 42 1 22 38
M  V30 43 1 25 39
M  V30 44 1 25 40
M  V30 45 1 26 41
M  V30 46 1 27 42
M  V30 END BOND
M  V30 END CTAB
M  END
>  <Dataset>  (861) 
ChEMBL_Kinases

>  <Ligand_Instance>  (861) 
nan

>  <PDB_ID>  (861) 
nan

>  <Standardized_SMILES>  (861) 
COC(=O)c1ccc(C2C3=C(Nc4nnnn42)c2ccccc2OC3)cc1

>  <Name>  (861) 
nan

>  <Pocket>  (861) 
nan

>  <ATP_Site>  (861) 
nan

>  <Peripheral>  (861) 
nan

>  <Num_H_Atoms_ProtBoundConf>  (861) 
nan

>  <Num_Resolved_Atoms>  (861) 
nan

>  <Num_Not_Resolved_Atoms>  (861) 
nan

$$$$
CHEMBL1324889
     RDKit          3D

  0  0  0  0  0  0  0  0  0  0999 V3000
M  V30 BEGIN CTAB
M  V30 COUNTS 35 37 0 0 0
M  V30 BEGIN ATOM
M  V30 1 N 3.581582 -2.397408 5.104212 0
M  V30 2 C 3.247498 -2.498044 3.980402 0
M  V30 3 C 2.845847 -2.614437 2.602188 0
M  V30 4 C 2.857290 -3.858444 2.011365 0
M  V30 5 C 2.465303 -3.924210 0.690346 0
M  V30 6 C 2.091424 -2.776659 0.042677 0
M  V30 7 C 2.075383 -1.505711 0.632994 0
M  V30 8 C 1.656950 -0.429046 -0.250958 0
M  V30 9 C 2.370793 -0.372328 -1.428523 0
M  V30 10 N 2.074561 0.618268 -2.312467 0
M  V30 11 C 1.099540 1.516152 -2.024185 0
M  V30 12 N 0.429550 1.422821 -0.865798 0
M  V30 13 C 0.663094 0.475814 0.054674 0
M  V30 14 N -0.071168 0.373661 1.268659 0
M  V30 15 C -1.130678 1.254029 1.716678 0
M  V30 16 C -2.300382 1.289164 0.810274 0
M  V30 17 C -3.307420 0.328252 0.973622 0
M  V30 18 C -4.461398 0.224725 0.225260 0
M  V30 19 C -4.625740 1.159879 -0.772131 0
M  V30 20 N -3.676601 2.094480 -0.952962 0
M  V30 21 C -2.557714 2.178480 -0.211751 0
M  V30 22 C 2.466844 -1.467629 1.936420 0
M  V30 23 H 3.166869 -4.703167 2.601714 0
M  V30 24 H 2.463743 -4.885514 0.198852 0
M  V30 25 H 1.793884 -2.921692 -1.008181 0
M  V30 26 H 3.143145 -1.053243 -1.698000 0
M  V30 27 H 0.801559 2.336304 -2.673887 0
M  V30 28 H 0.184983 -0.442067 1.902949 0
M  V30 29 H -1.505435 0.860214 2.683032 0
M  V30 30 H -0.742704 2.282808 1.918348 0
M  V30 31 H -3.160005 -0.411895 1.775740 0
M  V30 32 H -5.162332 -0.566033 0.453299 0
M  V30 33 H -5.529696 1.095210 -1.373977 0
M  V30 34 H -1.822795 2.939560 -0.376092 0
M  V30 35 H 2.468386 -0.493750 2.394496 0
M  V30 END ATOM
M  V30 BEGIN BOND
M  V30 1 3 1 2
M  V30 2 1 2 3
M  V30 3 2 3 4
M  V30 4 1 4 5
M  V30 5 2 5 6
M  V30 6 1 6 7
M  V30 7 1 7 8
M  V30 8 2 8 9
M  V30 9 1 9 10
M  V30 10 2 10 11
M  V30 11 1 11 12
M  V30 12 2 12 13
M  V30 13 1 13 14
M  V30 14 1 14 15
M  V30 15 1 15 16
M  V30 16 2 16 17
M  V30 17 1 17 18
M  V30 18 2 18 19
M  V30 19 1 19 20
M  V30 20 2 20 21
M  V30 21 2 7 22
M  V30 22 1 22 3
M  V30 23 1 13 8
M  V30 24 1 21 16
M  V30 25 1 4 23
M  V30 26 1 5 24
M  V30 27 1 6 25
M  V30 28 1 9 26
M  V30 29 1 11 27
M  V30 30 1 14 28
M  V30 31 1 15 29
M  V30 32 1 15 30
M  V30 33 1 17 31
M  V30 34 1 18 32
M  V30 35 1 19 33
M  V30 36 1 21 34
M  V30 37 1 22 35
M  V30 END BOND
M  V30 END CTAB
M  END
>  <Dataset>  (862) 
ChEMBL_Kinases

>  <Ligand_Instance>  (862) 
nan

>  <PDB_ID>  (862) 
nan

>  <Standardized_SMILES>  (862) 
N#Cc1cccc(-c2cncnc2NCc2cccnc2)c1

>  <Name>  (862) 
nan

>  <Pocket>  (862) 
nan

>  <ATP_Site>  (862) 
nan

>  <Peripheral>  (862) 
nan

>  <Num_H_Atoms_ProtBoundConf>  (862) 
nan

>  <Num_Resolved_Atoms>  (862) 
nan

>  <Num_Not_Resolved_Atoms>  (862) 
nan

$$$$
CHEMBL1325045
     RDKit          3D

  0  0  0  0  0  0  0  0  0  0999 V3000
M  V30 BEGIN CTAB
M  V30 COUNTS 43 45 0 0 0
M  V30 BEGIN ATOM
M  V30 1 C -0.574486 -2.813300 3.279186 0
M  V30 2 C -0.523909 -2.726647 1.803309 0
M  V30 3 N 0.598101 -2.320880 1.166854 0
M  V30 4 N 0.672292 -2.233805 -0.150558 0
M  V30 5 C 1.845885 -1.807005 -0.866866 0
M  V30 6 C 1.893018 -0.338900 -1.098868 0
M  V30 7 O 2.912674 0.094764 -1.730092 0
M  V30 8 N 0.923197 0.621126 -0.690730 0
M  V30 9 C 1.060546 2.017223 -0.963110 0
M  V30 10 C 2.288578 2.649247 -0.371842 0
M  V30 11 C 2.384465 2.568938 1.086051 0
M  V30 12 C 3.012326 1.490967 1.710150 0
M  V30 13 C 3.126293 1.374212 3.099889 0
M  V30 14 C 2.582330 2.390115 3.885217 0
M  V30 15 C 1.953058 3.472443 3.290971 0
M  V30 16 C 1.856354 3.559122 1.911228 0
M  V30 17 C -0.428061 -2.567980 -0.876165 0
M  V30 18 O -0.413381 -2.504239 -2.121502 0
M  V30 19 C -1.625501 -2.996084 -0.301594 0
M  V30 20 C -2.713786 -3.323648 -1.081801 0
M  V30 21 C -3.877102 -3.743761 -0.434667 0
M  V30 22 C -3.946423 -3.831956 0.941016 0
M  V30 23 C -2.830594 -3.494880 1.715136 0
M  V30 24 C -1.657027 -3.072610 1.094971 0
M  V30 25 H -1.043582 -1.914856 3.739375 0
M  V30 26 H -1.024794 -3.755458 3.650794 0
M  V30 27 H 0.474692 -2.831590 3.647783 0
M  V30 28 H 1.868293 -2.288488 -1.868706 0
M  V30 29 H 2.762960 -2.105920 -0.290343 0
M  V30 30 H 0.099446 0.220328 -0.173716 0
M  V30 31 H 1.078311 2.260422 -2.052576 0
M  V30 32 H 0.181108 2.547408 -0.565999 0
M  V30 33 H 2.299357 3.709082 -0.705503 0
M  V30 34 H 3.229306 2.213622 -0.795110 0
M  V30 35 H 3.438468 0.697067 1.126366 0
M  V30 36 H 3.635414 0.494193 3.510276 0
M  V30 37 H 2.697112 2.252295 4.957946 0
M  V30 38 H 1.551258 4.228735 3.966754 0
M  V30 39 H 1.359621 4.414993 1.466609 0
M  V30 40 H -2.669143 -3.257184 -2.172578 0
M  V30 41 H -4.739763 -4.003126 -1.059083 0
M  V30 42 H -4.871024 -4.163936 1.414251 0
M  V30 43 H -2.870921 -3.559431 2.796066 0
M  V30 END ATOM
M  V30 BEGIN BOND
M  V30 1 1 1 2
M  V30 2 2 2 3
M  V30 3 1 3 4
M  V30 4 1 4 5
M  V30 5 1 5 6
M  V30 6 2 6 7
M  V30 7 1 6 8
M  V30 8 1 8 9
M  V30 9 1 9 10
M  V30 10 1 10 11
M  V30 11 2 11 12
M  V30 12 1 12 13
M  V30 13 2 13 14
M  V30 14 1 14 15
M  V30 15 2 15 16
M  V30 16 1 4 17
M  V30 17 2 17 18
M  V30 18 1 17 19
M  V30 19 2 19 20
M  V30 20 1 20 21
M  V30 21 2 21 22
M  V30 22 1 22 23
M  V30 23 2 23 24
M  V30 24 1 24 2
M  V30 25 1 16 11
M  V30 26 1 24 19
M  V30 27 1 1 25
M  V30 28 1 1 26
M  V30 29 1 1 27
M  V30 30 1 5 28
M  V30 31 1 5 29
M  V30 32 1 8 30
M  V30 33 1 9 31
M  V30 34 1 9 32
M  V30 35 1 10 33
M  V30 36 1 10 34
M  V30 37 1 12 35
M  V30 38 1 13 36
M  V30 39 1 14 37
M  V30 40 1 15 38
M  V30 41 1 16 39
M  V30 42 1 20 40
M  V30 43 1 21 41
M  V30 44 1 22 42
M  V30 45 1 23 43
M  V30 END BOND
M  V30 END CTAB
M  END
>  <Dataset>  (863) 
ChEMBL_Kinases

>  <Ligand_Instance>  (863) 
nan

>  <PDB_ID>  (863) 
nan

>  <Standardized_SMILES>  (863) 
Cc1nn(CC(=O)NCCc2ccccc2)c(=O)c2ccccc12

>  <Name>  (863) 
nan

>  <Pocket>  (863) 
nan

>  <ATP_Site>  (863) 
nan

>  <Peripheral>  (863) 
nan

>  <Num_H_Atoms_ProtBoundConf>  (863) 
nan

>  <Num_Resolved_Atoms>  (863) 
nan

>  <Num_Not_Resolved_Atoms>  (863) 
nan

$$$$
CHEMBL1325093
     RDKit          3D

  0  0  0  0  0  0  0  0  0  0999 V3000
M  V30 BEGIN CTAB
M  V30 COUNTS 37 39 0 0 0
M  V30 BEGIN ATOM
M  V30 1 C -1.199518 -6.304598 3.448300 0
M  V30 2 O -0.658986 -5.021455 3.706163 0
M  V30 3 C -0.236779 -4.233058 2.643005 0
M  V30 4 C -0.281632 -4.560659 1.302076 0
M  V30 5 C 0.173844 -3.681215 0.335627 0
M  V30 6 C 0.672487 -2.468532 0.770395 0
M  V30 7 C 1.160276 -1.509008 -0.211351 0
M  V30 8 N 1.651919 -0.356541 0.001988 0
M  V30 9 C 2.065365 0.407985 -1.122240 0
M  V30 10 C 1.287464 0.074233 -2.340374 0
M  V30 11 C -0.096581 0.560815 -2.451294 0
M  V30 12 S -0.431748 2.291274 -2.436010 0
M  V30 13 C -0.162328 3.148921 -0.932154 0
M  V30 14 N -1.302825 3.068306 -0.187069 0
M  V30 15 C -1.374389 3.675192 1.029376 0
M  V30 16 C -0.331912 4.388798 1.571620 0
M  V30 17 C 0.807557 4.456114 0.801067 0
M  V30 18 O 1.966530 5.126002 1.166342 0
M  V30 19 N 0.838817 3.850707 -0.380818 0
M  V30 20 S 1.150814 -1.753714 -2.017567 0
M  V30 21 C 0.729246 -2.114716 2.104151 0
M  V30 22 C 0.271326 -3.001541 3.057789 0
M  V30 23 H -1.213724 -6.948726 4.338529 0
M  V30 24 H -2.216895 -6.225593 2.987873 0
M  V30 25 H -0.511301 -6.781251 2.708634 0
M  V30 26 H -0.688517 -5.530128 1.068649 0
M  V30 27 H 0.118685 -3.984033 -0.710161 0
M  V30 28 H 3.162547 0.214536 -1.246388 0
M  V30 29 H 1.899759 1.470170 -0.872254 0
M  V30 30 H 1.851981 0.199172 -3.285774 0
M  V30 31 H -0.748464 0.072882 -1.668865 0
M  V30 32 H -0.490186 0.146799 -3.440477 0
M  V30 33 H -2.244265 3.663943 1.692482 0
M  V30 34 H -0.338073 4.881318 2.519032 0
M  V30 35 H 2.844979 4.640479 1.025929 0
M  V30 36 H 1.133507 -1.145225 2.372413 0
M  V30 37 H 0.338668 -2.674076 4.094327 0
M  V30 END ATOM
M  V30 BEGIN BOND
M  V30 1 1 1 2
M  V30 2 1 2 3
M  V30 3 2 3 4
M  V30 4 1 4 5
M  V30 5 2 5 6
M  V30 6 1 6 7
M  V30 7 2 7 8
M  V30 8 1 8 9
M  V30 9 1 9 10
M  V30 10 1 10 11
M  V30 11 1 11 12
M  V30 12 1 12 13
M  V30 13 2 13 14
M  V30 14 1 14 15
M  V30 15 2 15 16
M  V30 16 1 16 17
M  V30 17 1 17 18
M  V30 18 2 17 19
M  V30 19 1 10 20
M  V30 20 1 6 21
M  V30 21 2 21 22
M  V30 22 1 22 3
M  V30 23 1 20 7
M  V30 24 1 19 13
M  V30 25 1 1 23
M  V30 26 1 1 24
M  V30 27 1 1 25
M  V30 28 1 4 26
M  V30 29 1 5 27
M  V30 30 1 9 28
M  V30 31 1 9 29
M  V30 32 1 10 30
M  V30 33 1 11 31
M  V30 34 1 11 32
M  V30 35 1 15 33
M  V30 36 1 16 34
M  V30 37 1 18 35
M  V30 38 1 21 36
M  V30 39 1 22 37
M  V30 END BOND
M  V30 END CTAB
M  END
>  <Dataset>  (864) 
ChEMBL_Kinases

>  <Ligand_Instance>  (864) 
nan

>  <PDB_ID>  (864) 
nan

>  <Standardized_SMILES>  (864) 
COc1ccc(C2=NCC(CSc3nccc(O)n3)S2)cc1

>  <Name>  (864) 
nan

>  <Pocket>  (864) 
nan

>  <ATP_Site>  (864) 
nan

>  <Peripheral>  (864) 
nan

>  <Num_H_Atoms_ProtBoundConf>  (864) 
nan

>  <Num_Resolved_Atoms>  (864) 
nan

>  <Num_Not_Resolved_Atoms>  (864) 
nan

$$$$
CHEMBL1324266
     RDKit          3D

  0  0  0  0  0  0  0  0  0  0999 V3000
M  V30 BEGIN CTAB
M  V30 COUNTS 45 48 0 0 0
M  V30 BEGIN ATOM
M  V30 1 C 1.574255 -3.451264 3.389564 0
M  V30 2 C 1.669290 -2.790365 2.029458 0
M  V30 3 C 1.506723 -3.797280 0.909965 0
M  V30 4 O 2.913947 -2.143159 1.849914 0
M  V30 5 C 3.125292 -1.052894 1.023965 0
M  V30 6 C 4.491758 -0.744806 0.630871 0
M  V30 7 C 5.562188 -1.504454 1.057719 0
M  V30 8 C 6.855798 -1.237401 0.703610 0
M  V30 9 C 7.163969 -0.172635 -0.115675 0
M  V30 10 C 6.134464 0.610551 -0.564812 0
M  V30 11 C 4.843963 0.308190 -0.185166 0
M  V30 12 C 2.052744 -0.372998 0.656066 0
M  V30 13 C 0.717386 -0.748819 1.095048 0
M  V30 14 C -0.371053 -0.084950 0.740867 0
M  V30 15 C -1.703406 -0.462973 1.181085 0
M  V30 16 C -2.791762 0.199749 0.827734 0
M  V30 17 C -2.945530 1.376769 -0.017223 0
M  V30 18 O -2.011660 1.996919 -0.586331 0
M  V30 19 C -4.341252 1.775307 -0.139264 0
M  V30 20 C -5.020282 2.784151 -0.796699 0
M  V30 21 C -6.388207 2.910616 -0.722502 0
M  V30 22 C -7.077649 1.980766 0.044030 0
M  V30 23 C -6.421817 0.964516 0.709728 0
M  V30 24 C -5.046646 0.864269 0.615412 0
M  V30 25 C -4.156959 -0.116167 1.226255 0
M  V30 26 O -4.491186 -1.079789 1.974199 0
M  V30 27 O 0.604317 -1.858648 1.923328 0
M  V30 28 H 2.594401 -3.714072 3.769683 0
M  V30 29 H 0.977346 -2.869207 4.116346 0
M  V30 30 H 1.065703 -4.447942 3.291457 0
M  V30 31 H 1.930502 -4.798507 1.157754 0
M  V30 32 H 1.983314 -3.382612 -0.023613 0
M  V30 33 H 0.446154 -3.955493 0.616777 0
M  V30 34 H 5.387650 -2.363595 1.709739 0
M  V30 35 H 7.668411 -1.878432 1.074909 0
M  V30 36 H 8.197340 -0.000476 -0.368323 0
M  V30 37 H 6.367040 1.452542 -1.211341 0
M  V30 38 H 4.075002 0.961068 -0.570490 0
M  V30 39 H 2.188911 0.483223 0.011072 0
M  V30 40 H -0.160438 0.757000 0.097252 0
M  V30 41 H -1.783226 -1.311933 1.813837 0
M  V30 42 H -4.449668 3.491519 -1.385471 0
M  V30 43 H -6.926725 3.696479 -1.233462 0
M  V30 44 H -8.152917 2.068703 0.110780 0
M  V30 45 H -7.028655 0.285531 1.282093 0
M  V30 END ATOM
M  V30 BEGIN BOND
M  V30 1 1 1 2
M  V30 2 1 2 3
M  V30 3 1 2 4
M  V30 4 1 4 5
M  V30 5 1 5 6
M  V30 6 2 6 7
M  V30 7 1 7 8
M  V30 8 2 8 9
M  V30 9 1 9 10
M  V30 10 2 10 11
M  V30 11 2 5 12
M  V30 12 1 12 13
M  V30 13 2 13 14
M  V30 14 1 14 15
M  V30 15 2 15 16
M  V30 16 1 16 17
M  V30 17 2 17 18
M  V30 18 1 17 19
M  V30 19 2 19 20
M  V30 20 1 20 21
M  V30 21 2 21 22
M  V30 22 1 22 23
M  V30 23 2 23 24
M  V30 24 1 24 25
M  V30 25 2 25 26
M  V30 26 1 13 27
M  V30 27 1 27 2
M  V30 28 1 11 6
M  V30 29 1 25 16
M  V30 30 1 24 19
M  V30 31 1 1 28
M  V30 32 1 1 29
M  V30 33 1 1 30
M  V30 34 1 3 31
M  V30 35 1 3 32
M  V30 36 1 3 33
M  V30 37 1 7 34
M  V30 38 1 8 35
M  V30 39 1 9 36
M  V30 40 1 10 37
M  V30 41 1 11 38
M  V30 42 1 12 39
M  V30 43 1 14 40
M  V30 44 1 15 41
M  V30 45 1 20 42
M  V30 46 1 21 43
M  V30 47 1 22 44
M  V30 48 1 23 45
M  V30 END BOND
M  V30 END CTAB
M  END
>  <Dataset>  (865) 
ChEMBL_Kinases

>  <Ligand_Instance>  (865) 
nan

>  <PDB_ID>  (865) 
nan

>  <Standardized_SMILES>  (865) 
CC1(C)OC(c2ccccc2)=C/C(=C/C=C2C(=O)c3ccccc3C2=O)O1

>  <Name>  (865) 
nan

>  <Pocket>  (865) 
nan

>  <ATP_Site>  (865) 
nan

>  <Peripheral>  (865) 
nan

>  <Num_H_Atoms_ProtBoundConf>  (865) 
nan

>  <Num_Resolved_Atoms>  (865) 
nan

>  <Num_Not_Resolved_Atoms>  (865) 
nan

$$$$
CHEMBL1328771
     RDKit          3D

  0  0  0  0  0  0  0  0  0  0999 V3000
M  V30 BEGIN CTAB
M  V30 COUNTS 63 65 0 0 0
M  V30 BEGIN ATOM
M  V30 1 C 2.747157 -3.420263 6.766130 0
M  V30 2 O 1.767037 -4.133641 6.071907 0
M  V30 3 C 1.390739 -3.936826 4.761122 0
M  V30 4 C 1.990322 -2.975921 3.970183 0
M  V30 5 C 1.597159 -2.781344 2.641350 0
M  V30 6 C 2.084573 -1.747378 1.724690 0
M  V30 7 C 3.539411 -1.557035 1.541567 0
M  V30 8 C 3.671891 -0.400907 0.552856 0
M  V30 9 O 4.789528 -0.071842 0.086050 0
M  V30 10 C 2.471239 0.359255 0.127931 0
M  V30 11 C 1.313845 0.400778 0.911912 0
M  V30 12 N 0.413028 1.119180 0.249500 0
M  V30 13 C 0.989013 1.512921 -0.908209 0
M  V30 14 C 0.024873 2.260127 -1.639736 0
M  V30 15 O -0.468667 2.935054 -2.526056 0
M  V30 16 O -0.166262 3.001008 -2.771116 0
M  V30 17 C -1.287353 3.634179 -3.257358 0
M  V30 18 C -2.410334 2.661981 -3.519758 0
M  V30 19 O -3.510729 3.385003 -4.020593 0
M  V30 20 C -4.575513 2.530278 -4.304990 0
M  V30 21 C -5.018305 2.649498 -5.738350 0
M  V30 22 C -5.778842 2.785210 -3.403099 0
M  V30 23 C 2.275671 1.066127 -1.036737 0
M  V30 24 C 3.128397 1.351732 -2.190067 0
M  V30 25 C 1.557366 -0.359751 2.164167 0
M  V30 26 C 0.573330 -3.606854 2.185841 0
M  V30 27 C -0.027003 -4.565215 2.972646 0
M  V30 28 O -1.040868 -5.315306 2.347373 0
M  V30 29 C -1.416002 -5.147079 1.016070 0
M  V30 30 C 0.379413 -4.735792 4.255792 0
M  V30 31 O -0.229493 -5.709146 5.053798 0
M  V30 32 C -1.388986 -5.409734 5.821946 0
M  V30 33 H 2.321297 -3.164042 7.781520 0
M  V30 34 H 3.632001 -4.050218 6.875838 0
M  V30 35 H 3.047443 -2.475842 6.277696 0
M  V30 36 H 2.783888 -2.315806 4.329045 0
M  V30 37 H 1.644451 -1.901639 0.701777 0
M  V30 38 H 4.043528 -2.409527 1.050589 0
M  V30 39 H 4.106081 -1.328380 2.465755 0
M  V30 40 H -0.465611 1.165615 0.818267 0
M  V30 41 H -1.706350 4.399636 -2.530586 0
M  V30 42 H -1.070715 4.258068 -4.162652 0
M  V30 43 H -2.145840 1.803912 -4.139008 0
M  V30 44 H -2.760079 2.295717 -2.514259 0
M  V30 45 H -4.301189 1.461265 -4.102932 0
M  V30 46 H -6.123212 2.771713 -5.832981 0
M  V30 47 H -4.779385 1.694114 -6.255459 0
M  V30 48 H -4.509721 3.494333 -6.215982 0
M  V30 49 H -5.757776 2.087474 -2.514602 0
M  V30 50 H -6.689537 2.547637 -3.988325 0
M  V30 51 H -5.827704 3.858025 -3.112355 0
M  V30 52 H 2.476450 1.447323 -3.105207 0
M  V30 53 H 3.694126 2.323561 -2.060157 0
M  V30 54 H 3.831388 0.492807 -2.327979 0
M  V30 55 H 2.330372 0.166340 2.756083 0
M  V30 56 H 0.597099 -0.460839 2.707967 0
M  V30 57 H 0.233764 -3.494249 1.140191 0
M  V30 58 H -2.151745 -5.919656 0.696874 0
M  V30 59 H -0.544198 -5.212834 0.331141 0
M  V30 60 H -1.830305 -4.136890 0.935993 0
M  V30 61 H -1.142521 -5.747984 6.860717 0
M  V30 62 H -1.695545 -4.346245 5.752426 0
M  V30 63 H -2.281556 -6.014252 5.494136 0
M  V30 END ATOM
M  V30 BEGIN BOND
M  V30 1 1 1 2
M  V30 2 1 2 3
M  V30 3 2 3 4
M  V30 4 1 4 5
M  V30 5 1 5 6
M  V30 6 1 6 7
M  V30 7 1 7 8
M  V30 8 2 8 9
M  V30 9 1 8 10
M  V30 10 2 10 11
M  V30 11 1 11 12
M  V30 12 1 12 13
M  V30 13 1 13 14
M  V30 14 2 14 15
M  V30 15 1 14 16
M  V30 16 1 16 17
M  V30 17 1 17 18
M  V30 18 1 18 19
M  V30 19 1 19 20
M  V30 20 1 20 21
M  V30 21 1 20 22
M  V30 22 2 13 23
M  V30 23 1 23 24
M  V30 24 1 11 25
M  V30 25 2 5 26
M  V30 26 1 26 27
M  V30 27 1 27 28
M  V30 28 1 28 29
M  V30 29 2 27 30
M  V30 30 1 30 31
M  V30 31 1 31 32
M  V30 32 1 30 3
M  V30 33 1 25 6
M  V30 34 1 23 10
M  V30 35 1 1 33
M  V30 36 1 1 34
M  V30 37 1 1 35
M  V30 38 1 4 36
M  V30 39 1 6 37
M  V30 40 1 7 38
M  V30 41 1 7 39
M  V30 42 1 12 40
M  V30 43 1 17 41
M  V30 44 1 17 42
M  V30 45 1 18 43
M  V30 46 1 18 44
M  V30 47 1 20 45
M  V30 48 1 21 46
M  V30 49 1 21 47
M  V30 50 1 21 48
M  V30 51 1 22 49
M  V30 52 1 22 50
M  V30 53 1 22 51
M  V30 54 1 24 52
M  V30 55 1 24 53
M  V30 56 1 24 54
M  V30 57 1 25 55
M  V30 58 1 25 56
M  V30 59 1 26 57
M  V30 60 1 29 58
M  V30 61 1 29 59
M  V30 62 1 29 60
M  V30 63 1 32 61
M  V30 64 1 32 62
M  V30 65 1 32 63
M  V30 END BOND
M  V30 END CTAB
M  END
>  <Dataset>  (866) 
ChEMBL_Kinases

>  <Ligand_Instance>  (866) 
nan

>  <PDB_ID>  (866) 
nan

>  <Standardized_SMILES>  (866) 
COc1cc(C2CC(=O)c3c([nH]c(C(=O)OCCOC(C)C)c3C)C2)cc(OC)c1OC

>  <Name>  (866) 
nan

>  <Pocket>  (866) 
nan

>  <ATP_Site>  (866) 
nan

>  <Peripheral>  (866) 
nan

>  <Num_H_Atoms_ProtBoundConf>  (866) 
nan

>  <Num_Resolved_Atoms>  (866) 
nan

>  <Num_Not_Resolved_Atoms>  (866) 
nan

$$$$
CHEMBL1328701
     RDKit          3D

  0  0  0  0  0  0  0  0  0  0999 V3000
M  V30 BEGIN CTAB
M  V30 COUNTS 34 36 0 0 0
M  V30 BEGIN ATOM
M  V30 1 C 0.740322 1.542935 -1.618117 0
M  V30 2 C 0.486626 0.468118 -0.624730 0
M  V30 3 C 0.735462 -0.876005 -0.755174 0
M  V30 4 N 1.335301 -1.623101 -1.795455 0
M  V30 5 C 1.274349 -3.068822 -1.823958 0
M  V30 6 O 1.247920 -3.955314 -0.898293 0
M  V30 7 C 1.228520 -3.760257 -3.140751 0
M  V30 8 S 1.531822 -2.322408 -4.253829 0
M  V30 9 C 2.090833 -1.209534 -2.927238 0
M  V30 10 S 3.207179 -0.007036 -2.955043 0
M  V30 11 C 0.270443 -1.348562 0.452156 0
M  V30 12 O 0.225212 -2.509963 0.927717 0
M  V30 13 N -0.214316 -0.373682 1.239731 0
M  V30 14 C -0.783807 -0.410150 2.545700 0
M  V30 15 C -0.302132 0.336842 3.626135 0
M  V30 16 C -0.895387 0.261135 4.871528 0
M  V30 17 C -1.976587 -0.587476 4.973028 0
M  V30 18 C -2.511881 -1.354939 3.963577 0
M  V30 19 C -1.887635 -1.253004 2.721084 0
M  V30 20 N -0.081243 0.759073 0.572855 0
M  V30 21 C -0.479881 2.093329 1.050038 0
M  V30 22 H 1.702067 2.052142 -1.507536 0
M  V30 23 H 0.580095 1.241079 -2.661629 0
M  V30 24 H -0.021269 2.380845 -1.466272 0
M  V30 25 H 2.044090 -4.497796 -3.264518 0
M  V30 26 H 0.225142 -4.160431 -3.275360 0
M  V30 27 H 0.566227 0.976696 3.417361 0
M  V30 28 H -0.518038 0.836142 5.686836 0
M  V30 29 H -2.425520 -0.624641 5.976834 0
M  V30 30 H -3.367873 -1.993924 4.144245 0
M  V30 31 H -2.274787 -1.840399 1.892394 0
M  V30 32 H -1.121230 2.536580 0.242968 0
M  V30 33 H 0.423177 2.730372 1.151286 0
M  V30 34 H -1.054806 2.018673 1.970671 0
M  V30 END ATOM
M  V30 BEGIN BOND
M  V30 1 1 1 2
M  V30 2 2 2 3
M  V30 3 1 3 4
M  V30 4 1 4 5
M  V30 5 2 5 6
M  V30 6 1 5 7
M  V30 7 1 7 8
M  V30 8 1 8 9
M  V30 9 2 9 10
M  V30 10 1 3 11
M  V30 11 2 11 12
M  V30 12 1 11 13
M  V30 13 1 13 14
M  V30 14 2 14 15
M  V30 15 1 15 16
M  V30 16 2 16 17
M  V30 17 1 17 18
M  V30 18 2 18 19
M  V30 19 1 13 20
M  V30 20 1 20 21
M  V30 21 1 20 2
M  V30 22 1 9 4
M  V30 23 1 19 14
M  V30 24 1 1 22
M  V30 25 1 1 23
M  V30 26 1 1 24
M  V30 27 1 7 25
M  V30 28 1 7 26
M  V30 29 1 15 27
M  V30 30 1 16 28
M  V30 31 1 17 29
M  V30 32 1 18 30
M  V30 33 1 19 31
M  V30 34 1 21 32
M  V30 35 1 21 33
M  V30 36 1 21 34
M  V30 END BOND
M  V30 END CTAB
M  END
>  <Dataset>  (867) 
ChEMBL_Kinases

>  <Ligand_Instance>  (867) 
nan

>  <PDB_ID>  (867) 
nan

>  <Standardized_SMILES>  (867) 
Cc1c(N2C(=O)CSC2=S)c(=O)n(-c2ccccc2)n1C

>  <Name>  (867) 
nan

>  <Pocket>  (867) 
nan

>  <ATP_Site>  (867) 
nan

>  <Peripheral>  (867) 
nan

>  <Num_H_Atoms_ProtBoundConf>  (867) 
nan

>  <Num_Resolved_Atoms>  (867) 
nan

>  <Num_Not_Resolved_Atoms>  (867) 
nan

$$$$
CHEMBL1328490
     RDKit          3D

  0  0  0  0  0  0  0  0  0  0999 V3000
M  V30 BEGIN CTAB
M  V30 COUNTS 79 83 0 0 0
M  V30 BEGIN ATOM
M  V30 1 C -1.566541 -2.725429 3.922307 0
M  V30 2 O -1.964718 -2.558795 2.602344 0
M  V30 3 C -3.274721 -2.578114 2.158637 0
M  V30 4 O -3.943067 -2.773346 3.211670 0
M  V30 5 C -4.243664 -2.481618 1.071596 0 CFG=2
M  V30 6 C -5.063136 -3.747058 0.907719 0
M  V30 7 C -5.624330 -3.845543 -0.471150 0
M  V30 8 C -5.846082 -2.491882 -1.119981 0 CFG=2
M  V30 9 C -6.345588 -2.767662 -2.522813 0
M  V30 10 C -4.569479 -1.701788 -1.216103 0 CFG=1
M  V30 11 C -4.720047 -0.270638 -0.891225 0
M  V30 12 C -3.633691 0.504920 -0.545738 0
M  V30 13 C -3.675176 1.825228 -0.240424 0
M  V30 14 C -4.897902 2.501073 -0.264364 0
M  V30 15 C -5.030443 3.941929 0.054113 0
M  V30 16 C -5.993941 1.760226 -0.602707 0
M  V30 17 C -5.928766 0.414000 -0.910327 0
M  V30 18 N -3.614887 -2.261660 -0.242595 0
M  V30 19 C -2.321446 -2.469117 -0.772885 0
M  V30 20 O -2.302982 -2.120115 -1.999137 0
M  V30 21 C -1.038009 -2.951377 -0.339058 0
M  V30 22 C -0.028765 -2.017138 -0.394382 0
M  V30 23 C 1.251380 -2.334334 -0.007477 0
M  V30 24 C 1.579079 -3.582653 0.446720 0
M  V30 25 C 2.861557 -4.095094 0.891103 0
M  V30 26 N 3.996171 -3.458906 0.942366 0
M  V30 27 O 4.063344 -2.137096 0.541772 0
M  V30 28 C 5.031449 -1.636635 -0.355605 0 CFG=1
M  V30 29 C 4.396594 -1.253540 -1.679347 0
M  V30 30 C 5.798470 -0.520496 0.207596 0
M  V30 31 C 6.093526 0.641150 -0.484491 0
M  V30 32 N 6.795347 1.455641 0.293585 0
M  V30 33 C 7.279827 2.768805 -0.111026 0 CFG=1
M  V30 34 C 6.143488 3.689596 -0.441155 0
M  V30 35 O 6.507553 4.963715 -0.072745 0
M  V30 36 C 7.692181 4.934221 0.627414 0
M  V30 37 C 7.931606 3.496171 1.033284 0 CFG=1
M  V30 38 O 7.273046 3.264995 2.251024 0
M  V30 39 N 6.949277 0.850780 1.438901 0
M  V30 40 N 6.359454 -0.338310 1.412664 0
M  V30 41 C 0.579720 -4.522768 0.505434 0
M  V30 42 C -0.702415 -4.209385 0.119217 0
M  V30 43 H -0.749824 -3.481490 3.961070 0
M  V30 44 H -1.159305 -1.733160 4.274136 0
M  V30 45 H -2.375115 -2.961791 4.640222 0
M  V30 46 H -4.955219 -1.662869 1.293392 0
M  V30 47 H -4.339801 -4.600467 1.039463 0
M  V30 48 H -5.814071 -3.776563 1.706876 0
M  V30 49 H -6.632970 -4.329219 -0.398379 0
M  V30 50 H -5.034341 -4.490332 -1.166030 0
M  V30 51 H -6.654573 -2.021237 -0.562885 0
M  V30 52 H -7.201589 -3.485765 -2.547199 0
M  V30 53 H -6.672763 -1.861748 -3.047024 0
M  V30 54 H -5.497639 -3.197458 -3.133603 0
M  V30 55 H -4.179927 -1.767490 -2.249295 0
M  V30 56 H -2.626571 0.119800 -0.483579 0
M  V30 57 H -2.825806 2.449387 0.032351 0
M  V30 58 H -4.977141 4.537265 -0.898827 0
M  V30 59 H -4.230878 4.287223 0.741085 0
M  V30 60 H -6.006510 4.169032 0.518226 0
M  V30 61 H -6.949985 2.285939 -0.621905 0
M  V30 62 H -6.820955 -0.098585 -1.166919 0
M  V30 63 H -0.180786 -1.001545 -0.738376 0
M  V30 64 H 2.022553 -1.602966 -0.055209 0
M  V30 65 H 3.046493 -5.091630 1.244991 0
M  V30 66 H 5.737609 -2.474596 -0.569371 0
M  V30 67 H 5.130229 -0.853808 -2.382136 0
M  V30 68 H 4.007998 -2.191681 -2.155367 0
M  V30 69 H 3.548156 -0.561225 -1.580919 0
M  V30 70 H 5.798867 0.864812 -1.512165 0
M  V30 71 H 8.001582 2.678792 -0.947704 0
M  V30 72 H 5.895681 3.583512 -1.516180 0
M  V30 73 H 5.231024 3.427605 0.160868 0
M  V30 74 H 7.613065 5.604875 1.505207 0
M  V30 75 H 8.498259 5.317211 -0.060125 0
M  V30 76 H 9.002691 3.249936 1.163745 0
M  V30 77 H 6.643746 3.981085 2.471634 0
M  V30 78 H 0.691918 -5.536063 0.840220 0
M  V30 79 H -1.516922 -4.913018 0.148785 0
M  V30 END ATOM
M  V30 BEGIN BOND
M  V30 1 1 1 2
M  V30 2 1 2 3
M  V30 3 2 3 4
M  V30 4 1 3 5
M  V30 5 1 5 6
M  V30 6 1 6 7
M  V30 7 1 7 8
M  V30 8 1 8 9
M  V30 9 1 8 10
M  V30 10 1 10 11
M  V30 11 2 11 12
M  V30 12 1 12 13
M  V30 13 2 13 14
M  V30 14 1 14 15
M  V30 15 1 14 16
M  V30 16 2 16 17
M  V30 17 1 10 18
M  V30 18 1 18 19
M  V30 19 2 19 20
M  V30 20 1 19 21
M  V30 21 2 21 22
M  V30 22 1 22 23
M  V30 23 2 23 24
M  V30 24 1 24 25
M  V30 25 2 25 26
M  V30 26 1 26 27
M  V30 27 1 27 28
M  V30 28 1 28 29
M  V30 29 1 28 30
M  V30 30 2 30 31
M  V30 31 1 31 32
M  V30 32 1 32 33
M  V30 33 1 33 34
M  V30 34 1 34 35
M  V30 35 1 35 36
M  V30 36 1 36 37
M  V30 37 1 37 38
M  V30 38 1 32 39
M  V30 39 2 39 40
M  V30 40 1 24 41
M  V30 41 2 41 42
M  V30 42 1 18 5
M  V30 43 1 42 21
M  V30 44 1 17 11
M  V30 45 1 40 30
M  V30 46 1 37 33
M  V30 47 1 1 43
M  V30 48 1 1 44
M  V30 49 1 1 45
M  V30 50 1 5 46 CFG=1
M  V30 51 1 6 47
M  V30 52 1 6 48
M  V30 53 1 7 49
M  V30 54 1 7 50
M  V30 55 1 8 51 CFG=1
M  V30 56 1 9 52
M  V30 57 1 9 53
M  V30 58 1 9 54
M  V30 59 1 10 55 CFG=3
M  V30 60 1 12 56
M  V30 61 1 13 57
M  V30 62 1 15 58
M  V30 63 1 15 59
M  V30 64 1 15 60
M  V30 65 1 16 61
M  V30 66 1 17 62
M  V30 67 1 22 63
M  V30 68 1 23 64
M  V30 69 1 25 65
M  V30 70 1 28 66 CFG=3
M  V30 71 1 29 67
M  V30 72 1 29 68
M  V30 73 1 29 69
M  V30 74 1 31 70
M  V30 75 1 33 71 CFG=3
M  V30 76 1 34 72
M  V30 77 1 34 73
M  V30 78 1 36 74
M  V30 79 1 36 75
M  V30 80 1 37 76 CFG=1
M  V30 81 1 38 77
M  V30 82 1 41 78
M  V30 83 1 42 79
M  V30 END BOND
M  V30 END CTAB
M  END
>  <Dataset>  (868) 
ChEMBL_Kinases

>  <Ligand_Instance>  (868) 
nan

>  <PDB_ID>  (868) 
nan

>  <Standardized_SMILES>  (868) 
COC(=O)[C@@H]1CC[C@H](C)[C@@H](c2ccc(C)cc2)N1C(=O)c1ccc(/C=N\O[C@@H](C)c2cn([C@H]3COC[C@H]3O)nn2)cc1

>  <Name>  (868) 
nan

>  <Pocket>  (868) 
nan

>  <ATP_Site>  (868) 
nan

>  <Peripheral>  (868) 
nan

>  <Num_H_Atoms_ProtBoundConf>  (868) 
nan

>  <Num_Resolved_Atoms>  (868) 
nan

>  <Num_Not_Resolved_Atoms>  (868) 
nan

$$$$
CHEMBL1328481
     RDKit          3D

  0  0  0  0  0  0  0  0  0  0999 V3000
M  V30 BEGIN CTAB
M  V30 COUNTS 34 36 0 0 0
M  V30 BEGIN ATOM
M  V30 1 N 2.790922 -2.887253 4.547699 0
M  V30 2 C 2.260487 -2.376924 3.650628 0
M  V30 3 C 1.598520 -1.757507 2.525959 0
M  V30 4 N 0.923661 -2.505285 1.603800 0
M  V30 5 C 0.304985 -1.942326 0.555323 0
M  V30 6 N -0.399579 -2.721699 -0.407681 0
M  V30 7 C -0.558893 -4.168097 -0.417146 0
M  V30 8 C -2.053027 -4.251061 -0.658945 0
M  V30 9 C -2.323262 -3.088241 -1.590122 0
M  V30 10 C -1.096151 -2.200268 -1.571810 0
M  V30 11 N 0.364561 -0.606896 0.430247 0
M  V30 12 C 1.010879 0.185680 1.301025 0
M  V30 13 N 1.050570 1.598139 1.132721 0
M  V30 14 C 1.688487 2.609484 1.954835 0
M  V30 15 C 0.585136 3.666773 2.001451 0
M  V30 16 C -0.305474 3.408502 0.800683 0
M  V30 17 C 0.423137 2.325122 0.044511 0
M  V30 18 N 1.619926 -0.405271 2.339155 0
M  V30 19 H 0.031527 -4.591361 -1.268325 0
M  V30 20 H -0.271927 -4.615103 0.555262 0
M  V30 21 H -2.541480 -4.105987 0.338789 0
M  V30 22 H -2.345067 -5.217850 -1.114009 0
M  V30 23 H -2.608078 -3.427056 -2.607225 0
M  V30 24 H -3.170285 -2.480141 -1.212055 0
M  V30 25 H -0.529806 -2.435906 -2.501022 0
M  V30 26 H -1.330902 -1.123250 -1.489870 0
M  V30 27 H 2.510216 3.085253 1.362298 0
M  V30 28 H 1.992674 2.264419 2.944293 0
M  V30 29 H 0.043647 3.577318 2.965887 0
M  V30 30 H 1.003622 4.681482 1.952145 0
M  V30 31 H -1.273536 3.088130 1.186155 0
M  V30 32 H -0.434512 4.335370 0.186791 0
M  V30 33 H -0.211483 1.694585 -0.586489 0
M  V30 34 H 1.248899 2.843739 -0.496715 0
M  V30 END ATOM
M  V30 BEGIN BOND
M  V30 1 3 1 2
M  V30 2 1 2 3
M  V30 3 2 3 4
M  V30 4 1 4 5
M  V30 5 1 5 6
M  V30 6 1 6 7
M  V30 7 1 7 8
M  V30 8 1 8 9
M  V30 9 1 9 10
M  V30 10 2 5 11
M  V30 11 1 11 12
M  V30 12 1 12 13
M  V30 13 1 13 14
M  V30 14 1 14 15
M  V30 15 1 15 16
M  V30 16 1 16 17
M  V30 17 2 12 18
M  V30 18 1 18 3
M  V30 19 1 10 6
M  V30 20 1 17 13
M  V30 21 1 7 19
M  V30 22 1 7 20
M  V30 23 1 8 21
M  V30 24 1 8 22
M  V30 25 1 9 23
M  V30 26 1 9 24
M  V30 27 1 10 25
M  V30 28 1 10 26
M  V30 29 1 14 27
M  V30 30 1 14 28
M  V30 31 1 15 29
M  V30 32 1 15 30
M  V30 33 1 16 31
M  V30 34 1 16 32
M  V30 35 1 17 33
M  V30 36 1 17 34
M  V30 END BOND
M  V30 END CTAB
M  END
>  <Dataset>  (869) 
ChEMBL_Kinases

>  <Ligand_Instance>  (869) 
nan

>  <PDB_ID>  (869) 
nan

>  <Standardized_SMILES>  (869) 
N#Cc1nc(N2CCCC2)nc(N2CCCC2)n1

>  <Name>  (869) 
nan

>  <Pocket>  (869) 
nan

>  <ATP_Site>  (869) 
nan

>  <Peripheral>  (869) 
nan

>  <Num_H_Atoms_ProtBoundConf>  (869) 
nan

>  <Num_Resolved_Atoms>  (869) 
nan

>  <Num_Not_Resolved_Atoms>  (869) 
nan

$$$$
CHEMBL1328426
     RDKit          3D

  0  0  0  0  0  0  0  0  0  0999 V3000
M  V30 BEGIN CTAB
M  V30 COUNTS 33 34 0 0 0
M  V30 BEGIN ATOM
M  V30 1 C -1.981096 -4.329666 3.887488 0
M  V30 2 O -2.227685 -3.868405 2.573954 0
M  V30 3 C -1.428022 -2.833940 2.098825 0
M  V30 4 C -0.407634 -2.228100 2.828915 0
M  V30 5 C 0.332279 -1.195615 2.248348 0
M  V30 6 C 0.069305 -0.767187 0.966323 0
M  V30 7 C 0.862441 0.317275 0.385716 0
M  V30 8 C 0.709600 0.844279 -0.879636 0
M  V30 9 C 1.641759 1.842489 -1.044902 0
M  V30 10 C 1.835317 2.666281 -2.232890 0
M  V30 11 O 2.730721 3.547511 -2.246390 0
M  V30 12 O 1.023945 2.466251 -3.340609 0
M  V30 13 C 2.340926 1.893725 0.136312 0
M  V30 14 C 3.462101 2.811651 0.466538 0
M  V30 15 O 1.836745 0.982323 0.920875 0
M  V30 16 C -0.933845 -1.352687 0.229653 0
M  V30 17 C -1.656424 -2.372407 0.818000 0
M  V30 18 O -2.665367 -2.951753 0.059244 0
M  V30 19 C -2.931231 -2.508603 -1.255623 0
M  V30 20 H -0.899620 -4.559176 3.949906 0
M  V30 21 H -2.561643 -5.245234 4.123629 0
M  V30 22 H -2.226926 -3.536358 4.641623 0
M  V30 23 H -0.265447 -2.616491 3.815413 0
M  V30 24 H 1.103841 -0.767024 2.855614 0
M  V30 25 H -0.010830 0.557499 -1.658921 0
M  V30 26 H 0.955481 3.163171 -4.095569 0
M  V30 27 H 4.092057 3.020223 -0.420750 0
M  V30 28 H 4.063012 2.416366 1.319503 0
M  V30 29 H 3.079848 3.812051 0.813938 0
M  V30 30 H -1.112419 -0.991067 -0.773203 0
M  V30 31 H -3.069805 -1.394383 -1.209727 0
M  V30 32 H -3.790100 -3.031693 -1.673448 0
M  V30 33 H -2.030304 -2.773376 -1.873045 0
M  V30 END ATOM
M  V30 BEGIN BOND
M  V30 1 1 1 2
M  V30 2 1 2 3
M  V30 3 2 3 4
M  V30 4 1 4 5
M  V30 5 2 5 6
M  V30 6 1 6 7
M  V30 7 2 7 8
M  V30 8 1 8 9
M  V30 9 1 9 10
M  V30 10 2 10 11
M  V30 11 1 10 12
M  V30 12 2 9 13
M  V30 13 1 13 14
M  V30 14 1 13 15
M  V30 15 1 6 16
M  V30 16 2 16 17
M  V30 17 1 17 18
M  V30 18 1 18 19
M  V30 19 1 17 3
M  V30 20 1 15 7
M  V30 21 1 1 20
M  V30 22 1 1 21
M  V30 23 1 1 22
M  V30 24 1 4 23
M  V30 25 1 5 24
M  V30 26 1 8 25
M  V30 27 1 12 26
M  V30 28 1 14 27
M  V30 29 1 14 28
M  V30 30 1 14 29
M  V30 31 1 16 30
M  V30 32 1 19 31
M  V30 33 1 19 32
M  V30 34 1 19 33
M  V30 END BOND
M  V30 END CTAB
M  END
>  <Dataset>  (870) 
ChEMBL_Kinases

>  <Ligand_Instance>  (870) 
nan

>  <PDB_ID>  (870) 
nan

>  <Standardized_SMILES>  (870) 
COc1ccc(-c2cc(C(=O)O)c(C)o2)cc1OC

>  <Name>  (870) 
nan

>  <Pocket>  (870) 
nan

>  <ATP_Site>  (870) 
nan

>  <Peripheral>  (870) 
nan

>  <Num_H_Atoms_ProtBoundConf>  (870) 
nan

>  <Num_Resolved_Atoms>  (870) 
nan

>  <Num_Not_Resolved_Atoms>  (870) 
nan

$$$$
CHEMBL1328358
     RDKit          3D

  0  0  0  0  0  0  0  0  0  0999 V3000
M  V30 BEGIN CTAB
M  V30 COUNTS 37 39 0 0 0
M  V30 BEGIN ATOM
M  V30 1 C 1.989615 -4.479235 2.988274 0
M  V30 2 O 2.264017 -3.939626 1.708350 0
M  V30 3 C 1.592932 -2.776978 1.315348 0
M  V30 4 C 0.691225 -2.204015 2.202097 0
M  V30 5 C 0.037849 -1.041546 1.768032 0
M  V30 6 C 0.243344 -0.466138 0.549995 0
M  V30 7 C 1.141704 -1.119338 -0.209151 0
M  V30 8 C 1.866748 -2.257223 0.050746 0
M  V30 9 O 2.776460 -2.916568 -0.726007 0
M  V30 10 C 3.173668 -2.544953 -2.011752 0
M  V30 11 C -0.428743 0.747754 0.217157 0
M  V30 12 C -0.332284 1.182943 -1.008397 0
M  V30 13 C 0.338765 0.650421 -2.134596 0
M  V30 14 N 0.865147 0.231020 -3.052940 0
M  V30 15 C -1.000276 2.478225 -1.335838 0
M  V30 16 C -2.347520 2.489165 -0.632596 0
M  V30 17 C -2.104959 2.416961 0.857587 0
M  V30 18 O -2.535092 3.197129 1.767042 0
M  V30 19 N -1.269569 1.290385 1.208083 0
M  V30 20 C -1.377320 0.866062 2.583648 0
M  V30 21 C -0.915320 -0.533259 2.781909 0
M  V30 22 H 0.887268 -4.662066 3.119177 0
M  V30 23 H 2.443855 -5.502348 3.087213 0
M  V30 24 H 2.379821 -3.857048 3.810391 0
M  V30 25 H 0.533873 -2.665267 3.167827 0
M  V30 26 H 1.468917 -0.802939 -1.152800 0
M  V30 27 H 2.288550 -2.435429 -2.675656 0
M  V30 28 H 3.756527 -1.588466 -2.001688 0
M  V30 29 H 3.823799 -3.374396 -2.392633 0
M  V30 30 H -0.438865 3.338897 -0.912034 0
M  V30 31 H -1.196827 2.581116 -2.408703 0
M  V30 32 H -2.934216 3.367825 -0.894593 0
M  V30 33 H -2.876850 1.567337 -0.948593 0
M  V30 34 H -2.400646 1.039733 2.993821 0
M  V30 35 H -0.659067 1.546124 3.140829 0
M  V30 36 H -0.359804 -0.550236 3.770410 0
M  V30 37 H -1.789079 -1.230447 2.853010 0
M  V30 END ATOM
M  V30 BEGIN BOND
M  V30 1 1 1 2
M  V30 2 1 2 3
M  V30 3 2 3 4
M  V30 4 1 4 5
M  V30 5 2 5 6
M  V30 6 1 6 7
M  V30 7 2 7 8
M  V30 8 1 8 9
M  V30 9 1 9 10
M  V30 10 1 6 11
M  V30 11 2 11 12
M  V30 12 1 12 13
M  V30 13 3 13 14
M  V30 14 1 12 15
M  V30 15 1 15 16
M  V30 16 1 16 17
M  V30 17 2 17 18
M  V30 18 1 17 19
M  V30 19 1 19 20
M  V30 20 1 20 21
M  V30 21 1 8 3
M  V30 22 1 19 11
M  V30 23 1 21 5
M  V30 24 1 1 22
M  V30 25 1 1 23
M  V30 26 1 1 24
M  V30 27 1 4 25
M  V30 28 1 7 26
M  V30 29 1 10 27
M  V30 30 1 10 28
M  V30 31 1 10 29
M  V30 32 1 15 30
M  V30 33 1 15 31
M  V30 34 1 16 32
M  V30 35 1 16 33
M  V30 36 1 20 34
M  V30 37 1 20 35
M  V30 38 1 21 36
M  V30 39 1 21 37
M  V30 END BOND
M  V30 END CTAB
M  END
>  <Dataset>  (871) 
ChEMBL_Kinases

>  <Ligand_Instance>  (871) 
nan

>  <PDB_ID>  (871) 
nan

>  <Standardized_SMILES>  (871) 
COc1cc2c(cc1OC)C1=C(C#N)CCC(=O)N1CC2

>  <Name>  (871) 
nan

>  <Pocket>  (871) 
nan

>  <ATP_Site>  (871) 
nan

>  <Peripheral>  (871) 
nan

>  <Num_H_Atoms_ProtBoundConf>  (871) 
nan

>  <Num_Resolved_Atoms>  (871) 
nan

>  <Num_Not_Resolved_Atoms>  (871) 
nan

$$$$
CHEMBL1328258
     RDKit          3D

  0  0  0  0  0  0  0  0  0  0999 V3000
M  V30 BEGIN CTAB
M  V30 COUNTS 62 66 0 0 0
M  V30 BEGIN ATOM
M  V30 1 O -0.368453 -1.048635 3.303570 0
M  V30 2 C -0.568651 -0.564653 2.176449 0
M  V30 3 N 0.181629 0.526786 1.654419 0
M  V30 4 C 1.247835 1.139378 2.445296 0
M  V30 5 C 0.946831 2.539452 2.853287 0
M  V30 6 C 1.949312 3.550568 2.301899 0
M  V30 7 N 2.380325 3.200790 0.970547 0
M  V30 8 C 3.185247 4.316522 0.509166 0
M  V30 9 C 3.716715 4.159179 -0.846559 0
M  V30 10 C 4.904077 3.612297 -1.283509 0
M  V30 11 C 5.200860 3.567722 -2.628941 0
M  V30 12 C 4.345749 4.056840 -3.592033 0
M  V30 13 C 3.142414 4.612567 -3.168647 0
M  V30 14 C 2.839045 4.659720 -1.815209 0
M  V30 15 C 3.073236 1.957364 0.895202 0
M  V30 16 C 2.611381 0.919994 1.859748 0
M  V30 17 C -1.641127 -1.132721 1.302270 0
M  V30 18 C -2.680120 -0.114035 0.949744 0
M  V30 19 C -4.084767 -0.642663 0.908901 0
M  V30 20 C -4.139114 -2.030527 0.264161 0
M  V30 21 N -3.234586 -2.880481 1.037894 0
M  V30 22 C -3.300236 -4.291508 0.733908 0
M  V30 23 N -4.037151 -5.063031 1.287244 0
M  V30 24 N -4.101585 -6.332095 1.019350 0
M  V30 25 C -3.484239 -6.912749 0.232821 0
M  V30 26 N -3.406824 -8.282165 -0.207074 0
M  V30 27 C -4.534384 -8.956866 -0.371355 0
M  V30 28 C -4.141030 -10.222040 -0.792267 0
M  V30 29 C -2.765493 -10.288087 -0.875223 0
M  V30 30 C -2.314948 -9.019864 -0.491335 0
M  V30 31 S -2.429825 -5.497732 -0.477032 0
M  V30 32 C -2.361084 -2.273144 2.025250 0
M  V30 33 H -0.040490 0.894083 0.681376 0
M  V30 34 H 1.238602 0.540099 3.406100 0
M  V30 35 H 0.958377 2.711167 3.951726 0
M  V30 36 H -0.088600 2.869623 2.545888 0
M  V30 37 H 1.428578 4.526058 2.210208 0
M  V30 38 H 2.807939 3.701178 2.965110 0
M  V30 39 H 4.075194 4.338586 1.206155 0
M  V30 40 H 2.672908 5.273359 0.680683 0
M  V30 41 H 5.521612 3.251660 -0.478415 0
M  V30 42 H 6.159327 3.118081 -2.872004 0
M  V30 43 H 4.637197 3.991232 -4.619529 0
M  V30 44 H 2.502695 4.982905 -3.946565 0
M  V30 45 H 1.870845 5.118745 -1.632584 0
M  V30 46 H 3.061953 1.586889 -0.134247 0
M  V30 47 H 4.149867 2.164744 1.153962 0
M  V30 48 H 2.554814 -0.054554 1.314311 0
M  V30 49 H 3.361699 0.707396 2.677872 0
M  V30 50 H -1.139795 -1.596289 0.427558 0
M  V30 51 H -2.418368 0.346247 -0.025756 0
M  V30 52 H -2.653831 0.713558 1.683515 0
M  V30 53 H -4.704590 0.086824 0.348279 0
M  V30 54 H -4.487858 -0.671762 1.948285 0
M  V30 55 H -3.848547 -1.908662 -0.779025 0
M  V30 56 H -5.199019 -2.372360 0.348502 0
M  V30 57 H -5.569758 -8.676299 -0.235407 0
M  V30 58 H -4.815419 -11.055830 -1.027651 0
M  V30 59 H -2.120611 -11.113275 -1.167245 0
M  V30 60 H -1.296792 -8.666207 -0.424663 0
M  V30 61 H -1.646203 -3.023321 2.392717 0
M  V30 62 H -2.903945 -1.872298 2.902613 0
M  V30 END ATOM
M  V30 BEGIN BOND
M  V30 1 2 1 2
M  V30 2 1 2 3
M  V30 3 1 3 4
M  V30 4 1 4 5
M  V30 5 1 5 6
M  V30 6 1 6 7
M  V30 7 1 7 8
M  V30 8 1 8 9
M  V30 9 2 9 10
M  V30 10 1 10 11
M  V30 11 2 11 12
M  V30 12 1 12 13
M  V30 13 2 13 14
M  V30 14 1 7 15
M  V30 15 1 15 16
M  V30 16 1 2 17
M  V30 17 1 17 18
M  V30 18 1 18 19
M  V30 19 1 19 20
M  V30 20 1 20 21
M  V30 21 1 21 22
M  V30 22 2 22 23
M  V30 23 1 23 24
M  V30 24 2 24 25
M  V30 25 1 25 26
M  V30 26 1 26 27
M  V30 27 2 27 28
M  V30 28 1 28 29
M  V30 29 2 29 30
M  V30 30 1 25 31
M  V30 31 1 21 32
M  V30 32 1 16 4
M  V30 33 1 32 17
M  V30 34 1 14 9
M  V30 35 1 31 22
M  V30 36 1 30 26
M  V30 37 1 3 33
M  V30 38 1 4 34
M  V30 39 1 5 35
M  V30 40 1 5 36
M  V30 41 1 6 37
M  V30 42 1 6 38
M  V30 43 1 8 39
M  V30 44 1 8 40
M  V30 45 1 10 41
M  V30 46 1 11 42
M  V30 47 1 12 43
M  V30 48 1 13 44
M  V30 49 1 14 45
M  V30 50 1 15 46
M  V30 51 1 15 47
M  V30 52 1 16 48
M  V30 53 1 16 49
M  V30 54 1 17 50
M  V30 55 1 18 51
M  V30 56 1 18 52
M  V30 57 1 19 53
M  V30 58 1 19 54
M  V30 59 1 20 55
M  V30 60 1 20 56
M  V30 61 1 27 57
M  V30 62 1 28 58
M  V30 63 1 29 59
M  V30 64 1 30 60
M  V30 65 1 32 61
M  V30 66 1 32 62
M  V30 END BOND
M  V30 END CTAB
M  END
>  <Dataset>  (872) 
ChEMBL_Kinases

>  <Ligand_Instance>  (872) 
nan

>  <PDB_ID>  (872) 
nan

>  <Standardized_SMILES>  (872) 
O=C(NC1CCN(Cc2ccccc2)CC1)C1CCCN(c2nnc(-n3cccc3)s2)C1

>  <Name>  (872) 
nan

>  <Pocket>  (872) 
nan

>  <ATP_Site>  (872) 
nan

>  <Peripheral>  (872) 
nan

>  <Num_H_Atoms_ProtBoundConf>  (872) 
nan

>  <Num_Resolved_Atoms>  (872) 
nan

>  <Num_Not_Resolved_Atoms>  (872) 
nan

$$$$
CHEMBL1328179
     RDKit          3D

  0  0  0  0  0  0  0  0  0  0999 V3000
M  V30 BEGIN CTAB
M  V30 COUNTS 31 33 0 0 0
M  V30 BEGIN ATOM
M  V30 1 C 0.157636 -5.458175 3.028973 0
M  V30 2 C 0.742626 -5.329949 1.642371 0
M  V30 3 O 0.412119 -4.143636 1.001089 0
M  V30 4 C 0.727391 -2.882091 1.471801 0
M  V30 5 N 1.407422 -2.667870 2.634826 0
M  V30 6 C 1.621626 -1.373141 2.928859 0
M  V30 7 N 1.225253 -0.347815 2.183190 0
M  V30 8 C 0.552966 -0.496831 1.029709 0
M  V30 9 C 0.334547 -1.828994 0.730594 0
M  V30 10 S -0.558843 -1.812217 -0.814918 0
M  V30 11 C -0.576512 0.064352 -0.956038 0
M  V30 12 N -1.103798 0.859804 -1.914494 0
M  V30 13 C -1.012970 2.187980 -1.835717 0
M  V30 14 C -1.613331 2.990203 -2.920835 0
M  V30 15 C -0.353825 2.624374 -0.721878 0
M  V30 16 C 0.189779 1.847598 0.263686 0
M  V30 17 C 0.869920 2.515252 1.400202 0
M  V30 18 C 0.100592 0.478119 0.190183 0
M  V30 19 H -0.876665 -5.069394 3.055531 0
M  V30 20 H 0.811913 -4.991943 3.792802 0
M  V30 21 H 0.115776 -6.544286 3.264877 0
M  V30 22 H 1.848911 -5.476690 1.721523 0
M  V30 23 H 0.362015 -6.181479 1.042565 0
M  V30 24 H 2.164348 -1.104348 3.851284 0
M  V30 25 H -1.847234 4.019100 -2.531947 0
M  V30 26 H -0.888489 3.182099 -3.751261 0
M  V30 27 H -2.518221 2.536150 -3.331902 0
M  V30 28 H -0.261206 3.714690 -0.625984 0
M  V30 29 H 1.963370 2.659002 1.202271 0
M  V30 30 H 0.710247 1.969155 2.359161 0
M  V30 31 H 0.447274 3.536671 1.524937 0
M  V30 END ATOM
M  V30 BEGIN BOND
M  V30 1 1 1 2
M  V30 2 1 2 3
M  V30 3 1 3 4
M  V30 4 2 4 5
M  V30 5 1 5 6
M  V30 6 2 6 7
M  V30 7 1 7 8
M  V30 8 2 8 9
M  V30 9 1 9 10
M  V30 10 1 10 11
M  V30 11 2 11 12
M  V30 12 1 12 13
M  V30 13 1 13 14
M  V30 14 2 13 15
M  V30 15 1 15 16
M  V30 16 1 16 17
M  V30 17 2 16 18
M  V30 18 1 9 4
M  V30 19 1 18 11
M  V30 20 1 18 8
M  V30 21 1 1 19
M  V30 22 1 1 20
M  V30 23 1 1 21
M  V30 24 1 2 22
M  V30 25 1 2 23
M  V30 26 1 6 24
M  V30 27 1 14 25
M  V30 28 1 14 26
M  V30 29 1 14 27
M  V30 30 1 15 28
M  V30 31 1 17 29
M  V30 32 1 17 30
M  V30 33 1 17 31
M  V30 END BOND
M  V30 END CTAB
M  END
>  <Dataset>  (873) 
ChEMBL_Kinases

>  <Ligand_Instance>  (873) 
nan

>  <PDB_ID>  (873) 
nan

>  <Standardized_SMILES>  (873) 
CCOc1ncnc2c1sc1nc(C)cc(C)c12

>  <Name>  (873) 
nan

>  <Pocket>  (873) 
nan

>  <ATP_Site>  (873) 
nan

>  <Peripheral>  (873) 
nan

>  <Num_H_Atoms_ProtBoundConf>  (873) 
nan

>  <Num_Resolved_Atoms>  (873) 
nan

>  <Num_Not_Resolved_Atoms>  (873) 
nan

$$$$
CHEMBL1328169
     RDKit          3D

  0  0  0  0  0  0  0  0  0  0999 V3000
M  V30 BEGIN CTAB
M  V30 COUNTS 57 61 0 0 0
M  V30 BEGIN ATOM
M  V30 1 C 5.575831 -3.300446 3.233980 0
M  V30 2 C 4.344223 -2.493880 3.023289 0
M  V30 3 C 4.026846 -1.401155 3.802047 0
M  V30 4 C 2.830866 -0.952190 3.281577 0
M  V30 5 C 2.081203 0.227050 3.800287 0
M  V30 6 N 2.442774 -1.730872 2.242203 0
M  V30 7 C 1.279276 -1.617577 1.429770 0
M  V30 8 N 0.775827 -0.430896 1.059131 0
M  V30 9 C -0.311519 -0.246451 0.298995 0
M  V30 10 N -0.815027 1.029229 -0.084098 0
M  V30 11 C -0.176956 2.242318 0.258897 0
M  V30 12 C 1.168037 2.409956 0.502014 0
M  V30 13 C 1.779600 3.580814 0.854899 0
M  V30 14 C 1.007212 4.715837 0.987539 0
M  V30 15 C -0.351724 4.638489 0.762160 0
M  V30 16 C -0.902934 3.419558 0.408343 0
M  V30 17 C -2.011067 1.144680 -0.839481 0
M  V30 18 C -3.083088 0.285872 -0.764242 0
M  V30 19 C -4.234207 0.381865 -1.514927 0
M  V30 20 C -4.347596 1.413639 -2.423279 0
M  V30 21 C -3.319530 2.318196 -2.560960 0
M  V30 22 C -2.197263 2.159102 -1.776277 0
M  V30 23 N -0.892417 -1.390587 -0.085912 0
M  V30 24 C -0.478950 -2.628814 0.223033 0
M  V30 25 N -1.225604 -3.732583 -0.277824 0
M  V30 26 N -1.941113 -4.703119 0.267858 0
M  V30 27 C -2.446570 -5.501643 -0.688547 0
M  V30 28 C -3.302906 -6.704672 -0.526058 0
M  V30 29 C -2.025190 -5.004824 -1.896299 0
M  V30 30 C -1.250354 -3.881731 -1.632024 0
M  V30 31 C -0.637013 -3.103051 -2.745003 0
M  V30 32 N 0.622032 -2.731374 0.991147 0
M  V30 33 N 3.378510 -2.658530 2.106665 0
M  V30 34 H 5.701525 -3.644114 4.259970 0
M  V30 35 H 6.440986 -2.659379 2.947360 0
M  V30 36 H 5.620956 -4.167924 2.537576 0
M  V30 37 H 4.550797 -0.944591 4.644447 0
M  V30 38 H 2.632515 1.169917 3.526598 0
M  V30 39 H 2.048165 0.224685 4.912857 0
M  V30 40 H 1.038873 0.249554 3.412997 0
M  V30 41 H 1.814204 1.560886 0.408519 0
M  V30 42 H 2.852491 3.643669 1.033097 0
M  V30 43 H 1.486291 5.643782 1.266463 0
M  V30 44 H -0.898949 5.540964 0.877468 0
M  V30 45 H -1.973382 3.484993 0.270276 0
M  V30 46 H -3.059818 -0.537630 -0.068804 0
M  V30 47 H -5.048959 -0.345767 -1.397216 0
M  V30 48 H -5.255356 1.478821 -3.006560 0
M  V30 49 H -3.417003 3.123243 -3.274567 0
M  V30 50 H -1.425130 2.913735 -1.952939 0
M  V30 51 H -2.803674 -7.623491 -0.893798 0
M  V30 52 H -3.541003 -6.789265 0.554216 0
M  V30 53 H -4.267699 -6.517254 -1.051294 0
M  V30 54 H -2.269104 -5.432575 -2.871725 0
M  V30 55 H -1.404800 -2.899458 -3.515727 0
M  V30 56 H 0.190549 -3.646617 -3.245563 0
M  V30 57 H -0.311670 -2.092150 -2.401466 0
M  V30 END ATOM
M  V30 BEGIN BOND
M  V30 1 1 1 2
M  V30 2 1 2 3
M  V30 3 2 3 4
M  V30 4 1 4 5
M  V30 5 1 4 6
M  V30 6 1 6 7
M  V30 7 2 7 8
M  V30 8 1 8 9
M  V30 9 1 9 10
M  V30 10 1 10 11
M  V30 11 2 11 12
M  V30 12 1 12 13
M  V30 13 2 13 14
M  V30 14 1 14 15
M  V30 15 2 15 16
M  V30 16 1 10 17
M  V30 17 2 17 18
M  V30 18 1 18 19
M  V30 19 2 19 20
M  V30 20 1 20 21
M  V30 21 2 21 22
M  V30 22 2 9 23
M  V30 23 1 23 24
M  V30 24 1 24 25
M  V30 25 1 25 26
M  V30 26 2 26 27
M  V30 27 1 27 28
M  V30 28 1 27 29
M  V30 29 2 29 30
M  V30 30 1 30 31
M  V30 31 2 24 32
M  V30 32 1 6 33
M  V30 33 2 33 2
M  V30 34 1 32 7
M  V30 35 1 16 11
M  V30 36 1 22 17
M  V30 37 1 30 25
M  V30 38 1 1 34
M  V30 39 1 1 35
M  V30 40 1 1 36
M  V30 41 1 3 37
M  V30 42 1 5 38
M  V30 43 1 5 39
M  V30 44 1 5 40
M  V30 45 1 12 41
M  V30 46 1 13 42
M  V30 47 1 14 43
M  V30 48 1 15 44
M  V30 49 1 16 45
M  V30 50 1 18 46
M  V30 51 1 19 47
M  V30 52 1 20 48
M  V30 53 1 21 49
M  V30 54 1 22 50
M  V30 55 1 28 51
M  V30 56 1 28 52
M  V30 57 1 28 53
M  V30 58 1 29 54
M  V30 59 1 31 55
M  V30 60 1 31 56
M  V30 61 1 31 57
M  V30 END BOND
M  V30 END CTAB
M  END
>  <Dataset>  (874) 
ChEMBL_Kinases

>  <Ligand_Instance>  (874) 
nan

>  <PDB_ID>  (874) 
nan

>  <Standardized_SMILES>  (874) 
Cc1cc(C)n(-c2nc(N(c3ccccc3)c3ccccc3)nc(-n3nc(C)cc3C)n2)n1

>  <Name>  (874) 
nan

>  <Pocket>  (874) 
nan

>  <ATP_Site>  (874) 
nan

>  <Peripheral>  (874) 
nan

>  <Num_H_Atoms_ProtBoundConf>  (874) 
nan

>  <Num_Resolved_Atoms>  (874) 
nan

>  <Num_Not_Resolved_Atoms>  (874) 
nan

$$$$
CHEMBL1328025
     RDKit          3D

  0  0  0  0  0  0  0  0  0  0999 V3000
M  V30 BEGIN CTAB
M  V30 COUNTS 46 48 0 0 0
M  V30 BEGIN ATOM
M  V30 1 C -1.578435 -5.181283 -2.045136 0
M  V30 2 O -0.482502 -4.394294 -1.664729 0
M  V30 3 C 0.039219 -3.881615 -2.849514 0
M  V30 4 C 1.234413 -3.003795 -2.628338 0
M  V30 5 N 0.912963 -1.855318 -1.785223 0
M  V30 6 C 1.041446 -1.940240 -0.460151 0
M  V30 7 C 1.485626 -3.072837 0.391948 0
M  V30 8 C 0.663228 -0.704941 0.017010 0
M  V30 9 C 0.316632 0.087325 -1.055195 0
M  V30 10 C -0.149120 1.463296 -1.108936 0
M  V30 11 O -0.411306 1.995917 -2.209821 0
M  V30 12 C -0.405449 2.465825 -0.053128 0
M  V30 13 O -0.103192 1.871313 1.195241 0
M  V30 14 C -0.240319 2.557022 2.394901 0
M  V30 15 O -0.655353 3.704952 2.089054 0
M  V30 16 C 0.033499 2.067702 3.734291 0
M  V30 17 C 0.485372 0.845015 4.178419 0
M  V30 18 C 0.687435 0.562342 5.501780 0
M  V30 19 C 0.444765 1.506549 6.488262 0
M  V30 20 N 0.626666 1.273755 7.771795 0
M  V30 21 C 0.393351 2.159431 8.625631 0
M  V30 22 S -0.188142 3.614135 7.548424 0
M  V30 23 C -0.002095 2.722258 6.077075 0
M  V30 24 C -0.208196 3.013075 4.737831 0
M  V30 25 C 0.476944 -0.647941 -2.198060 0
M  V30 26 C 0.241965 -0.268161 -3.627169 0
M  V30 27 H -1.281423 -6.007470 -2.722477 0
M  V30 28 H -2.092367 -5.632883 -1.178500 0
M  V30 29 H -2.324059 -4.568416 -2.613051 0
M  V30 30 H -0.753267 -3.397077 -3.448746 0
M  V30 31 H 0.414679 -4.779456 -3.410260 0
M  V30 32 H 2.040562 -3.631855 -2.185898 0
M  V30 33 H 1.613435 -2.707376 -3.628022 0
M  V30 34 H 2.399242 -2.781101 0.988228 0
M  V30 35 H 1.792034 -3.945567 -0.185820 0
M  V30 36 H 0.703438 -3.373636 1.122177 0
M  V30 37 H 0.618714 -0.343441 1.033765 0
M  V30 38 H 0.201304 3.387435 -0.225287 0
M  V30 39 H -1.466205 2.783862 -0.119115 0
M  V30 40 H 0.656660 0.151312 3.365666 0
M  V30 41 H 1.044333 -0.449119 5.656731 0
M  V30 42 H 0.613510 1.784160 9.780857 0
M  V30 43 H -0.563550 4.026440 4.609120 0
M  V30 44 H 0.687516 0.726654 -3.834970 0
M  V30 45 H -0.818020 -0.258901 -3.884639 0
M  V30 46 H 0.742344 -0.989520 -4.298121 0
M  V30 END ATOM
M  V30 BEGIN BOND
M  V30 1 1 1 2
M  V30 2 1 2 3
M  V30 3 1 3 4
M  V30 4 1 4 5
M  V30 5 1 5 6
M  V30 6 1 6 7
M  V30 7 2 6 8
M  V30 8 1 8 9
M  V30 9 1 9 10
M  V30 10 2 10 11
M  V30 11 1 10 12
M  V30 12 1 12 13
M  V30 13 1 13 14
M  V30 14 2 14 15
M  V30 15 1 14 16
M  V30 16 2 16 17
M  V30 17 1 17 18
M  V30 18 2 18 19
M  V30 19 1 19 20
M  V30 20 2 20 21
M  V30 21 1 21 22
M  V30 22 1 22 23
M  V30 23 2 23 24
M  V30 24 2 9 25
M  V30 25 1 25 26
M  V30 26 1 25 5
M  V30 27 1 24 16
M  V30 28 1 23 19
M  V30 29 1 1 27
M  V30 30 1 1 28
M  V30 31 1 1 29
M  V30 32 1 3 30
M  V30 33 1 3 31
M  V30 34 1 4 32
M  V30 35 1 4 33
M  V30 36 1 7 34
M  V30 37 1 7 35
M  V30 38 1 7 36
M  V30 39 1 8 37
M  V30 40 1 12 38
M  V30 41 1 12 39
M  V30 42 1 17 40
M  V30 43 1 18 41
M  V30 44 1 21 42
M  V30 45 1 24 43
M  V30 46 1 26 44
M  V30 47 1 26 45
M  V30 48 1 26 46
M  V30 END BOND
M  V30 END CTAB
M  END
>  <Dataset>  (875) 
ChEMBL_Kinases

>  <Ligand_Instance>  (875) 
nan

>  <PDB_ID>  (875) 
nan

>  <Standardized_SMILES>  (875) 
COCCn1c(C)cc(C(=O)COC(=O)c2ccc3ncsc3c2)c1C

>  <Name>  (875) 
nan

>  <Pocket>  (875) 
nan

>  <ATP_Site>  (875) 
nan

>  <Peripheral>  (875) 
nan

>  <Num_H_Atoms_ProtBoundConf>  (875) 
nan

>  <Num_Resolved_Atoms>  (875) 
nan

>  <Num_Not_Resolved_Atoms>  (875) 
nan

$$$$
CHEMBL1327952
     RDKit          3D

  0  0  0  0  0  0  0  0  0  0999 V3000
M  V30 BEGIN CTAB
M  V30 COUNTS 36 37 0 0 0
M  V30 BEGIN ATOM
M  V30 1 C -1.027888 -4.317606 4.332655 0
M  V30 2 O 0.186173 -3.588066 4.394059 0
M  V30 3 C 0.930415 -3.336002 3.250409 0
M  V30 4 O 0.251368 -3.885400 2.360460 0
M  V30 5 C 2.159877 -2.568856 3.484207 0
M  V30 6 C 2.946171 -2.311332 2.222074 0
M  V30 7 C 2.082481 -1.540623 1.290731 0
M  V30 8 O 0.984593 -1.371907 1.890878 0
M  V30 9 N 2.504870 -1.122387 -0.002987 0
M  V30 10 C 1.477548 -0.399988 -0.683170 0
M  V30 11 S 0.199016 -1.161960 -1.774118 0
M  V30 12 C -0.565840 0.431327 -2.125000 0
M  V30 13 C 0.163675 1.368729 -1.428587 0
M  V30 14 C 1.216108 0.900489 -0.691841 0
M  V30 15 C 2.040866 1.831372 0.076577 0
M  V30 16 N 2.713639 2.580000 0.687136 0
M  V30 17 C -0.420353 2.715874 -1.678471 0
M  V30 18 C -1.861093 2.622718 -1.156357 0
M  V30 19 C -2.638949 1.800280 -2.158910 0
M  V30 20 C -1.740368 0.884180 -2.955624 0
M  V30 21 H -1.677409 -4.086024 5.208785 0
M  V30 22 H -0.875847 -5.411759 4.250471 0
M  V30 23 H -1.601664 -3.955210 3.450563 0
M  V30 24 H 2.793384 -3.196983 4.177059 0
M  V30 25 H 1.945484 -1.632605 4.024214 0
M  V30 26 H 3.301499 -3.272991 1.813408 0
M  V30 27 H 3.840475 -1.721159 2.495725 0
M  V30 28 H 3.470243 -1.375914 -0.299473 0
M  V30 29 H 0.143492 3.493396 -1.128967 0
M  V30 30 H -0.407356 2.891256 -2.767665 0
M  V30 31 H -1.796774 2.056989 -0.204616 0
M  V30 32 H -2.293233 3.604721 -0.970215 0
M  V30 33 H -3.197811 2.422243 -2.874598 0
M  V30 34 H -3.376792 1.168724 -1.608952 0
M  V30 35 H -1.307574 1.345393 -3.857142 0
M  V30 36 H -2.348758 0.012208 -3.247733 0
M  V30 END ATOM
M  V30 BEGIN BOND
M  V30 1 1 1 2
M  V30 2 1 2 3
M  V30 3 2 3 4
M  V30 4 1 3 5
M  V30 5 1 5 6
M  V30 6 1 6 7
M  V30 7 2 7 8
M  V30 8 1 7 9
M  V30 9 1 9 10
M  V30 10 1 10 11
M  V30 11 1 11 12
M  V30 12 2 12 13
M  V30 13 1 13 14
M  V30 14 1 14 15
M  V30 15 3 15 16
M  V30 16 1 13 17
M  V30 17 1 17 18
M  V30 18 1 18 19
M  V30 19 1 19 20
M  V30 20 2 14 10
M  V30 21 1 20 12
M  V30 22 1 1 21
M  V30 23 1 1 22
M  V30 24 1 1 23
M  V30 25 1 5 24
M  V30 26 1 5 25
M  V30 27 1 6 26
M  V30 28 1 6 27
M  V30 29 1 9 28
M  V30 30 1 17 29
M  V30 31 1 17 30
M  V30 32 1 18 31
M  V30 33 1 18 32
M  V30 34 1 19 33
M  V30 35 1 19 34
M  V30 36 1 20 35
M  V30 37 1 20 36
M  V30 END BOND
M  V30 END CTAB
M  END
>  <Dataset>  (876) 
ChEMBL_Kinases

>  <Ligand_Instance>  (876) 
nan

>  <PDB_ID>  (876) 
nan

>  <Standardized_SMILES>  (876) 
COC(=O)CCC(=O)Nc1sc2c(c1C#N)CCCC2

>  <Name>  (876) 
nan

>  <Pocket>  (876) 
nan

>  <ATP_Site>  (876) 
nan

>  <Peripheral>  (876) 
nan

>  <Num_H_Atoms_ProtBoundConf>  (876) 
nan

>  <Num_Resolved_Atoms>  (876) 
nan

>  <Num_Not_Resolved_Atoms>  (876) 
nan

$$$$
CHEMBL1327770
     RDKit          3D

  0  0  0  0  0  0  0  0  0  0999 V3000
M  V30 BEGIN CTAB
M  V30 COUNTS 28 29 0 0 0
M  V30 BEGIN ATOM
M  V30 1 O -0.695318 -3.570348 3.694108 0
M  V30 2 C 0.200802 -3.304946 2.846286 0
M  V30 3 C -0.449411 -2.860122 1.588831 0
M  V30 4 S 0.817909 -2.442084 0.366210 0
M  V30 5 C 1.733947 -0.998114 0.884230 0
M  V30 6 N 2.832113 -0.627370 1.600302 0
M  V30 7 C 2.945383 0.711735 1.583988 0
M  V30 8 C 1.895570 1.212227 0.840172 0
M  V30 9 N 1.175662 0.163110 0.426524 0
M  V30 10 C 0.033589 0.546105 -0.371802 0
M  V30 11 C 0.047200 0.126743 -1.683422 0
M  V30 12 C -1.030043 0.463156 -2.512115 0
M  V30 13 C -2.043607 1.207499 -1.929230 0
M  V30 14 C -2.050700 1.623911 -0.616129 0
M  V30 15 Cl -3.373629 2.564286 0.045059 0
M  V30 16 C -0.982164 1.287298 0.196625 0
M  V30 17 N 1.577538 -3.472627 3.233312 0
M  V30 18 O 1.694823 -3.905497 4.501481 0
M  V30 19 H -1.084997 -3.679579 1.195016 0
M  V30 20 H -1.075242 -1.973289 1.837661 0
M  V30 21 H 3.811385 1.085573 2.142768 0
M  V30 22 H 1.873692 2.287181 0.750817 0
M  V30 23 H 0.876841 -0.453619 -2.069718 0
M  V30 24 H -1.052064 0.150670 -3.547305 0
M  V30 25 H -2.880635 1.464068 -2.587475 0
M  V30 26 H -0.905287 1.571627 1.237117 0
M  V30 27 H 2.188800 -3.212054 2.409856 0
M  V30 28 H 2.123449 -3.218525 5.039445 0
M  V30 END ATOM
M  V30 BEGIN BOND
M  V30 1 2 1 2
M  V30 2 1 2 3
M  V30 3 1 3 4
M  V30 4 1 4 5
M  V30 5 2 5 6
M  V30 6 1 6 7
M  V30 7 2 7 8
M  V30 8 1 8 9
M  V30 9 1 9 10
M  V30 10 2 10 11
M  V30 11 1 11 12
M  V30 12 2 12 13
M  V30 13 1 13 14
M  V30 14 1 14 15
M  V30 15 2 14 16
M  V30 16 1 2 17
M  V30 17 1 17 18
M  V30 18 1 9 5
M  V30 19 1 16 10
M  V30 20 1 3 19
M  V30 21 1 3 20
M  V30 22 1 7 21
M  V30 23 1 8 22
M  V30 24 1 11 23
M  V30 25 1 12 24
M  V30 26 1 13 25
M  V30 27 1 16 26
M  V30 28 1 17 27
M  V30 29 1 18 28
M  V30 END BOND
M  V30 END CTAB
M  END
>  <Dataset>  (877) 
ChEMBL_Kinases

>  <Ligand_Instance>  (877) 
nan

>  <PDB_ID>  (877) 
nan

>  <Standardized_SMILES>  (877) 
O=C(CSc1nccn1-c1cccc(Cl)c1)NO

>  <Name>  (877) 
nan

>  <Pocket>  (877) 
nan

>  <ATP_Site>  (877) 
nan

>  <Peripheral>  (877) 
nan

>  <Num_H_Atoms_ProtBoundConf>  (877) 
nan

>  <Num_Resolved_Atoms>  (877) 
nan

>  <Num_Not_Resolved_Atoms>  (877) 
nan

$$$$
CHEMBL1327747
     RDKit          3D

  0  0  0  0  0  0  0  0  0  0999 V3000
M  V30 BEGIN CTAB
M  V30 COUNTS 50 52 0 0 0
M  V30 BEGIN ATOM
M  V30 1 C 0.399773 -6.644351 -1.820647 0
M  V30 2 C 1.782998 -6.020731 -1.942693 0
M  V30 3 C 2.247161 -5.708064 -0.566294 0
M  V30 4 O 2.743092 -6.675281 0.061498 0
M  V30 5 C 2.171037 -4.414807 0.078167 0
M  V30 6 C 2.656160 -4.314814 1.365562 0
M  V30 7 C 2.603002 -3.088446 2.029852 0
M  V30 8 C 2.071859 -1.960366 1.426032 0
M  V30 9 N 2.030530 -0.712142 2.146971 0
M  V30 10 C 2.656280 0.531260 1.753631 0
M  V30 11 C 1.718978 1.698591 1.884416 0
M  V30 12 N 0.376418 1.188640 2.064702 0
M  V30 13 C -0.738669 1.328579 1.193753 0
M  V30 14 O -1.853758 0.804459 1.520190 0
M  V30 15 C -0.388577 2.119830 -0.038390 0
M  V30 16 O -1.475533 2.300940 -0.890484 0
M  V30 17 C -2.613770 2.971344 -0.501399 0
M  V30 18 C -3.595139 3.043660 -1.482253 0
M  V30 19 C -4.790591 3.687768 -1.232016 0
M  V30 20 C -5.031988 4.272354 -0.000624 0
M  V30 21 F -6.165772 4.933502 0.370216 0
M  V30 22 C -4.072153 4.213584 0.989519 0
M  V30 23 C -2.898950 3.566378 0.704585 0
M  V30 24 C 0.228720 0.457716 3.314241 0
M  V30 25 C 1.305505 -0.607731 3.409109 0
M  V30 26 C 1.588880 -2.069780 0.137592 0
M  V30 27 F 1.065532 -1.010468 -0.494235 0
M  V30 28 C 1.643948 -3.285985 -0.515151 0
M  V30 29 H -0.123392 -6.288852 -0.901307 0
M  V30 30 H 0.443420 -7.745823 -1.745101 0
M  V30 31 H -0.261945 -6.324610 -2.656699 0
M  V30 32 H 2.498085 -6.722785 -2.417835 0
M  V30 33 H 1.687515 -5.086209 -2.498842 0
M  V30 34 H 3.089130 -5.132950 1.925133 0
M  V30 35 H 2.978028 -2.993964 3.036869 0
M  V30 36 H 2.993583 0.502557 0.686700 0
M  V30 37 H 3.555011 0.756303 2.364416 0
M  V30 38 H 1.778105 2.363242 0.995733 0
M  V30 39 H 1.947155 2.270084 2.826618 0
M  V30 40 H -0.036573 3.142009 0.279651 0
M  V30 41 H 0.437203 1.616617 -0.539184 0
M  V30 42 H -3.533434 2.625970 -2.493159 0
M  V30 43 H -5.600229 3.787142 -1.936470 0
M  V30 44 H -4.164923 4.634180 1.970460 0
M  V30 45 H -2.122373 3.503263 1.445986 0
M  V30 46 H 0.408710 1.176404 4.137468 0
M  V30 47 H -0.791901 0.057111 3.444524 0
M  V30 48 H 2.010913 -0.463252 4.233166 0
M  V30 49 H 0.784276 -1.573540 3.569335 0
M  V30 50 H 1.260181 -3.349972 -1.524048 0
M  V30 END ATOM
M  V30 BEGIN BOND
M  V30 1 1 1 2
M  V30 2 1 2 3
M  V30 3 2 3 4
M  V30 4 1 3 5
M  V30 5 2 5 6
M  V30 6 1 6 7
M  V30 7 2 7 8
M  V30 8 1 8 9
M  V30 9 1 9 10
M  V30 10 1 10 11
M  V30 11 1 11 12
M  V30 12 1 12 13
M  V30 13 2 13 14
M  V30 14 1 13 15
M  V30 15 1 15 16
M  V30 16 1 16 17
M  V30 17 2 17 18
M  V30 18 1 18 19
M  V30 19 2 19 20
M  V30 20 1 20 21
M  V30 21 1 20 22
M  V30 22 2 22 23
M  V30 23 1 12 24
M  V30 24 1 24 25
M  V30 25 1 8 26
M  V30 26 1 26 27
M  V30 27 2 26 28
M  V30 28 1 28 5
M  V30 29 1 25 9
M  V30 30 1 23 17
M  V30 31 1 1 29
M  V30 32 1 1 30
M  V30 33 1 1 31
M  V30 34 1 2 32
M  V30 35 1 2 33
M  V30 36 1 6 34
M  V30 37 1 7 35
M  V30 38 1 10 36
M  V30 39 1 10 37
M  V30 40 1 11 38
M  V30 41 1 11 39
M  V30 42 1 15 40
M  V30 43 1 15 41
M  V30 44 1 18 42
M  V30 45 1 19 43
M  V30 46 1 22 44
M  V30 47 1 23 45
M  V30 48 1 24 46
M  V30 49 1 24 47
M  V30 50 1 25 48
M  V30 51 1 25 49
M  V30 52 1 28 50
M  V30 END BOND
M  V30 END CTAB
M  END
>  <Dataset>  (878) 
ChEMBL_Kinases

>  <Ligand_Instance>  (878) 
nan

>  <PDB_ID>  (878) 
nan

>  <Standardized_SMILES>  (878) 
CCC(=O)c1ccc(N2CCN(C(=O)COc3ccc(F)cc3)CC2)c(F)c1

>  <Name>  (878) 
nan

>  <Pocket>  (878) 
nan

>  <ATP_Site>  (878) 
nan

>  <Peripheral>  (878) 
nan

>  <Num_H_Atoms_ProtBoundConf>  (878) 
nan

>  <Num_Resolved_Atoms>  (878) 
nan

>  <Num_Not_Resolved_Atoms>  (878) 
nan

$$$$
CHEMBL1327681
     RDKit          3D

  0  0  0  0  0  0  0  0  0  0999 V3000
M  V30 BEGIN CTAB
M  V30 COUNTS 42 45 0 0 0
M  V30 BEGIN ATOM
M  V30 1 N 4.040670 -6.944649 -1.607418 0
M  V30 2 C 3.806840 -5.823863 -1.265485 0
M  V30 3 C 3.515235 -4.476843 -0.829877 0
M  V30 4 C 4.524333 -3.776809 -0.243338 0
M  V30 5 C 4.281688 -2.472896 0.239606 0
M  V30 6 C 3.001502 -2.076504 0.040487 0
M  V30 7 C 1.959028 -2.728614 -0.534456 0
M  V30 8 C 0.643785 -2.171211 -0.613392 0
M  V30 9 N 0.344146 -1.047430 -0.207461 0
M  V30 10 C -0.401678 -0.050356 0.052921 0
M  V30 11 N -0.657834 1.222326 0.558028 0
M  V30 12 C -0.350415 2.461355 1.151300 0
M  V30 13 C 0.273804 2.430621 2.507056 0
M  V30 14 C -0.479615 2.428424 3.687584 0
M  V30 15 C 0.035000 2.390393 4.969566 0
M  V30 16 C 1.431908 2.352163 4.969236 0
M  V30 17 C 2.211308 2.352020 3.860646 0
M  V30 18 C 1.642032 2.392921 2.584616 0
M  V30 19 C -1.655035 -0.546347 -0.417379 0
M  V30 20 C -2.924861 0.050292 -0.445681 0
M  V30 21 C -4.096531 -0.460978 -0.915978 0
M  V30 22 C -4.013829 -1.730679 -1.427770 0
M  V30 23 C -2.861015 -2.464219 -1.482455 0
M  V30 24 C -1.700969 -1.847504 -0.970727 0
M  V30 25 N -0.563264 -2.503617 -1.005685 0
M  V30 26 C 2.206555 -4.027736 -1.016451 0
M  V30 27 H 5.518779 -4.182540 -0.123180 0
M  V30 28 H 5.019427 -1.851182 0.711477 0
M  V30 29 H 2.749856 -1.059029 0.396407 0
M  V30 30 H 0.401883 1.171386 0.665422 0
M  V30 31 H 0.171641 3.222785 0.549383 0
M  V30 32 H -1.358146 3.006548 1.368128 0
M  V30 33 H -1.532806 2.466037 3.477852 0
M  V30 34 H -0.595299 2.392878 5.828958 0
M  V30 35 H 1.877976 2.317026 5.967802 0
M  V30 36 H 3.288120 2.326819 3.857632 0
M  V30 37 H 2.253218 2.402573 1.705820 0
M  V30 38 H -2.895398 1.068231 -0.016211 0
M  V30 39 H -4.959094 0.170645 -0.842414 0
M  V30 40 H -4.920996 -2.169397 -1.805481 0
M  V30 41 H -2.760166 -3.463453 -1.874281 0
M  V30 42 H 1.393110 -4.542136 -1.473096 0
M  V30 END ATOM
M  V30 BEGIN BOND
M  V30 1 3 1 2
M  V30 2 1 2 3
M  V30 3 2 3 4
M  V30 4 1 4 5
M  V30 5 2 5 6
M  V30 6 1 6 7
M  V30 7 1 7 8
M  V30 8 2 8 9
M  V30 9 1 9 10
M  V30 10 1 10 11
M  V30 11 1 11 12
M  V30 12 1 12 13
M  V30 13 2 13 14
M  V30 14 1 14 15
M  V30 15 2 15 16
M  V30 16 1 16 17
M  V30 17 2 17 18
M  V30 18 2 10 19
M  V30 19 1 19 20
M  V30 20 2 20 21
M  V30 21 1 21 22
M  V30 22 2 22 23
M  V30 23 1 23 24
M  V30 24 2 24 25
M  V30 25 2 7 26
M  V30 26 1 26 3
M  V30 27 1 25 8
M  V30 28 1 18 13
M  V30 29 1 24 19
M  V30 30 1 4 27
M  V30 31 1 5 28
M  V30 32 1 6 29
M  V30 33 1 11 30
M  V30 34 1 12 31
M  V30 35 1 12 32
M  V30 36 1 14 33
M  V30 37 1 15 34
M  V30 38 1 16 35
M  V30 39 1 17 36
M  V30 40 1 18 37
M  V30 41 1 20 38
M  V30 42 1 21 39
M  V30 43 1 22 40
M  V30 44 1 23 41
M  V30 45 1 26 42
M  V30 END BOND
M  V30 END CTAB
M  END
>  <Dataset>  (879) 
ChEMBL_Kinases

>  <Ligand_Instance>  (879) 
nan

>  <PDB_ID>  (879) 
nan

>  <Standardized_SMILES>  (879) 
N#Cc1cccc(-c2nc(NCc3ccccc3)c3ccccc3n2)c1

>  <Name>  (879) 
nan

>  <Pocket>  (879) 
nan

>  <ATP_Site>  (879) 
nan

>  <Peripheral>  (879) 
nan

>  <Num_H_Atoms_ProtBoundConf>  (879) 
nan

>  <Num_Resolved_Atoms>  (879) 
nan

>  <Num_Not_Resolved_Atoms>  (879) 
nan

$$$$
CHEMBL132767
     RDKit          3D

  0  0  0  0  0  0  0  0  0  0999 V3000
M  V30 BEGIN CTAB
M  V30 COUNTS 30 31 0 0 0
M  V30 BEGIN ATOM
M  V30 1 C -0.875062 -3.393341 1.339586 0
M  V30 2 C -1.325245 -2.077271 0.813169 0
M  V30 3 N -0.704532 -0.916710 1.355987 0
M  V30 4 C -0.751747 -0.302386 2.658087 0
M  V30 5 C -0.072102 -1.074534 3.751640 0
M  V30 6 C 0.151051 -0.217909 0.426560 0
M  V30 7 C 1.168087 -0.985378 -0.106672 0
M  V30 8 C 2.040366 -0.419594 -1.011935 0
M  V30 9 C 3.142627 -1.224906 -1.603985 0
M  V30 10 N 1.883453 0.886676 -1.362723 0
M  V30 11 C 0.870598 1.619760 -0.820426 0
M  V30 12 N 0.497740 2.896477 -0.986934 0
M  V30 13 C -0.576401 3.102847 -0.201701 0
M  V30 14 N -0.879352 1.954645 0.458356 0
M  V30 15 N 0.018321 1.069334 0.062079 0
M  V30 16 H -1.504274 -3.797186 2.177418 0
M  V30 17 H 0.163253 -3.466593 1.661994 0
M  V30 18 H -0.971162 -4.175280 0.520495 0
M  V30 19 H -2.435580 -2.019749 1.029150 0
M  V30 20 H -1.302855 -2.054038 -0.313520 0
M  V30 21 H -0.295293 0.718233 2.684831 0
M  V30 22 H -1.831913 -0.136468 2.891753 0
M  V30 23 H 0.996170 -0.722726 3.896166 0
M  V30 24 H -0.652851 -0.862989 4.704883 0
M  V30 25 H -0.110367 -2.153908 3.618546 0
M  V30 26 H 1.331848 -2.029240 0.143006 0
M  V30 27 H 3.167666 -1.189058 -2.688825 0
M  V30 28 H 4.078944 -0.825577 -1.127270 0
M  V30 29 H 3.074020 -2.273991 -1.251987 0
M  V30 30 H -1.092533 4.053718 -0.134823 0
M  V30 END ATOM
M  V30 BEGIN BOND
M  V30 1 1 1 2
M  V30 2 1 2 3
M  V30 3 1 3 4
M  V30 4 1 4 5
M  V30 5 1 3 6
M  V30 6 2 6 7
M  V30 7 1 7 8
M  V30 8 1 8 9
M  V30 9 2 8 10
M  V30 10 1 10 11
M  V30 11 2 11 12
M  V30 12 1 12 13
M  V30 13 2 13 14
M  V30 14 1 14 15
M  V30 15 1 15 6
M  V30 16 1 15 11
M  V30 17 1 1 16
M  V30 18 1 1 17
M  V30 19 1 1 18
M  V30 20 1 2 19
M  V30 21 1 2 20
M  V30 22 1 4 21
M  V30 23 1 4 22
M  V30 24 1 5 23
M  V30 25 1 5 24
M  V30 26 1 5 25
M  V30 27 1 7 26
M  V30 28 1 9 27
M  V30 29 1 9 28
M  V30 30 1 9 29
M  V30 31 1 13 30
M  V30 END BOND
M  V30 END CTAB
M  END
>  <Dataset>  (880) 
ChEMBL_Kinases

>  <Ligand_Instance>  (880) 
nan

>  <PDB_ID>  (880) 
nan

>  <Standardized_SMILES>  (880) 
CCN(CC)c1cc(C)nc2ncnn12

>  <Name>  (880) 
TRAPIDIL

>  <Pocket>  (880) 
nan

>  <ATP_Site>  (880) 
nan

>  <Peripheral>  (880) 
nan

>  <Num_H_Atoms_ProtBoundConf>  (880) 
nan

>  <Num_Resolved_Atoms>  (880) 
nan

>  <Num_Not_Resolved_Atoms>  (880) 
nan

$$$$
CHEMBL1326308
     RDKit          3D

  0  0  0  0  0  0  0  0  0  0999 V3000
M  V30 BEGIN CTAB
M  V30 COUNTS 49 52 0 0 0
M  V30 BEGIN ATOM
M  V30 1 N -1.029644 -4.303547 6.655959 0
M  V30 2 C -0.696006 -3.626970 5.761881 0
M  V30 3 C -0.300405 -2.772770 4.642047 0
M  V30 4 S -1.576520 -2.870893 3.384863 0
M  V30 5 C -1.212072 -1.901236 1.930195 0
M  V30 6 N -0.078187 -1.188891 1.870732 0
M  V30 7 C 0.268206 -0.443853 0.807579 0
M  V30 8 C 1.448392 0.270583 0.779828 0
M  V30 9 C 1.696560 0.992447 -0.369447 0
M  V30 10 C 2.908822 1.783602 -0.539110 0
M  V30 11 O 4.106843 1.616820 -0.901642 0
M  V30 12 N 3.047724 3.174264 -0.291981 0
M  V30 13 C 4.255146 3.918466 -0.470361 0
M  V30 14 C 3.988232 5.208421 0.294836 0
M  V30 15 C 2.698313 4.969138 1.078195 0
M  V30 16 C 1.951132 4.007105 0.179559 0
M  V30 17 C 0.831150 1.019194 -1.449412 0
M  V30 18 C -0.344664 0.294017 -1.395449 0
M  V30 19 C -0.616170 -0.441747 -0.248045 0
M  V30 20 C -1.763070 -1.191580 -0.128696 0
M  V30 21 O -2.525081 -1.136181 -1.139711 0
M  V30 22 N -2.119641 -1.948962 0.943491 0
M  V30 23 C -3.357313 -2.702609 0.880705 0
M  V30 24 C -3.124875 -4.076922 0.399160 0
M  V30 25 C -3.176758 -5.131139 1.323899 0
M  V30 26 C -2.962296 -6.468968 1.066081 0
M  V30 27 C -2.665517 -6.777208 -0.260112 0
M  V30 28 C -2.596114 -5.809522 -1.224021 0
M  V30 29 C -2.828150 -4.504509 -0.855166 0
M  V30 30 H 0.700032 -3.102095 4.314011 0
M  V30 31 H -0.192777 -1.743308 5.066449 0
M  V30 32 H 2.129170 0.264271 1.596819 0
M  V30 33 H 5.148409 3.396865 -0.088829 0
M  V30 34 H 4.338673 4.178799 -1.542579 0
M  V30 35 H 4.808217 5.441880 0.989902 0
M  V30 36 H 3.791181 6.059753 -0.412830 0
M  V30 37 H 2.156594 5.912663 1.224470 0
M  V30 38 H 2.906414 4.416900 2.010981 0
M  V30 39 H 1.187591 3.417162 0.692464 0
M  V30 40 H 1.440826 4.546888 -0.653818 0
M  V30 41 H 1.017228 1.577553 -2.344801 0
M  V30 42 H -1.059259 0.282924 -2.222554 0
M  V30 43 H -4.071745 -2.161422 0.200735 0
M  V30 44 H -3.870928 -2.752505 1.856700 0
M  V30 45 H -3.418580 -4.921215 2.365825 0
M  V30 46 H -3.026661 -7.211040 1.859004 0
M  V30 47 H -2.488896 -7.808625 -0.511538 0
M  V30 48 H -2.362919 -6.087586 -2.240170 0
M  V30 49 H -2.767710 -3.771866 -1.640499 0
M  V30 END ATOM
M  V30 BEGIN BOND
M  V30 1 3 1 2
M  V30 2 1 2 3
M  V30 3 1 3 4
M  V30 4 1 4 5
M  V30 5 2 5 6
M  V30 6 1 6 7
M  V30 7 2 7 8
M  V30 8 1 8 9
M  V30 9 1 9 10
M  V30 10 2 10 11
M  V30 11 1 10 12
M  V30 12 1 12 13
M  V30 13 1 13 14
M  V30 14 1 14 15
M  V30 15 1 15 16
M  V30 16 2 9 17
M  V30 17 1 17 18
M  V30 18 2 18 19
M  V30 19 1 19 20
M  V30 20 2 20 21
M  V30 21 1 20 22
M  V30 22 1 22 23
M  V30 23 1 23 24
M  V30 24 2 24 25
M  V30 25 1 25 26
M  V30 26 2 26 27
M  V30 27 1 27 28
M  V30 28 2 28 29
M  V30 29 1 22 5
M  V30 30 1 29 24
M  V30 31 1 19 7
M  V30 32 1 16 12
M  V30 33 1 3 30
M  V30 34 1 3 31
M  V30 35 1 8 32
M  V30 36 1 13 33
M  V30 37 1 13 34
M  V30 38 1 14 35
M  V30 39 1 14 36
M  V30 40 1 15 37
M  V30 41 1 15 38
M  V30 42 1 16 39
M  V30 43 1 16 40
M  V30 44 1 17 41
M  V30 45 1 18 42
M  V30 46 1 23 43
M  V30 47 1 23 44
M  V30 48 1 25 45
M  V30 49 1 26 46
M  V30 50 1 27 47
M  V30 51 1 28 48
M  V30 52 1 29 49
M  V30 END BOND
M  V30 END CTAB
M  END
>  <Dataset>  (881) 
ChEMBL_Kinases

>  <Ligand_Instance>  (881) 
nan

>  <PDB_ID>  (881) 
nan

>  <Standardized_SMILES>  (881) 
N#CCSc1nc2cc(C(=O)N3CCCC3)ccc2c(=O)n1Cc1ccccc1

>  <Name>  (881) 
nan

>  <Pocket>  (881) 
nan

>  <ATP_Site>  (881) 
nan

>  <Peripheral>  (881) 
nan

>  <Num_H_Atoms_ProtBoundConf>  (881) 
nan

>  <Num_Resolved_Atoms>  (881) 
nan

>  <Num_Not_Resolved_Atoms>  (881) 
nan

$$$$
CHEMBL1326413
     RDKit          3D

  0  0  0  0  0  0  0  0  0  0999 V3000
M  V30 BEGIN CTAB
M  V30 COUNTS 60 63 0 0 0
M  V30 BEGIN ATOM
M  V30 1 C 0.885288 -3.776496 5.709214 0
M  V30 2 C 1.643241 -2.734953 4.935881 0
M  V30 3 C 1.576910 -2.433618 3.587224 0
M  V30 4 C 2.458717 -1.393978 3.308405 0
M  V30 5 N 2.743273 -0.779687 2.061771 0
M  V30 6 C 2.189866 -1.230207 0.831491 0
M  V30 7 O 1.411152 -2.214267 0.777157 0
M  V30 8 C 2.572901 -0.493315 -0.371688 0
M  V30 9 S 1.387250 0.659127 -1.025124 0
M  V30 10 C 1.012317 2.045206 0.004365 0
M  V30 11 N 1.814923 3.110290 -0.115265 0
M  V30 12 C 1.624250 4.228277 0.600849 0
M  V30 13 C 2.341676 5.383495 0.591032 0
M  V30 14 C 1.938235 6.448414 1.447896 0
M  V30 15 S 0.418269 5.727554 2.327155 0
M  V30 16 C 0.457474 4.122929 1.498575 0
M  V30 17 C -0.326238 3.023708 1.585773 0
M  V30 18 O -1.266872 3.143547 2.412272 0
M  V30 19 N -0.047742 1.956188 0.822346 0
M  V30 20 C -0.953450 0.830189 0.960892 0
M  V30 21 C -2.126501 0.928667 0.046704 0
M  V30 22 C -3.027476 -0.259148 0.201108 0
M  V30 23 C -2.426140 -1.547427 -0.154825 0
M  V30 24 O -1.266469 -1.598284 -0.631757 0
M  V30 25 N -3.105783 -2.777857 0.015069 0
M  V30 26 C -2.706406 -4.114407 -0.286875 0
M  V30 27 C -2.504030 -4.484734 -1.702721 0
M  V30 28 C -1.540085 -3.756756 -2.506460 0
M  V30 29 C -0.180651 -3.989104 -2.527016 0
M  V30 30 C 0.691716 -3.296710 -3.354707 0
M  V30 31 C 0.167590 -2.316196 -4.209562 0
M  V30 32 C -1.189283 -2.050425 -4.221563 0
M  V30 33 C -2.014855 -2.766860 -3.378676 0
M  V30 34 N 3.004899 -1.129828 4.507898 0
M  V30 35 O 2.528328 -1.906850 5.433811 0
M  V30 36 H 1.171228 -4.766409 5.260827 0
M  V30 37 H 1.282071 -3.809202 6.730131 0
M  V30 38 H -0.200842 -3.657439 5.646839 0
M  V30 39 H 0.934494 -2.950264 2.923517 0
M  V30 40 H 3.397379 0.048228 2.079420 0
M  V30 41 H 2.733517 -1.275471 -1.173524 0
M  V30 42 H 3.609196 -0.042610 -0.275919 0
M  V30 43 H 3.201987 5.538835 -0.032755 0
M  V30 44 H 2.463391 7.419810 1.502425 0
M  V30 45 H -1.354144 0.749438 1.993158 0
M  V30 46 H -0.391531 -0.089976 0.778020 0
M  V30 47 H -2.777547 1.821932 0.296803 0
M  V30 48 H -1.820746 0.976400 -1.027136 0
M  V30 49 H -3.464108 -0.274760 1.246051 0
M  V30 50 H -3.931755 -0.028614 -0.438443 0
M  V30 51 H -4.072897 -2.626637 0.441586 0
M  V30 52 H -1.764822 -4.359368 0.321950 0
M  V30 53 H -3.460186 -4.803986 0.204699 0
M  V30 54 H -2.299768 -5.600514 -1.736089 0
M  V30 55 H -3.531701 -4.436460 -2.198863 0
M  V30 56 H 0.223968 -4.751970 -1.861405 0
M  V30 57 H 1.757510 -3.459179 -3.388836 0
M  V30 58 H 0.760852 -1.707320 -4.905502 0
M  V30 59 H -1.629442 -1.287190 -4.882489 0
M  V30 60 H -3.065724 -2.528723 -3.420247 0
M  V30 END ATOM
M  V30 BEGIN BOND
M  V30 1 1 1 2
M  V30 2 2 2 3
M  V30 3 1 3 4
M  V30 4 1 4 5
M  V30 5 1 5 6
M  V30 6 2 6 7
M  V30 7 1 6 8
M  V30 8 1 8 9
M  V30 9 1 9 10
M  V30 10 2 10 11
M  V30 11 1 11 12
M  V30 12 1 12 13
M  V30 13 2 13 14
M  V30 14 1 14 15
M  V30 15 1 15 16
M  V30 16 1 16 17
M  V30 17 2 17 18
M  V30 18 1 17 19
M  V30 19 1 19 20
M  V30 20 1 20 21
M  V30 21 1 21 22
M  V30 22 1 22 23
M  V30 23 2 23 24
M  V30 24 1 23 25
M  V30 25 1 25 26
M  V30 26 1 26 27
M  V30 27 1 27 28
M  V30 28 2 28 29
M  V30 29 1 29 30
M  V30 30 2 30 31
M  V30 31 1 31 32
M  V30 32 2 32 33
M  V30 33 2 4 34
M  V30 34 1 34 35
M  V30 35 1 35 2
M  V30 36 1 19 10
M  V30 37 1 33 28
M  V30 38 2 16 12
M  V30 39 1 1 36
M  V30 40 1 1 37
M  V30 41 1 1 38
M  V30 42 1 3 39
M  V30 43 1 5 40
M  V30 44 1 8 41
M  V30 45 1 8 42
M  V30 46 1 13 43
M  V30 47 1 14 44
M  V30 48 1 20 45
M  V30 49 1 20 46
M  V30 50 1 21 47
M  V30 51 1 21 48
M  V30 52 1 22 49
M  V30 53 1 22 50
M  V30 54 1 25 51
M  V30 55 1 26 52
M  V30 56 1 26 53
M  V30 57 1 27 54
M  V30 58 1 27 55
M  V30 59 1 29 56
M  V30 60 1 30 57
M  V30 61 1 31 58
M  V30 62 1 32 59
M  V30 63 1 33 60
M  V30 END BOND
M  V30 END CTAB
M  END
>  <Dataset>  (882) 
ChEMBL_Kinases

>  <Ligand_Instance>  (882) 
nan

>  <PDB_ID>  (882) 
nan

>  <Standardized_SMILES>  (882) 
Cc1cc(NC(=O)CSc2nc3ccsc3c(=O)n2CCCC(=O)NCCc2ccccc2)no1

>  <Name>  (882) 
nan

>  <Pocket>  (882) 
nan

>  <ATP_Site>  (882) 
nan

>  <Peripheral>  (882) 
nan

>  <Num_H_Atoms_ProtBoundConf>  (882) 
nan

>  <Num_Resolved_Atoms>  (882) 
nan

>  <Num_Not_Resolved_Atoms>  (882) 
nan

$$$$
CHEMBL1326520
     RDKit          3D

  0  0  0  0  0  0  0  0  0  0999 V3000
M  V30 BEGIN CTAB
M  V30 COUNTS 52 55 0 0 0
M  V30 BEGIN ATOM
M  V30 1 C -2.475273 -4.666595 0.613936 0
M  V30 2 C -2.708711 -3.519542 -0.094946 0
M  V30 3 C -1.780894 -2.905245 -0.875925 0
M  V30 4 C -0.513220 -3.465171 -0.969687 0
M  V30 5 C 0.564641 -2.861456 -1.800512 0
M  V30 6 O 1.251783 -1.975995 -0.986519 0
M  V30 7 C 2.295987 -1.332951 -1.635265 0
M  V30 8 C 3.565969 -1.838549 -0.947838 0
M  V30 9 C 3.242564 -1.793422 0.542828 0
M  V30 10 C 2.635328 -0.432813 0.813496 0
M  V30 11 N 2.961256 0.488190 -0.236117 0
M  V30 12 C 2.866185 1.867828 0.112954 0
M  V30 13 C 1.520363 2.300537 0.547133 0
M  V30 14 N 0.934073 2.341075 1.757208 0
M  V30 15 C -0.316050 2.824390 1.599035 0
M  V30 16 C -1.370478 3.064215 2.623846 0
M  V30 17 C -2.244864 1.889715 2.836247 0
M  V30 18 C -3.389541 1.776732 2.054914 0
M  V30 19 C -4.307492 0.726474 2.142012 0
M  V30 20 C -4.036994 -0.250598 3.073129 0
M  V30 21 C -2.911988 -0.179371 3.870642 0
M  V30 22 C -2.029604 0.881918 3.748453 0
M  V30 23 N -0.480631 3.075585 0.284048 0
M  V30 24 O 0.624804 2.755815 -0.318539 0
M  V30 25 C 2.297572 0.158733 -1.482887 0
M  V30 26 C -0.277400 -4.635720 -0.245367 0
M  V30 27 C -1.234426 -5.256956 0.551570 0
M  V30 28 H -3.267849 -5.112324 1.226101 0
M  V30 29 H -3.712962 -3.095883 -0.006816 0
M  V30 30 H -1.964724 -1.989505 -1.442827 0
M  V30 31 H 1.207343 -3.700554 -2.127824 0
M  V30 32 H 0.061757 -2.382183 -2.666793 0
M  V30 33 H 2.411346 -1.630723 -2.696875 0
M  V30 34 H 4.370668 -1.063500 -1.072945 0
M  V30 35 H 3.884417 -2.822944 -1.299088 0
M  V30 36 H 2.444758 -2.546097 0.711221 0
M  V30 37 H 4.149613 -1.983802 1.149723 0
M  V30 38 H 3.087733 -0.051424 1.752925 0
M  V30 39 H 1.546008 -0.487023 0.973561 0
M  V30 40 H 3.241362 2.460104 -0.738001 0
M  V30 41 H 3.571178 2.045959 0.951656 0
M  V30 42 H -2.018499 3.918783 2.353845 0
M  V30 43 H -0.859561 3.313676 3.596825 0
M  V30 44 H -3.605986 2.553663 1.313502 0
M  V30 45 H -5.173271 0.739276 1.477979 0
M  V30 46 H -4.772447 -1.064286 3.122276 0
M  V30 47 H -2.730568 -0.963145 4.590667 0
M  V30 48 H -1.138929 0.958116 4.365126 0
M  V30 49 H 2.917843 0.573701 -2.304307 0
M  V30 50 H 1.293459 0.613799 -1.574798 0
M  V30 51 H 0.723758 -5.060401 -0.331603 0
M  V30 52 H -0.985068 -6.156651 1.082314 0
M  V30 END ATOM
M  V30 BEGIN BOND
M  V30 1 2 1 2
M  V30 2 1 2 3
M  V30 3 2 3 4
M  V30 4 1 4 5
M  V30 5 1 5 6
M  V30 6 1 6 7
M  V30 7 1 7 8
M  V30 8 1 8 9
M  V30 9 1 9 10
M  V30 10 1 10 11
M  V30 11 1 11 12
M  V30 12 1 12 13
M  V30 13 2 13 14
M  V30 14 1 14 15
M  V30 15 1 15 16
M  V30 16 1 16 17
M  V30 17 2 17 18
M  V30 18 1 18 19
M  V30 19 2 19 20
M  V30 20 1 20 21
M  V30 21 2 21 22
M  V30 22 2 15 23
M  V30 23 1 23 24
M  V30 24 1 11 25
M  V30 25 1 4 26
M  V30 26 2 26 27
M  V30 27 1 27 1
M  V30 28 1 25 7
M  V30 29 1 24 13
M  V30 30 1 22 17
M  V30 31 1 1 28
M  V30 32 1 2 29
M  V30 33 1 3 30
M  V30 34 1 5 31
M  V30 35 1 5 32
M  V30 36 1 7 33
M  V30 37 1 8 34
M  V30 38 1 8 35
M  V30 39 1 9 36
M  V30 40 1 9 37
M  V30 41 1 10 38
M  V30 42 1 10 39
M  V30 43 1 12 40
M  V30 44 1 12 41
M  V30 45 1 16 42
M  V30 46 1 16 43
M  V30 47 1 18 44
M  V30 48 1 19 45
M  V30 49 1 20 46
M  V30 50 1 21 47
M  V30 51 1 22 48
M  V30 52 1 25 49
M  V30 53 1 25 50
M  V30 54 1 26 51
M  V30 55 1 27 52
M  V30 END BOND
M  V30 END CTAB
M  END
>  <Dataset>  (883) 
ChEMBL_Kinases

>  <Ligand_Instance>  (883) 
nan

>  <PDB_ID>  (883) 
nan

>  <Standardized_SMILES>  (883) 
c1ccc(COC2CCCN(Cc3nc(Cc4ccccc4)no3)C2)cc1

>  <Name>  (883) 
nan

>  <Pocket>  (883) 
nan

>  <ATP_Site>  (883) 
nan

>  <Peripheral>  (883) 
nan

>  <Num_H_Atoms_ProtBoundConf>  (883) 
nan

>  <Num_Resolved_Atoms>  (883) 
nan

>  <Num_Not_Resolved_Atoms>  (883) 
nan

$$$$
CHEMBL1326606
     RDKit          3D

  0  0  0  0  0  0  0  0  0  0999 V3000
M  V30 BEGIN CTAB
M  V30 COUNTS 30 32 0 0 0
M  V30 BEGIN ATOM
M  V30 1 O 0.947575 -0.674492 1.977366 0
M  V30 2 C 1.333114 -2.001094 1.880233 0
M  V30 3 C 1.697203 -2.603790 3.052189 0
M  V30 4 C 2.084052 -3.931310 2.961718 0
M  V30 5 C 2.117365 -4.643838 1.791114 0
M  V30 6 C 1.752171 -4.045113 0.604312 0
M  V30 7 C 1.374301 -2.728748 0.730890 0
M  V30 8 C 0.987722 -2.090375 -0.516550 0
M  V30 9 N 0.589164 -1.181805 -1.315885 0
M  V30 10 C 0.280941 0.104734 -0.799055 0
M  V30 11 C 1.301158 1.060425 -0.738115 0
M  V30 12 C 1.002881 2.315941 -0.237035 0
M  V30 13 C -0.278176 2.609076 0.191226 0
M  V30 14 F -0.524746 3.842224 0.671476 0
M  V30 15 C -1.294056 1.658823 0.131007 0
M  V30 16 C -2.637183 1.672183 0.480644 0
M  V30 17 O -3.269166 2.785648 1.019449 0
M  V30 18 N -3.134622 0.453835 0.196588 0
M  V30 19 N -2.163748 -0.315438 -0.312934 0
M  V30 20 C -1.021075 0.387648 -0.368868 0
M  V30 21 H 0.022715 -0.379062 2.249376 0
M  V30 22 H 1.700346 -2.122327 4.008357 0
M  V30 23 H 2.376839 -4.429505 3.877887 0
M  V30 24 H 2.432475 -5.682581 1.800174 0
M  V30 25 H 1.771038 -4.582061 -0.318022 0
M  V30 26 H 0.972573 -2.544947 -1.497621 0
M  V30 27 H 2.287006 0.769968 -1.089632 0
M  V30 28 H 1.810985 3.053110 -0.195475 0
M  V30 29 H -3.175496 3.042316 1.984467 0
M  V30 30 H -4.140481 0.183412 0.363622 0
M  V30 END ATOM
M  V30 BEGIN BOND
M  V30 1 1 1 2
M  V30 2 2 2 3
M  V30 3 1 3 4
M  V30 4 2 4 5
M  V30 5 1 5 6
M  V30 6 2 6 7
M  V30 7 1 7 8
M  V30 8 2 8 9 CFG=2
M  V30 9 1 9 10
M  V30 10 2 10 11
M  V30 11 1 11 12
M  V30 12 2 12 13
M  V30 13 1 13 14
M  V30 14 1 13 15
M  V30 15 2 15 16
M  V30 16 1 16 17
M  V30 17 1 16 18
M  V30 18 1 18 19
M  V30 19 2 19 20
M  V30 20 1 7 2
M  V30 21 1 20 10
M  V30 22 1 20 15
M  V30 23 1 1 21
M  V30 24 1 3 22
M  V30 25 1 4 23
M  V30 26 1 5 24
M  V30 27 1 6 25
M  V30 28 1 8 26
M  V30 29 1 11 27
M  V30 30 1 12 28
M  V30 31 1 17 29
M  V30 32 1 18 30
M  V30 END BOND
M  V30 END CTAB
M  END
>  <Dataset>  (884) 
ChEMBL_Kinases

>  <Ligand_Instance>  (884) 
nan

>  <PDB_ID>  (884) 
nan

>  <Standardized_SMILES>  (884) 
Oc1ccccc1C=Nc1ccc(F)c2c(O)[nH]nc12

>  <Name>  (884) 
nan

>  <Pocket>  (884) 
nan

>  <ATP_Site>  (884) 
nan

>  <Peripheral>  (884) 
nan

>  <Num_H_Atoms_ProtBoundConf>  (884) 
nan

>  <Num_Resolved_Atoms>  (884) 
nan

>  <Num_Not_Resolved_Atoms>  (884) 
nan

$$$$
CHEMBL1326618
     RDKit          3D

  0  0  0  0  0  0  0  0  0  0999 V3000
M  V30 BEGIN CTAB
M  V30 COUNTS 40 42 0 0 0
M  V30 BEGIN ATOM
M  V30 1 O 0.988583 -2.001281 2.338967 0
M  V30 2 S 0.474315 -0.576665 2.267737 0
M  V30 3 O 0.643072 0.126043 3.578853 0
M  V30 4 N -1.219231 -0.693961 1.933494 0
M  V30 5 C -1.372095 -1.437551 0.681781 0
M  V30 6 C -2.821414 -1.568622 0.344611 0
M  V30 7 O -3.036917 -2.261646 -0.828594 0
M  V30 8 C -2.753368 -3.534345 -1.192757 0
M  V30 9 C -3.189770 -3.680779 -2.520814 0
M  V30 10 C -3.047470 -4.891723 -3.214451 0
M  V30 11 C -2.463629 -5.952334 -2.562420 0
M  V30 12 F -2.284208 -7.158713 -3.150723 0
M  V30 13 C -2.023910 -5.850446 -1.264397 0
M  V30 14 C -2.183371 -4.649819 -0.626334 0
M  V30 15 C 1.201858 0.308404 0.949179 0
M  V30 16 C 1.686156 -0.361406 -0.177445 0
M  V30 17 C 2.258509 0.380905 -1.205754 0
M  V30 18 C 2.345640 1.760163 -1.112251 0
M  V30 19 C 1.859208 2.391711 0.011545 0
M  V30 20 C 1.278407 1.693687 1.065974 0
M  V30 21 O 2.004681 3.756992 -0.015351 0
M  V30 22 C 1.692997 4.523481 -1.156377 0
M  V30 23 C 2.166272 3.801964 -2.379314 0
M  V30 24 O 2.874069 2.642477 -2.022092 0
M  V30 25 H -1.653267 0.252452 1.849479 0
M  V30 26 H -0.892298 -2.403435 0.755944 0
M  V30 27 H -0.881769 -0.895833 -0.158636 0
M  V30 28 H -3.310085 -0.548160 0.326341 0
M  V30 29 H -3.341915 -2.129050 1.176997 0
M  V30 30 H -3.671788 -2.961146 -3.198757 0
M  V30 31 H -3.344031 -5.105053 -4.218844 0
M  V30 32 H -1.559042 -6.619331 -0.677511 0
M  V30 33 H -1.887670 -4.460115 0.388987 0
M  V30 34 H 1.626632 -1.433260 -0.267085 0
M  V30 35 H 2.660049 -0.082754 -2.118057 0
M  V30 36 H 0.905823 2.223097 1.937769 0
M  V30 37 H 2.210567 5.508446 -1.045805 0
M  V30 38 H 0.593229 4.722687 -1.207434 0
M  V30 39 H 2.780733 4.454151 -3.046772 0
M  V30 40 H 1.254383 3.530667 -2.981698 0
M  V30 END ATOM
M  V30 BEGIN BOND
M  V30 1 2 1 2
M  V30 2 2 2 3
M  V30 3 1 2 4
M  V30 4 1 4 5
M  V30 5 1 5 6
M  V30 6 1 6 7
M  V30 7 1 7 8
M  V30 8 2 8 9
M  V30 9 1 9 10
M  V30 10 2 10 11
M  V30 11 1 11 12
M  V30 12 1 11 13
M  V30 13 2 13 14
M  V30 14 1 2 15
M  V30 15 2 15 16
M  V30 16 1 16 17
M  V30 17 2 17 18
M  V30 18 1 18 19
M  V30 19 2 19 20
M  V30 20 1 19 21
M  V30 21 1 21 22
M  V30 22 1 22 23
M  V30 23 1 23 24
M  V30 24 1 14 8
M  V30 25 1 20 15
M  V30 26 1 24 18
M  V30 27 1 4 25
M  V30 28 1 5 26
M  V30 29 1 5 27
M  V30 30 1 6 28
M  V30 31 1 6 29
M  V30 32 1 9 30
M  V30 33 1 10 31
M  V30 34 1 13 32
M  V30 35 1 14 33
M  V30 36 1 16 34
M  V30 37 1 17 35
M  V30 38 1 20 36
M  V30 39 1 22 37
M  V30 40 1 22 38
M  V30 41 1 23 39
M  V30 42 1 23 40
M  V30 END BOND
M  V30 END CTAB
M  END
>  <Dataset>  (885) 
ChEMBL_Kinases

>  <Ligand_Instance>  (885) 
nan

>  <PDB_ID>  (885) 
nan

>  <Standardized_SMILES>  (885) 
O=S(=O)(NCCOc1ccc(F)cc1)c1ccc2c(c1)OCCO2

>  <Name>  (885) 
nan

>  <Pocket>  (885) 
nan

>  <ATP_Site>  (885) 
nan

>  <Peripheral>  (885) 
nan

>  <Num_H_Atoms_ProtBoundConf>  (885) 
nan

>  <Num_Resolved_Atoms>  (885) 
nan

>  <Num_Not_Resolved_Atoms>  (885) 
nan

$$$$
CHEMBL1326664
     RDKit          3D

  0  0  0  0  0  0  0  0  0  0999 V3000
M  V30 BEGIN CTAB
M  V30 COUNTS 52 55 0 0 0
M  V30 BEGIN ATOM
M  V30 1 C 4.179502 -3.394046 6.740891 0
M  V30 2 O 3.700154 -4.006359 5.578169 0
M  V30 3 C 3.796748 -3.301495 4.386624 0
M  V30 4 C 4.339448 -2.036813 4.301519 0
M  V30 5 C 4.453671 -1.303865 3.138979 0
M  V30 6 C 3.988725 -1.882798 1.974534 0
M  V30 7 C 4.048617 -1.208991 0.651667 0
M  V30 8 C 2.802752 -0.407656 0.412347 0
M  V30 9 O 2.564409 -0.880724 1.540194 0
M  V30 10 N 2.631736 0.325004 -0.787227 0
M  V30 11 C 1.361339 1.009702 -0.783463 0
M  V30 12 C 1.424277 2.282376 -0.239857 0
M  V30 13 C 0.278358 3.075030 -0.163598 0
M  V30 14 C -0.903400 2.526756 -0.653381 0
M  V30 15 C -0.957359 1.258693 -1.193097 0
M  V30 16 C -2.217345 0.721572 -1.695751 0
M  V30 17 N -2.433950 -0.469348 -2.240258 0
M  V30 18 N -3.723785 -0.495520 -2.536483 0
M  V30 19 C -4.319416 0.665842 -2.183957 0
M  V30 20 C -5.722946 1.032541 -2.341477 0
M  V30 21 C -6.115807 2.282302 -1.906952 0
M  V30 22 C -7.447322 2.604910 -2.066871 0
M  V30 23 C -8.374063 1.727649 -2.637845 0
M  V30 24 C -7.921530 0.472357 -3.061460 0
M  V30 25 C -6.586160 0.118658 -2.913676 0
M  V30 26 O -3.356865 1.386001 -1.670769 0
M  V30 27 C 0.177302 0.487153 -1.263039 0
M  V30 28 C 3.437673 -3.150917 2.021698 0
M  V30 29 C 3.335893 -3.864858 3.206863 0
M  V30 30 O 2.794032 -5.124123 3.283243 0
M  V30 31 C 2.275758 -5.859043 2.204901 0
M  V30 32 H 3.923370 -3.969613 7.663763 0
M  V30 33 H 3.825398 -2.333292 6.847513 0
M  V30 34 H 5.289543 -3.335589 6.727787 0
M  V30 35 H 4.713931 -1.549290 5.187127 0
M  V30 36 H 4.881087 -0.323748 3.111285 0
M  V30 37 H 4.891914 -0.481163 0.686154 0
M  V30 38 H 4.222775 -1.918415 -0.180734 0
M  V30 39 H 3.424992 0.256595 -1.462520 0
M  V30 40 H 2.336338 2.735409 0.150543 0
M  V30 41 H 0.336490 4.063903 0.260894 0
M  V30 42 H -1.819009 3.097435 -0.618596 0
M  V30 43 H -5.461062 3.005749 -1.460325 0
M  V30 44 H -7.886092 3.563348 -1.764127 0
M  V30 45 H -9.424228 1.994189 -2.758855 0
M  V30 46 H -8.639215 -0.209245 -3.504586 0
M  V30 47 H -6.259257 -0.850399 -3.245667 0
M  V30 48 H 0.216217 -0.506630 -1.667954 0
M  V30 49 H 3.068536 -3.614912 1.108104 0
M  V30 50 H 1.427755 -6.486522 2.603194 0
M  V30 51 H 1.766274 -5.135376 1.518213 0
M  V30 52 H 3.018138 -6.488965 1.680008 0
M  V30 END ATOM
M  V30 BEGIN BOND
M  V30 1 1 1 2
M  V30 2 1 2 3
M  V30 3 2 3 4
M  V30 4 1 4 5
M  V30 5 2 5 6
M  V30 6 1 6 7
M  V30 7 1 7 8
M  V30 8 2 8 9
M  V30 9 1 8 10
M  V30 10 1 10 11
M  V30 11 2 11 12
M  V30 12 1 12 13
M  V30 13 2 13 14
M  V30 14 1 14 15
M  V30 15 1 15 16
M  V30 16 2 16 17
M  V30 17 1 17 18
M  V30 18 2 18 19
M  V30 19 1 19 20
M  V30 20 2 20 21
M  V30 21 1 21 22
M  V30 22 2 22 23
M  V30 23 1 23 24
M  V30 24 2 24 25
M  V30 25 1 19 26
M  V30 26 2 15 27
M  V30 27 1 6 28
M  V30 28 2 28 29
M  V30 29 1 29 30
M  V30 30 1 30 31
M  V30 31 1 29 3
M  V30 32 1 27 11
M  V30 33 1 26 16
M  V30 34 1 25 20
M  V30 35 1 1 32
M  V30 36 1 1 33
M  V30 37 1 1 34
M  V30 38 1 4 35
M  V30 39 1 5 36
M  V30 40 1 7 37
M  V30 41 1 7 38
M  V30 42 1 10 39
M  V30 43 1 12 40
M  V30 44 1 13 41
M  V30 45 1 14 42
M  V30 46 1 21 43
M  V30 47 1 22 44
M  V30 48 1 23 45
M  V30 49 1 24 46
M  V30 50 1 25 47
M  V30 51 1 27 48
M  V30 52 1 28 49
M  V30 53 1 31 50
M  V30 54 1 31 51
M  V30 55 1 31 52
M  V30 END BOND
M  V30 END CTAB
M  END
>  <Dataset>  (886) 
ChEMBL_Kinases

>  <Ligand_Instance>  (886) 
nan

>  <PDB_ID>  (886) 
nan

>  <Standardized_SMILES>  (886) 
COc1ccc(CC(=O)Nc2cccc(-c3nnc(-c4ccccc4)o3)c2)cc1OC

>  <Name>  (886) 
nan

>  <Pocket>  (886) 
nan

>  <ATP_Site>  (886) 
nan

>  <Peripheral>  (886) 
nan

>  <Num_H_Atoms_ProtBoundConf>  (886) 
nan

>  <Num_Resolved_Atoms>  (886) 
nan

>  <Num_Not_Resolved_Atoms>  (886) 
nan

$$$$
CHEMBL1326670
     RDKit          3D

  0  0  0  0  0  0  0  0  0  0999 V3000
M  V30 BEGIN CTAB
M  V30 COUNTS 35 37 0 0 0
M  V30 BEGIN ATOM
M  V30 1 C -0.675445 -3.538759 4.141036 0
M  V30 2 S 0.086501 -1.886480 4.371200 0
M  V30 3 C 0.166471 -1.164036 2.736776 0
M  V30 4 N 1.252221 -1.351338 1.935191 0
M  V30 5 C 1.334031 -0.821946 0.711830 0
M  V30 6 C 2.537234 -1.076954 -0.075074 0
M  V30 7 C 3.525189 -1.854200 0.493941 0
M  V30 8 C 4.652259 -2.078933 -0.273486 0
M  V30 9 C 4.852837 -1.582167 -1.558729 0
M  V30 10 C 3.838639 -0.798678 -2.112061 0
M  V30 11 C 2.720545 -0.576968 -1.348056 0
M  V30 12 O 1.703210 0.212981 -1.911738 0
M  V30 13 N 0.312363 -0.078033 0.251433 0
M  V30 14 C -0.794237 0.135298 1.020416 0
M  V30 15 C -1.884067 0.946819 0.490881 0
M  V30 16 C -1.800885 1.493951 -0.772238 0
M  V30 17 C -2.860803 2.261213 -1.240082 0
M  V30 18 C -3.964190 2.450893 -0.423588 0
M  V30 19 C -4.078156 1.914827 0.849974 0
M  V30 20 C -2.997030 1.154328 1.279800 0
M  V30 21 O -3.107811 0.617359 2.551734 0
M  V30 22 N -0.847071 -0.402978 2.230710 0
M  V30 23 H -1.469120 -3.448820 3.342892 0
M  V30 24 H -1.107179 -3.918711 5.068546 0
M  V30 25 H 0.106848 -4.184800 3.695956 0
M  V30 26 H 3.438226 -2.273403 1.487354 0
M  V30 27 H 5.442267 -2.688763 0.156533 0
M  V30 28 H 5.749527 -1.786162 -2.115375 0
M  V30 29 H 3.964920 -0.398662 -3.107961 0
M  V30 30 H 0.884296 -0.298734 -2.219024 0
M  V30 31 H -0.909187 1.305131 -1.355998 0
M  V30 32 H -2.814382 2.699475 -2.229457 0
M  V30 33 H -4.772805 3.052226 -0.814680 0
M  V30 34 H -4.943832 2.069351 1.478350 0
M  V30 35 H -3.647217 1.024219 3.292288 0
M  V30 END ATOM
M  V30 BEGIN BOND
M  V30 1 1 1 2
M  V30 2 1 2 3
M  V30 3 2 3 4
M  V30 4 1 4 5
M  V30 5 1 5 6
M  V30 6 2 6 7
M  V30 7 1 7 8
M  V30 8 2 8 9
M  V30 9 1 9 10
M  V30 10 2 10 11
M  V30 11 1 11 12
M  V30 12 2 5 13
M  V30 13 1 13 14
M  V30 14 1 14 15
M  V30 15 2 15 16
M  V30 16 1 16 17
M  V30 17 2 17 18
M  V30 18 1 18 19
M  V30 19 2 19 20
M  V30 20 1 20 21
M  V30 21 2 14 22
M  V30 22 1 22 3
M  V30 23 1 11 6
M  V30 24 1 20 15
M  V30 25 1 1 23
M  V30 26 1 1 24
M  V30 27 1 1 25
M  V30 28 1 7 26
M  V30 29 1 8 27
M  V30 30 1 9 28
M  V30 31 1 10 29
M  V30 32 1 12 30
M  V30 33 1 16 31
M  V30 34 1 17 32
M  V30 35 1 18 33
M  V30 36 1 19 34
M  V30 37 1 21 35
M  V30 END BOND
M  V30 END CTAB
M  END
>  <Dataset>  (887) 
ChEMBL_Kinases

>  <Ligand_Instance>  (887) 
nan

>  <PDB_ID>  (887) 
nan

>  <Standardized_SMILES>  (887) 
CSc1nc(-c2ccccc2O)nc(-c2ccccc2O)n1

>  <Name>  (887) 
nan

>  <Pocket>  (887) 
nan

>  <ATP_Site>  (887) 
nan

>  <Peripheral>  (887) 
nan

>  <Num_H_Atoms_ProtBoundConf>  (887) 
nan

>  <Num_Resolved_Atoms>  (887) 
nan

>  <Num_Not_Resolved_Atoms>  (887) 
nan

$$$$
CHEMBL1326775
     RDKit          3D

  0  0  0  0  0  0  0  0  0  0999 V3000
M  V30 BEGIN CTAB
M  V30 COUNTS 45 47 0 0 0
M  V30 BEGIN ATOM
M  V30 1 C 0.061242 -4.806571 2.262189 0
M  V30 2 N 0.931874 -3.663849 2.045163 0
M  V30 3 C 2.240895 -3.970305 2.547456 0
M  V30 4 C 0.919582 -3.277998 0.645911 0
M  V30 5 C 1.835377 -2.088166 0.460185 0
M  V30 6 C 1.872083 -1.630538 -0.977726 0
M  V30 7 N 0.584776 -1.229128 -1.491985 0
M  V30 8 C -0.108981 -0.148076 -0.884786 0
M  V30 9 N 0.435845 0.496258 0.161595 0
M  V30 10 C -0.112001 1.515938 0.808252 0
M  V30 11 C 0.559127 2.152115 1.936798 0
M  V30 12 C 0.005341 3.203845 2.611789 0
M  V30 13 C 0.668761 3.791777 3.685694 0
M  V30 14 C 1.900106 3.322259 4.088898 0
M  V30 15 C 2.446775 2.255288 3.393284 0
M  V30 16 C 1.790181 1.672323 2.329329 0
M  V30 17 N -1.320266 1.952730 0.388389 0
M  V30 18 C -1.962190 1.394543 -0.639725 0
M  V30 19 C -3.201229 1.803996 -1.109487 0
M  V30 20 C -3.844470 1.206671 -2.178428 0
M  V30 21 C -3.196273 0.160321 -2.780421 0
M  V30 22 C -1.970589 -0.260361 -2.331665 0
M  V30 23 C -1.340298 0.338423 -1.270505 0
M  V30 24 H -0.991899 -4.457398 2.410179 0
M  V30 25 H 0.321364 -5.393712 3.145572 0
M  V30 26 H 0.087562 -5.465235 1.360528 0
M  V30 27 H 2.996596 -4.198656 1.783427 0
M  V30 28 H 2.211172 -4.807645 3.293197 0
M  V30 29 H 2.592532 -3.083330 3.143590 0
M  V30 30 H 1.200377 -4.098296 -0.037559 0
M  V30 31 H -0.123325 -2.975415 0.411423 0
M  V30 32 H 1.565989 -1.320545 1.184364 0
M  V30 33 H 2.867612 -2.482768 0.687024 0
M  V30 34 H 2.378145 -2.372603 -1.600089 0
M  V30 35 H 2.498583 -0.690540 -1.001382 0
M  V30 36 H 0.249712 -1.787627 -2.303368 0
M  V30 37 H -0.964025 3.606387 2.327882 0
M  V30 38 H 0.282349 4.628233 4.261187 0
M  V30 39 H 2.450124 3.760040 4.928629 0
M  V30 40 H 3.419567 1.906246 3.734126 0
M  V30 41 H 2.312839 0.855084 1.870912 0
M  V30 42 H -3.672426 2.636256 -0.598922 0
M  V30 43 H -4.809405 1.562478 -2.506628 0
M  V30 44 H -3.702912 -0.303913 -3.616020 0
M  V30 45 H -1.537364 -1.081535 -2.858128 0
M  V30 END ATOM
M  V30 BEGIN BOND
M  V30 1 1 1 2
M  V30 2 1 2 3
M  V30 3 1 2 4
M  V30 4 1 4 5
M  V30 5 1 5 6
M  V30 6 1 6 7
M  V30 7 1 7 8
M  V30 8 2 8 9
M  V30 9 1 9 10
M  V30 10 1 10 11
M  V30 11 2 11 12
M  V30 12 1 12 13
M  V30 13 2 13 14
M  V30 14 1 14 15
M  V30 15 2 15 16
M  V30 16 2 10 17
M  V30 17 1 17 18
M  V30 18 2 18 19
M  V30 19 1 19 20
M  V30 20 2 20 21
M  V30 21 1 21 22
M  V30 22 2 22 23
M  V30 23 1 23 8
M  V30 24 1 16 11
M  V30 25 1 23 18
M  V30 26 1 1 24
M  V30 27 1 1 25
M  V30 28 1 1 26
M  V30 29 1 3 27
M  V30 30 1 3 28
M  V30 31 1 3 29
M  V30 32 1 4 30
M  V30 33 1 4 31
M  V30 34 1 5 32
M  V30 35 1 5 33
M  V30 36 1 6 34
M  V30 37 1 6 35
M  V30 38 1 7 36
M  V30 39 1 12 37
M  V30 40 1 13 38
M  V30 41 1 14 39
M  V30 42 1 15 40
M  V30 43 1 16 41
M  V30 44 1 19 42
M  V30 45 1 20 43
M  V30 46 1 21 44
M  V30 47 1 22 45
M  V30 END BOND
M  V30 END CTAB
M  END
>  <Dataset>  (888) 
ChEMBL_Kinases

>  <Ligand_Instance>  (888) 
nan

>  <PDB_ID>  (888) 
nan

>  <Standardized_SMILES>  (888) 
CN(C)CCCNc1nc(-c2ccccc2)nc2ccccc12

>  <Name>  (888) 
nan

>  <Pocket>  (888) 
nan

>  <ATP_Site>  (888) 
nan

>  <Peripheral>  (888) 
nan

>  <Num_H_Atoms_ProtBoundConf>  (888) 
nan

>  <Num_Resolved_Atoms>  (888) 
nan

>  <Num_Not_Resolved_Atoms>  (888) 
nan

$$$$
CHEMBL1327624
     RDKit          3D

  0  0  0  0  0  0  0  0  0  0999 V3000
M  V30 BEGIN CTAB
M  V30 COUNTS 108 113 0 0 0
M  V30 BEGIN ATOM
M  V30 1 C 3.901697 1.141688 -4.136318 0
M  V30 2 O 3.393783 0.574620 -2.984197 0
M  V30 3 C 4.380411 0.295233 -2.105556 0
M  V30 4 C 4.714184 -1.224118 -2.238116 0
M  V30 5 C 3.817143 -1.891329 -2.927019 0
M  V30 6 O 2.707307 -2.260594 -3.678269 0
M  V30 7 C 1.452349 -1.936920 -3.245457 0 CFG=1
M  V30 8 C 1.503216 -1.524601 -1.761011 0
M  V30 9 O 0.783961 -0.939833 -4.076277 0
M  V30 10 C -0.272174 -0.555496 -3.202665 0
M  V30 11 C -0.852103 0.688965 -2.917155 0
M  V30 12 C -0.411024 1.911779 -3.626226 0
M  V30 13 C -1.838878 0.608375 -1.957642 0
M  V30 14 O -2.454414 1.783193 -1.617886 0
M  V30 15 C -2.115571 -0.621168 -1.425685 0
M  V30 16 C -2.984926 -0.677503 -0.321428 0
M  V30 17 O -3.636870 0.449098 0.118345 0
M  V30 18 C -3.187303 -1.870887 0.331694 0
M  V30 19 C -2.646273 -3.090654 0.039581 0
M  V30 20 C -1.803358 -3.010942 -1.038725 0
M  V30 21 N -1.342419 -4.243849 -1.242693 0
M  V30 22 C -1.852174 -5.105078 -0.347643 0
M  V30 23 C -1.738847 -6.455502 -0.090719 0
M  V30 24 C -2.437098 -7.033821 0.950738 0
M  V30 25 C -2.356600 -8.494046 1.267224 0
M  V30 26 C -3.272128 -6.263790 1.767447 0
M  V30 27 C -3.314410 -4.927842 1.426361 0
M  V30 28 N -2.649814 -4.357472 0.425655 0
M  V30 29 C -1.559798 -1.849424 -1.706620 0
M  V30 30 C -0.550185 -1.834713 -2.683366 0
M  V30 31 C 0.332994 -2.895590 -3.270335 0
M  V30 32 O -0.046102 -4.055690 -3.557584 0
M  V30 33 N -3.830471 -1.722741 1.576125 0
M  V30 34 C -4.525797 -1.588529 2.847090 0
M  V30 35 O -5.478414 -2.194457 2.430066 0
M  V30 36 C -4.069912 -0.921976 4.040664 0
M  V30 37 C -4.929894 -1.278201 5.163524 0
M  V30 38 C -3.111982 -0.125961 4.302321 0
M  V30 39 C -2.176049 0.393950 3.415920 0
M  V30 40 C -1.184585 1.008720 2.871289 0
M  V30 41 C -0.477168 1.649159 3.973826 0
M  V30 42 C -0.802996 3.076311 4.212885 0
M  V30 43 C 1.014795 1.306775 3.865636 0
M  V30 44 O 1.543402 1.665428 5.117580 0
M  V30 45 C 1.712735 2.213601 2.896587 0 CFG=1
M  V30 46 C 2.180038 3.512125 3.411066 0
M  V30 47 C 2.639490 1.487279 1.985943 0
M  V30 48 O 3.578025 0.781957 2.794099 0
M  V30 49 C 3.363612 2.342999 1.010445 0
M  V30 50 C 4.470626 3.210306 1.524800 0
M  V30 51 C 3.643731 1.891549 -0.374637 0 CFG=1
M  V30 52 O 4.440313 2.908186 -0.960711 0
M  V30 53 C 3.953719 3.821701 -1.861907 0
M  V30 54 C 4.651860 4.941298 -2.550757 0
M  V30 55 O 2.753961 3.739209 -2.173710 0
M  V30 56 C 4.163823 0.562349 -0.648418 0
M  V30 57 C 5.502870 0.325361 0.100754 0
M  V30 58 H 4.611648 0.389031 -4.598248 0
M  V30 59 H 3.103516 1.369206 -4.880503 0
M  V30 60 H 4.508903 2.013866 -3.900599 0
M  V30 61 H 5.319481 0.707138 -2.476507 0
M  V30 62 H 5.512886 -1.853489 -1.892547 0
M  V30 63 H 3.891160 -2.965032 -3.122069 0
M  V30 64 H 1.319537 -0.470177 -1.688457 0
M  V30 65 H 0.794682 -2.062374 -1.133022 0
M  V30 66 H 2.512154 -1.856560 -1.362378 0
M  V30 67 H -1.364889 2.457442 -3.885453 0
M  V30 68 H 0.180101 2.590506 -3.001172 0
M  V30 69 H 0.024559 1.653093 -4.611727 0
M  V30 70 H -2.600756 2.546516 -2.267168 0
M  V30 71 H -3.257365 1.282959 0.496193 0
M  V30 72 H -1.085061 -7.077602 -0.727842 0
M  V30 73 H -1.618460 -9.038348 0.684056 0
M  V30 74 H -2.135347 -8.584718 2.347415 0
M  V30 75 H -3.391123 -8.922527 1.165354 0
M  V30 76 H -3.831427 -6.668025 2.591067 0
M  V30 77 H -3.956701 -4.334582 2.069013 0
M  V30 78 H -2.950991 -1.437052 1.998497 0
M  V30 79 H -4.990936 -2.399770 5.245476 0
M  V30 80 H -5.982600 -0.894699 4.996741 0
M  V30 81 H -4.616784 -0.866951 6.124521 0
M  V30 82 H -2.734478 0.365620 5.147690 0
M  V30 83 H -2.343564 0.288444 2.423361 0
M  V30 84 H -0.640348 1.269165 1.983534 0
M  V30 85 H -0.733712 1.117909 4.943314 0
M  V30 86 H -0.558183 3.786909 3.413841 0
M  V30 87 H -0.434579 3.375728 5.236161 0
M  V30 88 H -1.928690 3.223973 4.352531 0
M  V30 89 H 1.151862 0.283199 3.657672 0
M  V30 90 H 0.967208 1.185230 5.785024 0
M  V30 91 H 0.812266 2.553159 2.183338 0
M  V30 92 H 1.651225 3.876807 4.329676 0
M  V30 93 H 3.246057 3.521254 3.732028 0
M  V30 94 H 2.031015 4.315159 2.676448 0
M  V30 95 H 2.047047 0.681013 1.506983 0
M  V30 96 H 4.023420 1.343902 3.437670 0
M  V30 97 H 2.528762 3.172882 0.816272 0
M  V30 98 H 4.209890 4.239270 1.769214 0
M  V30 99 H 5.025309 2.772148 2.382706 0
M  V30 100 H 5.303018 3.306193 0.741626 0
M  V30 101 H 2.650853 2.007679 -0.922637 0
M  V30 102 H 4.284169 5.911287 -2.114034 0
M  V30 103 H 5.754450 4.880403 -2.343754 0
M  V30 104 H 4.535003 4.944403 -3.632342 0
M  V30 105 H 3.539163 -0.270992 -0.247989 0
M  V30 106 H 6.290076 0.466871 -0.671039 0
M  V30 107 H 5.584014 -0.742497 0.420300 0
M  V30 108 H 5.668725 1.035296 0.895001 0
M  V30 END ATOM
M  V30 BEGIN BOND
M  V30 1 1 1 2
M  V30 2 1 2 3
M  V30 3 1 3 4
M  V30 4 2 4 5
M  V30 5 1 5 6
M  V30 6 1 6 7
M  V30 7 1 7 8 CFG=1
M  V30 8 1 7 9
M  V30 9 1 9 10
M  V30 10 2 10 11
M  V30 11 1 11 12
M  V30 12 1 11 13
M  V30 13 1 13 14
M  V30 14 2 13 15
M  V30 15 1 15 16
M  V30 16 1 16 17
M  V30 17 2 16 18
M  V30 18 1 18 19
M  V30 19 2 19 20
M  V30 20 1 20 21
M  V30 21 2 21 22
M  V30 22 1 22 23
M  V30 23 2 23 24
M  V30 24 1 24 25
M  V30 25 1 24 26
M  V30 26 2 26 27
M  V30 27 1 27 28
M  V30 28 1 20 29
M  V30 29 2 29 30
M  V30 30 1 30 31
M  V30 31 2 31 32
M  V30 32 1 18 33
M  V30 33 1 33 34
M  V30 34 2 34 35
M  V30 35 1 34 36
M  V30 36 1 36 37
M  V30 37 2 36 38
M  V30 38 1 38 39
M  V30 39 2 39 40
M  V30 40 1 40 41
M  V30 41 1 41 42
M  V30 42 1 41 43
M  V30 43 1 43 44
M  V30 44 1 43 45
M  V30 45 1 45 46
M  V30 46 1 45 47
M  V30 47 1 47 48
M  V30 48 1 47 49
M  V30 49 1 49 50
M  V30 50 1 49 51
M  V30 51 1 51 52
M  V30 52 1 52 53
M  V30 53 1 53 54
M  V30 54 2 53 55
M  V30 55 1 51 56
M  V30 56 1 56 57
M  V30 57 1 56 3
M  V30 58 1 31 7
M  V30 59 1 30 10
M  V30 60 1 29 15
M  V30 61 1 28 19
M  V30 62 1 28 22
M  V30 63 1 1 58
M  V30 64 1 1 59
M  V30 65 1 1 60
M  V30 66 1 3 61
M  V30 67 1 4 62
M  V30 68 1 5 63
M  V30 69 1 8 64
M  V30 70 1 8 65
M  V30 71 1 8 66
M  V30 72 1 12 67
M  V30 73 1 12 68
M  V30 74 1 12 69
M  V30 75 1 14 70
M  V30 76 1 17 71
M  V30 77 1 23 72
M  V30 78 1 25 73
M  V30 79 1 25 74
M  V30 80 1 25 75
M  V30 81 1 26 76
M  V30 82 1 27 77
M  V30 83 1 33 78
M  V30 84 1 37 79
M  V30 85 1 37 80
M  V30 86 1 37 81
M  V30 87 1 38 82
M  V30 88 1 39 83
M  V30 89 1 40 84
M  V30 90 1 41 85
M  V30 91 1 42 86
M  V30 92 1 42 87
M  V30 93 1 42 88
M  V30 94 1 43 89
M  V30 95 1 44 90
M  V30 96 1 45 91 CFG=3
M  V30 97 1 46 92
M  V30 98 1 46 93
M  V30 99 1 46 94
M  V30 100 1 47 95
M  V30 101 1 48 96
M  V30 102 1 49 97
M  V30 103 1 50 98
M  V30 104 1 50 99
M  V30 105 1 50 100
M  V30 106 1 51 101 CFG=3
M  V30 107 1 54 102
M  V30 108 1 54 103
M  V30 109 1 54 104
M  V30 110 1 56 105
M  V30 111 1 57 106
M  V30 112 1 57 107
M  V30 113 1 57 108
M  V30 END BOND
M  V30 END CTAB
M  END
>  <Dataset>  (889) 
ChEMBL_Kinases

>  <Ligand_Instance>  (889) 
nan

>  <PDB_ID>  (889) 
nan

>  <Standardized_SMILES>  (889) 
COC1/C=C\O[C@@]2(C)Oc3c(C)c(O)c4c(O)c(c5c(nc6cc(C)ccn65)c4c3C2=O)NC(=O)/C(C)=C\C=C/C(C)C(O)[C@@H](C)C(O)C(C)[C@@H](OC(C)=O)C1C

>  <Name>  (889) 
nan

>  <Pocket>  (889) 
nan

>  <ATP_Site>  (889) 
nan

>  <Peripheral>  (889) 
nan

>  <Num_H_Atoms_ProtBoundConf>  (889) 
nan

>  <Num_Resolved_Atoms>  (889) 
nan

>  <Num_Not_Resolved_Atoms>  (889) 
nan

$$$$
CHEMBL1326944
     RDKit          3D

  0  0  0  0  0  0  0  0  0  0999 V3000
M  V30 BEGIN CTAB
M  V30 COUNTS 35 37 0 0 0
M  V30 BEGIN ATOM
M  V30 1 C -0.715487 -4.801723 4.148660 0
M  V30 2 O -0.656210 -3.646548 3.334180 0
M  V30 3 C 0.350257 -3.473800 2.394173 0
M  V30 4 C 1.376774 -4.360385 2.140221 0
M  V30 5 C 2.342271 -4.114719 1.185431 0
M  V30 6 C 2.262000 -2.938045 0.470928 0
M  V30 7 C 1.262069 -2.009971 0.675563 0
M  V30 8 C 1.131726 -0.751529 -0.052124 0
M  V30 9 C 2.007680 -0.362198 -1.028871 0
M  V30 10 C 1.917389 0.825610 -1.742573 0
M  V30 11 O 2.746407 1.146663 -2.635536 0
M  V30 12 C 0.870109 1.683656 -1.452553 0
M  V30 13 C 0.668500 2.874625 -2.077032 0
M  V30 14 C -0.422860 3.631116 -1.683502 0
M  V30 15 C -1.298947 3.231729 -0.699976 0
M  V30 16 O -2.355088 4.069654 -0.389344 0
M  V30 17 C -3.298778 3.702933 0.627985 0
M  V30 18 C -1.057456 2.007990 -0.086478 0
M  V30 19 C 0.032848 1.221376 -0.459163 0
M  V30 20 O 0.157057 0.094618 0.186221 0
M  V30 21 C 0.310573 -2.295137 1.645061 0
M  V30 22 H -1.766519 -4.967038 4.524603 0
M  V30 23 H -0.083058 -4.672590 5.041879 0
M  V30 24 H -0.371513 -5.721998 3.629661 0
M  V30 25 H 1.398836 -5.270117 2.725568 0
M  V30 26 H 3.134982 -4.824486 1.005971 0
M  V30 27 H 2.999018 -2.730369 -0.271275 0
M  V30 28 H 2.836493 -0.977434 -1.300713 0
M  V30 29 H 1.367037 3.165546 -2.842987 0
M  V30 30 H -0.574966 4.570753 -2.181901 0
M  V30 31 H -2.696974 3.297037 1.487266 0
M  V30 32 H -3.880639 2.858857 0.235747 0
M  V30 33 H -3.879579 4.559780 0.967350 0
M  V30 34 H -1.737587 1.685261 0.685469 0
M  V30 35 H -0.482202 -1.580569 1.821382 0
M  V30 END ATOM
M  V30 BEGIN BOND
M  V30 1 1 1 2
M  V30 2 1 2 3
M  V30 3 2 3 4
M  V30 4 1 4 5
M  V30 5 2 5 6
M  V30 6 1 6 7
M  V30 7 1 7 8
M  V30 8 2 8 9
M  V30 9 1 9 10
M  V30 10 2 10 11
M  V30 11 1 10 12
M  V30 12 2 12 13
M  V30 13 1 13 14
M  V30 14 2 14 15
M  V30 15 1 15 16
M  V30 16 1 16 17
M  V30 17 1 15 18
M  V30 18 2 18 19
M  V30 19 1 19 20
M  V30 20 2 7 21
M  V30 21 1 21 3
M  V30 22 1 20 8
M  V30 23 1 19 12
M  V30 24 1 1 22
M  V30 25 1 1 23
M  V30 26 1 1 24
M  V30 27 1 4 25
M  V30 28 1 5 26
M  V30 29 1 6 27
M  V30 30 1 9 28
M  V30 31 1 13 29
M  V30 32 1 14 30
M  V30 33 1 17 31
M  V30 34 1 17 32
M  V30 35 1 17 33
M  V30 36 1 18 34
M  V30 37 1 21 35
M  V30 END BOND
M  V30 END CTAB
M  END
>  <Dataset>  (890) 
ChEMBL_Kinases

>  <Ligand_Instance>  (890) 
nan

>  <PDB_ID>  (890) 
nan

>  <Standardized_SMILES>  (890) 
COc1cccc(-c2cc(=O)c3ccc(OC)cc3o2)c1

>  <Name>  (890) 
7,3'-DIMETHOXYFLAVONE

>  <Pocket>  (890) 
nan

>  <ATP_Site>  (890) 
nan

>  <Peripheral>  (890) 
nan

>  <Num_H_Atoms_ProtBoundConf>  (890) 
nan

>  <Num_Resolved_Atoms>  (890) 
nan

>  <Num_Not_Resolved_Atoms>  (890) 
nan

$$$$
CHEMBL1326955
     RDKit          3D

  0  0  0  0  0  0  0  0  0  0999 V3000
M  V30 BEGIN CTAB
M  V30 COUNTS 46 48 0 0 0
M  V30 BEGIN ATOM
M  V30 1 C -2.821196 -5.230553 1.818688 0
M  V30 2 C -1.400911 -4.774131 1.877467 0
M  V30 3 O -1.165590 -3.505886 1.307087 0
M  V30 4 C -1.404001 -3.154150 -0.000554 0
M  V30 5 O -1.874736 -4.135394 -0.657249 0
M  V30 6 C -1.055608 -1.758320 -0.285115 0
M  V30 7 C -1.310131 -1.357996 -1.708782 0
M  V30 8 C -1.186321 0.163770 -1.812842 0
M  V30 9 N -0.467670 0.639018 -0.702185 0
M  V30 10 C 0.785971 1.242356 -0.875247 0
M  V30 11 C 1.366193 1.668321 0.419379 0
M  V30 12 C 0.832115 2.839750 0.970972 0
M  V30 13 O -0.185938 3.589696 0.366825 0
M  V30 14 C 1.290132 3.345956 2.184602 0
M  V30 15 C 2.286414 2.717736 2.894783 0
M  V30 16 C 2.816371 1.564348 2.358350 0
M  V30 17 C 3.815225 0.854055 2.984949 0
M  V30 18 C 4.396975 -0.305006 2.519376 0
M  V30 19 C 3.880669 -0.744223 1.297173 0
M  V30 20 C 2.881664 -0.079058 0.620225 0
M  V30 21 C 2.359568 1.073411 1.162764 0
M  V30 22 C -1.037423 0.549327 0.580306 0
M  V30 23 C -1.804710 -0.780368 0.630494 0
M  V30 24 H -2.909145 -6.330299 1.606954 0
M  V30 25 H -3.372884 -5.082437 2.791610 0
M  V30 26 H -3.430881 -4.721065 1.039087 0
M  V30 27 H -0.760725 -5.582867 1.449632 0
M  V30 28 H -1.059645 -4.684846 2.949832 0
M  V30 29 H 0.034454 -1.591196 -0.054109 0
M  V30 30 H -0.522659 -1.776299 -2.371992 0
M  V30 31 H -2.325934 -1.706474 -1.973461 0
M  V30 32 H -0.679476 0.480170 -2.735816 0
M  V30 33 H -2.225658 0.585897 -1.904699 0
M  V30 34 H 0.681781 2.198635 -1.479575 0
M  V30 35 H 1.429320 0.599964 -1.480693 0
M  V30 36 H -0.068131 4.570741 0.108208 0
M  V30 37 H 0.876963 4.250853 2.606451 0
M  V30 38 H 2.640825 3.099671 3.826700 0
M  V30 39 H 4.210004 1.215233 3.945734 0
M  V30 40 H 5.170996 -0.838849 3.021371 0
M  V30 41 H 4.306103 -1.659363 0.884360 0
M  V30 42 H 2.563127 -0.513144 -0.309375 0
M  V30 43 H -0.210104 0.490284 1.326358 0
M  V30 44 H -1.757961 1.340422 0.863774 0
M  V30 45 H -1.894144 -1.155167 1.654475 0
M  V30 46 H -2.804988 -0.658993 0.171611 0
M  V30 END ATOM
M  V30 BEGIN BOND
M  V30 1 1 1 2
M  V30 2 1 2 3
M  V30 3 1 3 4
M  V30 4 2 4 5
M  V30 5 1 4 6
M  V30 6 1 6 7
M  V30 7 1 7 8
M  V30 8 1 8 9
M  V30 9 1 9 10
M  V30 10 1 10 11
M  V30 11 2 11 12
M  V30 12 1 12 13
M  V30 13 1 12 14
M  V30 14 2 14 15
M  V30 15 1 15 16
M  V30 16 2 16 17
M  V30 17 1 17 18
M  V30 18 2 18 19
M  V30 19 1 19 20
M  V30 20 2 20 21
M  V30 21 1 9 22
M  V30 22 1 22 23
M  V30 23 1 23 6
M  V30 24 1 21 11
M  V30 25 1 21 16
M  V30 26 1 1 24
M  V30 27 1 1 25
M  V30 28 1 1 26
M  V30 29 1 2 27
M  V30 30 1 2 28
M  V30 31 1 6 29
M  V30 32 1 7 30
M  V30 33 1 7 31
M  V30 34 1 8 32
M  V30 35 1 8 33
M  V30 36 1 10 34
M  V30 37 1 10 35
M  V30 38 1 13 36
M  V30 39 1 14 37
M  V30 40 1 15 38
M  V30 41 1 17 39
M  V30 42 1 18 40
M  V30 43 1 19 41
M  V30 44 1 20 42
M  V30 45 1 22 43
M  V30 46 1 22 44
M  V30 47 1 23 45
M  V30 48 1 23 46
M  V30 END BOND
M  V30 END CTAB
M  END
>  <Dataset>  (891) 
ChEMBL_Kinases

>  <Ligand_Instance>  (891) 
nan

>  <PDB_ID>  (891) 
nan

>  <Standardized_SMILES>  (891) 
CCOC(=O)C1CCN(Cc2c(O)ccc3ccccc23)CC1

>  <Name>  (891) 
nan

>  <Pocket>  (891) 
nan

>  <ATP_Site>  (891) 
nan

>  <Peripheral>  (891) 
nan

>  <Num_H_Atoms_ProtBoundConf>  (891) 
nan

>  <Num_Resolved_Atoms>  (891) 
nan

>  <Num_Not_Resolved_Atoms>  (891) 
nan

$$$$
CHEMBL1327087
     RDKit          3D

  0  0  0  0  0  0  0  0  0  0999 V3000
M  V30 BEGIN CTAB
M  V30 COUNTS 51 53 0 0 0
M  V30 BEGIN ATOM
M  V30 1 C 0.857539 -5.627832 2.273011 0
M  V30 2 C 0.205254 -4.267300 2.357643 0
M  V30 3 N 0.111242 -3.596320 1.075424 0
M  V30 4 C -0.532375 -2.288662 1.225515 0
M  V30 5 C -0.069892 -1.429976 0.034898 0
M  V30 6 N 1.259404 -1.096353 0.241979 0
M  V30 7 C 1.836644 0.127392 0.001353 0
M  V30 8 C 1.822901 0.487987 -1.395049 0
M  V30 9 C 2.118677 -0.145264 -2.540683 0
M  V30 10 C 2.003119 0.466935 -3.755922 0
M  V30 11 C 1.562747 1.798589 -3.821971 0
M  V30 12 S 1.289636 2.213540 -1.989781 0
M  V30 13 C 1.286410 1.200638 0.899379 0
M  V30 14 C 1.942068 2.545322 0.643012 0
M  V30 15 N -0.146357 1.312685 0.940888 0
M  V30 16 C -1.040721 1.068941 2.045496 0
M  V30 17 O -0.648317 0.705976 3.183275 0
M  V30 18 C -2.467442 1.240838 1.871573 0
M  V30 19 C -3.296420 0.997589 2.955771 0
M  V30 20 C -4.685620 1.140787 2.868261 0
M  V30 21 C -5.264855 1.534126 1.678458 0
M  V30 22 N -4.439739 1.770473 0.619311 0
M  V30 23 C -3.106018 1.630002 0.713605 0
M  V30 24 C 2.036963 -2.089439 0.927655 0
M  V30 25 C 1.447751 -3.437035 0.511325 0
M  V30 26 H 0.566355 -6.091424 1.307587 0
M  V30 27 H 1.952347 -5.594823 2.447236 0
M  V30 28 H 0.353592 -6.270835 3.049949 0
M  V30 29 H -0.836559 -4.418967 2.688268 0
M  V30 30 H 0.796758 -3.664738 3.080484 0
M  V30 31 H -1.621781 -2.445323 1.211710 0
M  V30 32 H -0.255516 -1.804969 2.166608 0
M  V30 33 H -0.101100 -2.193394 -0.812015 0
M  V30 34 H -0.801451 -0.677221 -0.227362 0
M  V30 35 H 2.924623 0.050147 0.319326 0
M  V30 36 H 2.452678 -1.167626 -2.433348 0
M  V30 37 H 2.235181 -0.021349 -4.693882 0
M  V30 38 H 1.428911 2.402006 -4.745401 0
M  V30 39 H 1.597432 0.893832 1.920181 0
M  V30 40 H 1.248761 3.318278 0.291914 0
M  V30 41 H 2.836392 2.380588 0.017670 0
M  V30 42 H 2.355755 2.954519 1.606506 0
M  V30 43 H -0.468890 1.628071 -0.001721 0
M  V30 44 H -2.922549 0.691282 3.904845 0
M  V30 45 H -5.342293 0.958488 3.690948 0
M  V30 46 H -6.349637 1.642931 1.620474 0
M  V30 47 H -2.490777 1.825796 -0.143741 0
M  V30 48 H 2.035608 -1.960465 2.007256 0
M  V30 49 H 3.074105 -2.088004 0.493007 0
M  V30 50 H 2.085414 -4.198869 0.973783 0
M  V30 51 H 1.411747 -3.538276 -0.580045 0
M  V30 END ATOM
M  V30 BEGIN BOND
M  V30 1 1 1 2
M  V30 2 1 2 3
M  V30 3 1 3 4
M  V30 4 1 4 5
M  V30 5 1 5 6
M  V30 6 1 6 7
M  V30 7 1 7 8
M  V30 8 2 8 9
M  V30 9 1 9 10
M  V30 10 2 10 11
M  V30 11 1 11 12
M  V30 12 1 7 13
M  V30 13 1 13 14
M  V30 14 1 13 15
M  V30 15 1 15 16
M  V30 16 2 16 17
M  V30 17 1 16 18
M  V30 18 2 18 19
M  V30 19 1 19 20
M  V30 20 2 20 21
M  V30 21 1 21 22
M  V30 22 2 22 23
M  V30 23 1 6 24
M  V30 24 1 24 25
M  V30 25 1 25 3
M  V30 26 1 12 8
M  V30 27 1 23 18
M  V30 28 1 1 26
M  V30 29 1 1 27
M  V30 30 1 1 28
M  V30 31 1 2 29
M  V30 32 1 2 30
M  V30 33 1 4 31
M  V30 34 1 4 32
M  V30 35 1 5 33
M  V30 36 1 5 34
M  V30 37 1 7 35
M  V30 38 1 9 36
M  V30 39 1 10 37
M  V30 40 1 11 38
M  V30 41 1 13 39
M  V30 42 1 14 40
M  V30 43 1 14 41
M  V30 44 1 14 42
M  V30 45 1 15 43
M  V30 46 1 19 44
M  V30 47 1 20 45
M  V30 48 1 21 46
M  V30 49 1 23 47
M  V30 50 1 24 48
M  V30 51 1 24 49
M  V30 52 1 25 50
M  V30 53 1 25 51
M  V30 END BOND
M  V30 END CTAB
M  END
>  <Dataset>  (892) 
ChEMBL_Kinases

>  <Ligand_Instance>  (892) 
nan

>  <PDB_ID>  (892) 
nan

>  <Standardized_SMILES>  (892) 
CCN1CCN(C(c2cccs2)C(C)NC(=O)c2cccnc2)CC1

>  <Name>  (892) 
nan

>  <Pocket>  (892) 
nan

>  <ATP_Site>  (892) 
nan

>  <Peripheral>  (892) 
nan

>  <Num_H_Atoms_ProtBoundConf>  (892) 
nan

>  <Num_Resolved_Atoms>  (892) 
nan

>  <Num_Not_Resolved_Atoms>  (892) 
nan

$$$$
CHEMBL1327373
     RDKit          3D

  0  0  0  0  0  0  0  0  0  0999 V3000
M  V30 BEGIN CTAB
M  V30 COUNTS 43 46 0 0 0
M  V30 BEGIN ATOM
M  V30 1 C 2.584931 -4.145129 2.683481 0
M  V30 2 O 3.070615 -4.348578 1.369792 0
M  V30 3 C 2.612689 -3.535862 0.346425 0
M  V30 4 C 3.051282 -3.683397 -0.977260 0
M  V30 5 C 2.559610 -2.844464 -1.961961 0
M  V30 6 C 1.637447 -1.846776 -1.699826 0
M  V30 7 C 1.174310 -1.660561 -0.414933 0
M  V30 8 N 0.224495 -0.707648 0.039689 0
M  V30 9 C 0.241714 0.606830 -0.216230 0
M  V30 10 S 1.560475 1.307862 -1.186941 0
M  V30 11 C 2.947994 1.852585 -0.199027 0
M  V30 12 C 3.704505 0.788324 0.465044 0
M  V30 13 N 4.910375 0.224153 -0.044076 0
M  V30 14 O 3.187976 0.398744 1.558156 0
M  V30 15 N -0.689225 1.470812 0.231135 0
M  V30 16 C -1.698409 1.006357 0.977500 0
M  V30 17 C -2.791375 1.570214 1.587423 0
M  V30 18 C -3.276357 2.863185 1.664490 0
M  V30 19 C -4.435909 3.192505 2.361352 0
M  V30 20 C -5.083346 2.144282 2.979013 0
M  V30 21 C -4.643034 0.836991 2.934083 0
M  V30 22 C -3.486450 0.541695 2.233120 0
M  V30 23 N -2.869222 -0.648741 2.050881 0
M  V30 24 C -1.792636 -0.431010 1.306663 0
M  V30 25 C -0.778594 -1.239886 0.794785 0
M  V30 26 O -0.902635 -2.601409 1.130777 0
M  V30 27 C 1.692311 -2.523918 0.551324 0
M  V30 28 H 2.932343 -3.173421 3.073220 0
M  V30 29 H 2.820657 -4.999245 3.361398 0
M  V30 30 H 1.454688 -4.101951 2.706173 0
M  V30 31 H 3.773073 -4.462993 -1.187464 0
M  V30 32 H 2.911010 -2.970937 -2.991659 0
M  V30 33 H 1.227992 -1.174669 -2.433410 0
M  V30 34 H 2.624762 2.652065 0.503290 0
M  V30 35 H 3.670307 2.348695 -0.909840 0
M  V30 36 H 4.376801 -0.434399 -0.640813 0
M  V30 37 H 5.709628 0.745245 0.428521 0
M  V30 38 H -2.691080 3.617468 1.139829 0
M  V30 39 H -4.772916 4.220565 2.392343 0
M  V30 40 H -6.001555 2.370088 3.536122 0
M  V30 41 H -5.208771 0.048900 3.449052 0
M  V30 42 H -0.938468 -3.225191 0.317010 0
M  V30 43 H 1.372957 -2.426762 1.580138 0
M  V30 END ATOM
M  V30 BEGIN BOND
M  V30 1 1 1 2
M  V30 2 1 2 3
M  V30 3 2 3 4
M  V30 4 1 4 5
M  V30 5 2 5 6
M  V30 6 1 6 7
M  V30 7 1 7 8
M  V30 8 1 8 9
M  V30 9 1 9 10
M  V30 10 1 10 11
M  V30 11 1 11 12
M  V30 12 1 12 13
M  V30 13 2 12 14
M  V30 14 2 9 15
M  V30 15 1 15 16
M  V30 16 2 16 17
M  V30 17 1 17 18
M  V30 18 2 18 19
M  V30 19 1 19 20
M  V30 20 2 20 21
M  V30 21 1 21 22
M  V30 22 2 22 23
M  V30 23 1 23 24
M  V30 24 2 24 25
M  V30 25 1 25 26
M  V30 26 2 7 27
M  V30 27 1 27 3
M  V30 28 1 25 8
M  V30 29 1 24 16
M  V30 30 1 22 17
M  V30 31 1 1 28
M  V30 32 1 1 29
M  V30 33 1 1 30
M  V30 34 1 4 31
M  V30 35 1 5 32
M  V30 36 1 6 33
M  V30 37 1 11 34
M  V30 38 1 11 35
M  V30 39 1 13 36
M  V30 40 1 13 37
M  V30 41 1 18 38
M  V30 42 1 19 39
M  V30 43 1 20 40
M  V30 44 1 21 41
M  V30 45 1 26 42
M  V30 46 1 27 43
M  V30 END BOND
M  V30 END CTAB
M  END
>  <Dataset>  (893) 
ChEMBL_Kinases

>  <Ligand_Instance>  (893) 
nan

>  <PDB_ID>  (893) 
nan

>  <Standardized_SMILES>  (893) 
COc1cccc(-n2c(SCC(N)=O)nc3c4ccccc4nc-3c2O)c1

>  <Name>  (893) 
nan

>  <Pocket>  (893) 
nan

>  <ATP_Site>  (893) 
nan

>  <Peripheral>  (893) 
nan

>  <Num_H_Atoms_ProtBoundConf>  (893) 
nan

>  <Num_Resolved_Atoms>  (893) 
nan

>  <Num_Not_Resolved_Atoms>  (893) 
nan

$$$$
CHEMBL1327472
     RDKit          3D

  0  0  0  0  0  0  0  0  0  0999 V3000
M  V30 BEGIN CTAB
M  V30 COUNTS 57 60 0 0 0
M  V30 BEGIN ATOM
M  V30 1 O 0.287384 -2.627077 2.095030 0
M  V30 2 C 0.084181 -1.409428 2.332801 0
M  V30 3 C 0.854567 -0.318415 3.029101 0
M  V30 4 N 2.117988 -0.825270 3.525068 0
M  V30 5 C 2.945318 -1.125114 2.400491 0
M  V30 6 C 3.856335 -0.034294 1.949063 0
M  V30 7 N 3.291662 1.240794 2.285672 0
M  V30 8 C 3.128789 2.325677 1.359461 0
M  V30 9 C 2.597602 3.562191 1.691293 0
M  V30 10 C 2.455869 4.574886 0.779060 0
M  V30 11 C 2.856927 4.354277 -0.516991 0
M  V30 12 C 3.385593 3.121331 -0.843596 0
M  V30 13 N 3.503655 2.159397 0.089529 0
M  V30 14 C 2.830730 1.517525 3.642944 0
M  V30 15 C 2.661406 0.209990 4.385098 0
M  V30 16 N -1.126165 -0.818390 1.884837 0
M  V30 17 C -2.271032 -1.271076 1.179027 0
M  V30 18 C -3.381503 -1.778587 1.822446 0
M  V30 19 C -4.526318 -2.230270 1.157269 0
M  V30 20 C -4.529152 -2.157248 -0.219706 0
M  V30 21 C -3.457166 -1.662601 -0.931655 0
M  V30 22 S -3.338549 -1.510475 -2.669593 0
M  V30 23 O -4.723808 -1.196516 -3.211905 0
M  V30 24 O -2.489720 -0.327194 -3.041327 0
M  V30 25 N -2.760988 -2.868121 -3.475765 0
M  V30 26 C -1.450265 -3.313754 -3.166599 0
M  V30 27 C -1.540672 -4.803117 -2.885536 0
M  V30 28 C -2.985204 -5.198525 -3.125268 0
M  V30 29 C -3.646189 -3.959092 -3.660031 0
M  V30 30 C -2.336814 -1.224274 -0.214577 0
M  V30 31 H 1.050352 0.480206 2.269390 0
M  V30 32 H 0.251319 0.160897 3.825062 0
M  V30 33 H 3.585772 -1.997984 2.709896 0
M  V30 34 H 2.269089 -1.477352 1.573269 0
M  V30 35 H 4.865043 -0.190304 2.393341 0
M  V30 36 H 3.964802 -0.123109 0.840996 0
M  V30 37 H 2.288723 3.719898 2.708806 0
M  V30 38 H 2.027739 5.510655 1.135154 0
M  V30 39 H 2.715557 5.204856 -1.192027 0
M  V30 40 H 3.681998 3.015359 -1.885061 0
M  V30 41 H 3.553402 2.161962 4.138406 0
M  V30 42 H 1.790631 1.945719 3.576283 0
M  V30 43 H 3.655306 -0.119785 4.734790 0
M  V30 44 H 2.009644 0.317838 5.264124 0
M  V30 45 H -1.511448 0.168352 1.964082 0
M  V30 46 H -3.390032 -1.840602 2.910213 0
M  V30 47 H -5.387688 -2.624753 1.674029 0
M  V30 48 H -5.373020 -2.482835 -0.841703 0
M  V30 49 H -0.928684 -2.750308 -2.372360 0
M  V30 50 H -0.830868 -3.198337 -4.083001 0
M  V30 51 H -1.236442 -5.011363 -1.833482 0
M  V30 52 H -0.888578 -5.403800 -3.563179 0
M  V30 53 H -3.029031 -6.038477 -3.871253 0
M  V30 54 H -3.473081 -5.613139 -2.217005 0
M  V30 55 H -3.748432 -4.104020 -4.776892 0
M  V30 56 H -4.685663 -3.806788 -3.315874 0
M  V30 57 H -1.458857 -0.823769 -0.720558 0
M  V30 END ATOM
M  V30 BEGIN BOND
M  V30 1 2 1 2
M  V30 2 1 2 3
M  V30 3 1 3 4
M  V30 4 1 4 5
M  V30 5 1 5 6
M  V30 6 1 6 7
M  V30 7 1 7 8
M  V30 8 2 8 9
M  V30 9 1 9 10
M  V30 10 2 10 11
M  V30 11 1 11 12
M  V30 12 2 12 13
M  V30 13 1 7 14
M  V30 14 1 14 15
M  V30 15 1 2 16
M  V30 16 1 16 17
M  V30 17 2 17 18
M  V30 18 1 18 19
M  V30 19 2 19 20
M  V30 20 1 20 21
M  V30 21 1 21 22
M  V30 22 2 22 23
M  V30 23 2 22 24
M  V30 24 1 22 25
M  V30 25 1 25 26
M  V30 26 1 26 27
M  V30 27 1 27 28
M  V30 28 1 28 29
M  V30 29 2 21 30
M  V30 30 1 15 4
M  V30 31 1 30 17
M  V30 32 1 13 8
M  V30 33 1 29 25
M  V30 34 1 3 31
M  V30 35 1 3 32
M  V30 36 1 5 33
M  V30 37 1 5 34
M  V30 38 1 6 35
M  V30 39 1 6 36
M  V30 40 1 9 37
M  V30 41 1 10 38
M  V30 42 1 11 39
M  V30 43 1 12 40
M  V30 44 1 14 41
M  V30 45 1 14 42
M  V30 46 1 15 43
M  V30 47 1 15 44
M  V30 48 1 16 45
M  V30 49 1 18 46
M  V30 50 1 19 47
M  V30 51 1 20 48
M  V30 52 1 26 49
M  V30 53 1 26 50
M  V30 54 1 27 51
M  V30 55 1 27 52
M  V30 56 1 28 53
M  V30 57 1 28 54
M  V30 58 1 29 55
M  V30 59 1 29 56
M  V30 60 1 30 57
M  V30 END BOND
M  V30 END CTAB
M  END
>  <Dataset>  (894) 
ChEMBL_Kinases

>  <Ligand_Instance>  (894) 
nan

>  <PDB_ID>  (894) 
nan

>  <Standardized_SMILES>  (894) 
O=C(CN1CCN(c2ccccn2)CC1)Nc1cccc(S(=O)(=O)N2CCCC2)c1

>  <Name>  (894) 
nan

>  <Pocket>  (894) 
nan

>  <ATP_Site>  (894) 
nan

>  <Peripheral>  (894) 
nan

>  <Num_H_Atoms_ProtBoundConf>  (894) 
nan

>  <Num_Resolved_Atoms>  (894) 
nan

>  <Num_Not_Resolved_Atoms>  (894) 
nan

$$$$
CHEMBL1327547
     RDKit          3D

  0  0  0  0  0  0  0  0  0  0999 V3000
M  V30 BEGIN CTAB
M  V30 COUNTS 38 40 0 0 0
M  V30 BEGIN ATOM
M  V30 1 O -0.494694 -2.520507 7.033969 0
M  V30 2 C 0.054420 -2.448753 5.769066 0
M  V30 3 C -0.716088 -2.088003 4.681489 0
M  V30 4 C -0.119036 -2.029742 3.428457 0
M  V30 5 C 1.219098 -2.327629 3.278424 0
M  V30 6 C 1.800801 -2.253329 1.939899 0
M  V30 7 N 3.053118 -2.487901 1.514506 0
M  V30 8 N 3.111376 -2.289150 0.186861 0
M  V30 9 C 1.850631 -1.923791 -0.190576 0
M  V30 10 S 1.825116 -1.636141 -1.952459 0
M  V30 11 C 0.202539 -1.136930 -2.541891 0
M  V30 12 C -0.253515 0.203284 -2.093700 0
M  V30 13 C -0.373679 0.401631 -0.620887 0
M  V30 14 C -1.119889 1.705014 -0.398759 0
M  V30 15 C -1.483599 2.408653 -1.672899 0
M  V30 16 C -0.326091 2.560728 -2.630914 0
M  V30 17 C 0.565259 1.338266 -2.668280 0
M  V30 18 O 1.103400 -1.915038 0.882348 0
M  V30 19 C 2.000299 -2.692590 4.376546 0
M  V30 20 C 1.402724 -2.748917 5.618298 0
M  V30 21 H -1.345402 -2.073628 7.328587 0
M  V30 22 H -1.770481 -1.856043 4.816344 0
M  V30 23 H -0.753311 -1.743734 2.600133 0
M  V30 24 H -0.529886 -1.874281 -2.092519 0
M  V30 25 H 0.102177 -1.197844 -3.636037 0
M  V30 26 H -1.284976 0.344042 -2.513826 0
M  V30 27 H 0.628733 0.552996 -0.179646 0
M  V30 28 H -0.936176 -0.390558 -0.112133 0
M  V30 29 H -2.082393 1.552691 0.156117 0
M  V30 30 H -0.549399 2.421990 0.224185 0
M  V30 31 H -1.768015 3.457001 -1.364051 0
M  V30 32 H -2.403257 2.011859 -2.164397 0
M  V30 33 H -0.762024 2.756791 -3.653854 0
M  V30 34 H 0.280940 3.457010 -2.358696 0
M  V30 35 H 0.901026 1.057018 -3.669557 0
M  V30 36 H 1.407132 1.537770 -1.968065 0
M  V30 37 H 3.041173 -2.922610 4.249964 0
M  V30 38 H 1.996670 -3.030753 6.480134 0
M  V30 END ATOM
M  V30 BEGIN BOND
M  V30 1 1 1 2
M  V30 2 2 2 3
M  V30 3 1 3 4
M  V30 4 2 4 5
M  V30 5 1 5 6
M  V30 6 2 6 7
M  V30 7 1 7 8
M  V30 8 2 8 9
M  V30 9 1 9 10
M  V30 10 1 10 11
M  V30 11 1 11 12
M  V30 12 1 12 13
M  V30 13 1 13 14
M  V30 14 1 14 15
M  V30 15 1 15 16
M  V30 16 1 16 17
M  V30 17 1 9 18
M  V30 18 1 5 19
M  V30 19 2 19 20
M  V30 20 1 20 2
M  V30 21 1 18 6
M  V30 22 1 17 12
M  V30 23 1 1 21
M  V30 24 1 3 22
M  V30 25 1 4 23
M  V30 26 1 11 24
M  V30 27 1 11 25
M  V30 28 1 12 26
M  V30 29 1 13 27
M  V30 30 1 13 28
M  V30 31 1 14 29
M  V30 32 1 14 30
M  V30 33 1 15 31
M  V30 34 1 15 32
M  V30 35 1 16 33
M  V30 36 1 16 34
M  V30 37 1 17 35
M  V30 38 1 17 36
M  V30 39 1 19 37
M  V30 40 1 20 38
M  V30 END BOND
M  V30 END CTAB
M  END
>  <Dataset>  (895) 
ChEMBL_Kinases

>  <Ligand_Instance>  (895) 
nan

>  <PDB_ID>  (895) 
nan

>  <Standardized_SMILES>  (895) 
Oc1ccc(-c2nnc(SCC3CCCCC3)o2)cc1

>  <Name>  (895) 
nan

>  <Pocket>  (895) 
nan

>  <ATP_Site>  (895) 
nan

>  <Peripheral>  (895) 
nan

>  <Num_H_Atoms_ProtBoundConf>  (895) 
nan

>  <Num_Resolved_Atoms>  (895) 
nan

>  <Num_Not_Resolved_Atoms>  (895) 
nan

$$$$
CHEMBL1327563
     RDKit          3D

  0  0  0  0  0  0  0  0  0  0999 V3000
M  V30 BEGIN CTAB
M  V30 COUNTS 40 43 0 0 0
M  V30 BEGIN ATOM
M  V30 1 C 0.637068 -7.318875 0.582633 0
M  V30 2 O 1.485165 -6.619575 -0.286825 0
M  V30 3 C 1.516279 -5.232001 -0.234300 0
M  V30 4 C 2.370765 -4.599339 -1.114770 0
M  V30 5 C 2.506717 -3.226849 -1.175945 0
M  V30 6 C 1.733967 -2.495467 -0.298812 0
M  V30 7 C 0.861435 -3.066434 0.604752 0
M  V30 8 C 0.750862 -4.457368 0.637542 0
M  V30 9 C -0.009574 -2.405502 1.578238 0
M  V30 10 C 0.071658 -0.910800 1.609813 0
M  V30 11 C 1.003964 -0.349030 0.629979 0
M  V30 12 C 1.235892 0.999485 0.466231 0
M  V30 13 C 0.794862 2.273936 1.018271 0
M  V30 14 O 1.185552 3.435778 0.693827 0
M  V30 15 N -0.179379 2.407507 2.044579 0
M  V30 16 C -0.530470 3.722480 2.505833 0
M  V30 17 C -1.088378 4.600278 1.443392 0
M  V30 18 C -2.451553 4.684042 1.137176 0
M  V30 19 C -2.682028 5.575648 0.110707 0
M  V30 20 C -1.393244 6.011366 -0.171768 0
M  V30 21 O -0.529206 5.429873 0.609288 0
M  V30 22 N 2.166425 1.064827 -0.534458 0
M  V30 23 O 2.453940 -0.140858 -0.922860 0
M  V30 24 C 1.793339 -1.037038 -0.267398 0
M  V30 25 H 0.683982 -6.956865 1.629563 0
M  V30 26 H -0.422213 -7.296455 0.274693 0
M  V30 27 H 0.940014 -8.395687 0.523255 0
M  V30 28 H 2.994329 -5.163595 -1.820954 0
M  V30 29 H 3.165289 -2.704703 -1.852405 0
M  V30 30 H 0.099884 -5.029559 1.302731 0
M  V30 31 H 0.235765 -2.839375 2.571036 0
M  V30 32 H -1.052451 -2.781878 1.358224 0
M  V30 33 H -0.945413 -0.537640 1.374131 0
M  V30 34 H 0.300658 -0.604983 2.651137 0
M  V30 35 H -0.633337 1.563323 2.455832 0
M  V30 36 H 0.391453 4.208174 2.901062 0
M  V30 37 H -1.296385 3.641489 3.300803 0
M  V30 38 H -3.221574 4.104422 1.660628 0
M  V30 39 H -3.613594 5.852561 -0.342575 0
M  V30 40 H -1.126985 6.746241 -0.946456 0
M  V30 END ATOM
M  V30 BEGIN BOND
M  V30 1 1 1 2
M  V30 2 1 2 3
M  V30 3 2 3 4
M  V30 4 1 4 5
M  V30 5 2 5 6
M  V30 6 1 6 7
M  V30 7 2 7 8
M  V30 8 1 7 9
M  V30 9 1 9 10
M  V30 10 1 10 11
M  V30 11 1 11 12
M  V30 12 1 12 13
M  V30 13 2 13 14
M  V30 14 1 13 15
M  V30 15 1 15 16
M  V30 16 1 16 17
M  V30 17 2 17 18
M  V30 18 1 18 19
M  V30 19 2 19 20
M  V30 20 1 20 21
M  V30 21 2 12 22
M  V30 22 1 22 23
M  V30 23 1 23 24
M  V30 24 1 8 3
M  V30 25 2 24 11
M  V30 26 1 24 6
M  V30 27 1 21 17
M  V30 28 1 1 25
M  V30 29 1 1 26
M  V30 30 1 1 27
M  V30 31 1 4 28
M  V30 32 1 5 29
M  V30 33 1 8 30
M  V30 34 1 9 31
M  V30 35 1 9 32
M  V30 36 1 10 33
M  V30 37 1 10 34
M  V30 38 1 15 35
M  V30 39 1 16 36
M  V30 40 1 16 37
M  V30 41 1 18 38
M  V30 42 1 19 39
M  V30 43 1 20 40
M  V30 END BOND
M  V30 END CTAB
M  END
>  <Dataset>  (896) 
ChEMBL_Kinases

>  <Ligand_Instance>  (896) 
nan

>  <PDB_ID>  (896) 
nan

>  <Standardized_SMILES>  (896) 
COc1ccc2c(c1)CCc1c(C(=O)NCc3ccco3)noc1-2

>  <Name>  (896) 
nan

>  <Pocket>  (896) 
nan

>  <ATP_Site>  (896) 
nan

>  <Peripheral>  (896) 
nan

>  <Num_H_Atoms_ProtBoundConf>  (896) 
nan

>  <Num_Resolved_Atoms>  (896) 
nan

>  <Num_Not_Resolved_Atoms>  (896) 
nan

$$$$
CHEMBL1326890
     RDKit          3D

  0  0  0  0  0  0  0  0  0  0999 V3000
M  V30 BEGIN CTAB
M  V30 COUNTS 42 44 0 0 0
M  V30 BEGIN ATOM
M  V30 1 C -3.021482 -3.361565 3.509411 0
M  V30 2 C -2.333930 -3.556569 2.172574 0
M  V30 3 N -1.182606 -2.683410 2.065557 0
M  V30 4 C -1.171323 -1.416856 1.567367 0
M  V30 5 C 0.107637 -0.961436 1.651797 0
M  V30 6 C 0.498340 0.378280 1.203142 0
M  V30 7 N 1.364570 0.538377 0.241084 0
M  V30 8 C 1.580475 1.944723 -0.014589 0
M  V30 9 C 0.644222 2.362227 -1.147346 0
M  V30 10 C 1.037674 1.488972 -2.344281 0
M  V30 11 C 0.181202 1.803832 -3.540597 0
M  V30 12 C 2.506962 1.706007 -2.620086 0
M  V30 13 C 1.126728 2.566766 1.287479 0
M  V30 14 O 0.084950 1.649521 1.646611 0
M  V30 15 C 0.909983 -1.957309 2.211229 0
M  V30 16 C 2.273413 -1.946304 2.488764 0
M  V30 17 C 2.807259 -3.093593 3.052540 0
M  V30 18 C 2.010340 -4.181688 3.317793 0
M  V30 19 C 0.660391 -4.139449 3.022000 0
M  V30 20 C 0.074620 -3.020841 2.458822 0
M  V30 21 H -2.220231 -3.155205 4.247607 0
M  V30 22 H -3.578973 -4.266108 3.794807 0
M  V30 23 H -3.668973 -2.461576 3.448044 0
M  V30 24 H -1.988016 -4.607410 2.115459 0
M  V30 25 H -3.085064 -3.392984 1.375407 0
M  V30 26 H -2.034829 -0.886266 1.179169 0
M  V30 27 H 2.622290 2.203284 -0.261890 0
M  V30 28 H -0.398006 2.178077 -0.841238 0
M  V30 29 H 0.858873 3.427110 -1.364193 0
M  V30 30 H 0.932277 0.415001 -2.091344 0
M  V30 31 H -0.217058 2.848901 -3.469477 0
M  V30 32 H -0.734455 1.164522 -3.472375 0
M  V30 33 H 0.681699 1.636916 -4.501481 0
M  V30 34 H 2.820313 2.746933 -2.525518 0
M  V30 35 H 3.076999 1.082751 -1.904598 0
M  V30 36 H 2.724687 1.288143 -3.634087 0
M  V30 37 H 0.774742 3.601814 1.191605 0
M  V30 38 H 1.956187 2.442374 2.016394 0
M  V30 39 H 2.837654 -1.073136 2.260346 0
M  V30 40 H 3.859720 -3.061685 3.257529 0
M  V30 41 H 2.468966 -5.062216 3.760600 0
M  V30 42 H 0.016665 -4.981470 3.221675 0
M  V30 END ATOM
M  V30 BEGIN BOND
M  V30 1 1 1 2
M  V30 2 1 2 3
M  V30 3 1 3 4
M  V30 4 2 4 5
M  V30 5 1 5 6
M  V30 6 2 6 7
M  V30 7 1 7 8
M  V30 8 1 8 9
M  V30 9 1 9 10
M  V30 10 1 10 11
M  V30 11 1 10 12
M  V30 12 1 8 13
M  V30 13 1 13 14
M  V30 14 1 5 15
M  V30 15 2 15 16
M  V30 16 1 16 17
M  V30 17 2 17 18
M  V30 18 1 18 19
M  V30 19 2 19 20
M  V30 20 1 20 3
M  V30 21 1 14 6
M  V30 22 1 20 15
M  V30 23 1 1 21
M  V30 24 1 1 22
M  V30 25 1 1 23
M  V30 26 1 2 24
M  V30 27 1 2 25
M  V30 28 1 4 26
M  V30 29 1 8 27
M  V30 30 1 9 28
M  V30 31 1 9 29
M  V30 32 1 10 30
M  V30 33 1 11 31
M  V30 34 1 11 32
M  V30 35 1 11 33
M  V30 36 1 12 34
M  V30 37 1 12 35
M  V30 38 1 12 36
M  V30 39 1 13 37
M  V30 40 1 13 38
M  V30 41 1 16 39
M  V30 42 1 17 40
M  V30 43 1 18 41
M  V30 44 1 19 42
M  V30 END BOND
M  V30 END CTAB
M  END
>  <Dataset>  (897) 
ChEMBL_Kinases

>  <Ligand_Instance>  (897) 
nan

>  <PDB_ID>  (897) 
nan

>  <Standardized_SMILES>  (897) 
CCn1cc(C2=NC(CC(C)C)CO2)c2ccccc21

>  <Name>  (897) 
nan

>  <Pocket>  (897) 
nan

>  <ATP_Site>  (897) 
nan

>  <Peripheral>  (897) 
nan

>  <Num_H_Atoms_ProtBoundConf>  (897) 
nan

>  <Num_Resolved_Atoms>  (897) 
nan

>  <Num_Not_Resolved_Atoms>  (897) 
nan

$$$$
CHEMBL1319871
     RDKit          3D

  0  0  0  0  0  0  0  0  0  0999 V3000
M  V30 BEGIN CTAB
M  V30 COUNTS 39 40 0 0 0
M  V30 BEGIN ATOM
M  V30 1 C -1.466865 -2.993785 5.136932 0
M  V30 2 C -0.034261 -3.440356 5.278889 0
M  V30 3 O 0.870975 -2.374807 5.297277 0
M  V30 4 C 1.062488 -1.445716 4.306020 0
M  V30 5 C 0.361246 -1.443487 3.121289 0
M  V30 6 C 0.650618 -0.453258 2.208447 0
M  V30 7 C 1.581560 0.546574 2.363052 0
M  V30 8 N 1.879911 1.564143 1.426715 0
M  V30 9 C 1.291334 1.764026 0.153069 0
M  V30 10 N 1.695478 2.789300 -0.616293 0
M  V30 11 C 1.212028 3.074003 -1.832835 0
M  V30 12 O 1.714321 4.170505 -2.537659 0
M  V30 13 C 0.225078 2.276725 -2.367110 0
M  V30 14 C -0.219979 1.213465 -1.612921 0
M  V30 15 C -1.290954 0.299821 -2.124089 0
M  V30 16 C -0.655826 -0.832868 -2.880289 0
M  V30 17 O 0.581258 -1.061964 -3.102379 0
M  V30 18 O -1.615583 -1.721961 -3.382915 0
M  V30 19 C -1.250338 -2.880183 -4.138452 0
M  V30 20 N 0.345898 1.040109 -0.415054 0
M  V30 21 C 2.250085 0.494450 3.563216 0
M  V30 22 C 2.009839 -0.466350 4.517219 0
M  V30 23 H -1.928702 -3.482708 4.256886 0
M  V30 24 H -2.083218 -3.228719 6.029449 0
M  V30 25 H -1.475815 -1.875275 5.046336 0
M  V30 26 H 0.054684 -3.983655 6.241563 0
M  V30 27 H 0.212467 -4.193479 4.482007 0
M  V30 28 H -0.387617 -2.199830 2.929137 0
M  V30 29 H 0.072179 -0.500321 1.300329 0
M  V30 30 H 2.626459 2.250938 1.712703 0
M  V30 31 H 2.054500 3.927147 -3.478333 0
M  V30 32 H -0.197788 2.459919 -3.338110 0
M  V30 33 H -1.916402 -0.118066 -1.327956 0
M  V30 34 H -1.944312 0.898849 -2.811988 0
M  V30 35 H -1.137650 -3.746555 -3.442817 0
M  V30 36 H -1.941603 -3.100079 -4.951729 0
M  V30 37 H -0.211012 -2.660527 -4.507260 0
M  V30 38 H 3.012927 1.239534 3.794843 0
M  V30 39 H 2.579556 -0.446364 5.448924 0
M  V30 END ATOM
M  V30 BEGIN BOND
M  V30 1 1 1 2
M  V30 2 1 2 3
M  V30 3 1 3 4
M  V30 4 2 4 5
M  V30 5 1 5 6
M  V30 6 2 6 7
M  V30 7 1 7 8
M  V30 8 1 8 9
M  V30 9 2 9 10
M  V30 10 1 10 11
M  V30 11 1 11 12
M  V30 12 2 11 13
M  V30 13 1 13 14
M  V30 14 1 14 15
M  V30 15 1 15 16
M  V30 16 2 16 17
M  V30 17 1 16 18
M  V30 18 1 18 19
M  V30 19 2 14 20
M  V30 20 1 7 21
M  V30 21 2 21 22
M  V30 22 1 22 4
M  V30 23 1 20 9
M  V30 24 1 1 23
M  V30 25 1 1 24
M  V30 26 1 1 25
M  V30 27 1 2 26
M  V30 28 1 2 27
M  V30 29 1 5 28
M  V30 30 1 6 29
M  V30 31 1 8 30
M  V30 32 1 12 31
M  V30 33 1 13 32
M  V30 34 1 15 33
M  V30 35 1 15 34
M  V30 36 1 19 35
M  V30 37 1 19 36
M  V30 38 1 19 37
M  V30 39 1 21 38
M  V30 40 1 22 39
M  V30 END BOND
M  V30 END CTAB
M  END
>  <Dataset>  (898) 
ChEMBL_Kinases

>  <Ligand_Instance>  (898) 
nan

>  <PDB_ID>  (898) 
nan

>  <Standardized_SMILES>  (898) 
CCOc1ccc(Nc2nc(O)cc(CC(=O)OC)n2)cc1

>  <Name>  (898) 
nan

>  <Pocket>  (898) 
nan

>  <ATP_Site>  (898) 
nan

>  <Peripheral>  (898) 
nan

>  <Num_H_Atoms_ProtBoundConf>  (898) 
nan

>  <Num_Resolved_Atoms>  (898) 
nan

>  <Num_Not_Resolved_Atoms>  (898) 
nan

$$$$
CHEMBL1319829
     RDKit          3D

  0  0  0  0  0  0  0  0  0  0999 V3000
M  V30 BEGIN CTAB
M  V30 COUNTS 65 68 0 0 0
M  V30 BEGIN ATOM
M  V30 1 C 3.447947 3.244219 6.569464 0
M  V30 2 O 2.693758 3.151696 5.379161 0
M  V30 3 C 3.367779 3.106481 4.178038 0
M  V30 4 C 4.730707 3.140388 3.968203 0
M  V30 5 C 5.274719 3.087290 2.704548 0
M  V30 6 C 4.445615 2.996374 1.587526 0
M  V30 7 C 3.088732 2.962733 1.798466 0
M  V30 8 C 2.547645 3.016995 3.081056 0
M  V30 9 N 1.107456 2.966532 3.040251 0
M  V30 10 C 0.109458 2.083862 3.567652 0
M  V30 11 C -0.891095 1.629151 2.539824 0
M  V30 12 N -0.390884 1.986586 1.219676 0
M  V30 13 C 0.043432 1.299167 0.043756 0
M  V30 14 O 0.449581 1.919923 -0.987660 0
M  V30 15 C 0.164750 -0.122501 -0.350077 0
M  V30 16 N -0.289966 -0.967652 0.735556 0
M  V30 17 C 0.579553 -2.106376 0.877316 0
M  V30 18 S -1.944743 -1.383119 0.585587 0
M  V30 19 O -2.751660 -0.123682 0.536787 0
M  V30 20 O -2.343199 -2.136122 1.822985 0
M  V30 21 C -2.303604 -2.287864 -0.859291 0
M  V30 22 C -2.658783 -1.697955 -2.066064 0
M  V30 23 C -2.931233 -2.472562 -3.176917 0
M  V30 24 C -2.853296 -3.849272 -3.100309 0
M  V30 25 C -2.497695 -4.451248 -1.893788 0
M  V30 26 C -2.227624 -3.666499 -0.790080 0
M  V30 27 C -2.436500 -5.816262 -1.876645 0
M  V30 28 O -2.113748 -6.383778 -0.784802 0
M  V30 29 N -2.697483 -6.593494 -2.946254 0
M  V30 30 C -2.630362 -8.047219 -2.921097 0
M  V30 31 C -3.039474 -5.954112 -4.097519 0
M  V30 32 O -3.285440 -6.688974 -5.105985 0
M  V30 33 N -3.120266 -4.595793 -4.187141 0
M  V30 34 C -3.492674 -3.986054 -5.453949 0
M  V30 35 C -0.346667 3.447182 1.130333 0
M  V30 36 C 0.398638 3.999766 2.326380 0
M  V30 37 H 3.989552 2.275849 6.766555 0
M  V30 38 H 2.775730 3.479615 7.420012 0
M  V30 39 H 4.221384 4.048253 6.479488 0
M  V30 40 H 5.329465 3.211596 4.873539 0
M  V30 41 H 6.360348 3.120034 2.639213 0
M  V30 42 H 4.941051 2.959327 0.636474 0
M  V30 43 H 2.521543 2.891386 0.871262 0
M  V30 44 H 0.651138 1.177534 3.960959 0
M  V30 45 H -0.467239 2.559906 4.414251 0
M  V30 46 H -1.039637 0.535849 2.665312 0
M  V30 47 H -1.851444 2.185386 2.713676 0
M  V30 48 H -0.391272 -0.388732 -1.265818 0
M  V30 49 H 1.253178 -0.343195 -0.553360 0
M  V30 50 H 0.793914 -2.630156 -0.080591 0
M  V30 51 H 0.238668 -2.849968 1.587057 0
M  V30 52 H 1.563989 -1.720752 1.244096 0
M  V30 53 H -2.708554 -0.626790 -2.085846 0
M  V30 54 H -3.201262 -1.957077 -4.084287 0
M  V30 55 H -1.963644 -4.239755 0.086935 0
M  V30 56 H -2.353131 -8.451898 -3.912734 0
M  V30 57 H -3.593898 -8.481868 -2.548469 0
M  V30 58 H -1.851721 -8.429277 -2.223131 0
M  V30 59 H -2.771372 -3.164329 -5.673493 0
M  V30 60 H -4.552508 -3.672712 -5.493455 0
M  V30 61 H -3.301817 -4.730845 -6.281539 0
M  V30 62 H -1.401636 3.791427 1.211424 0
M  V30 63 H 0.053287 3.814380 0.184052 0
M  V30 64 H -0.243946 4.554215 3.029374 0
M  V30 65 H 1.115400 4.766985 1.928850 0
M  V30 END ATOM
M  V30 BEGIN BOND
M  V30 1 1 1 2
M  V30 2 1 2 3
M  V30 3 2 3 4
M  V30 4 1 4 5
M  V30 5 2 5 6
M  V30 6 1 6 7
M  V30 7 2 7 8
M  V30 8 1 8 9
M  V30 9 1 9 10
M  V30 10 1 10 11
M  V30 11 1 11 12
M  V30 12 1 12 13
M  V30 13 2 13 14
M  V30 14 1 13 15
M  V30 15 1 15 16
M  V30 16 1 16 17
M  V30 17 1 16 18
M  V30 18 2 18 19
M  V30 19 2 18 20
M  V30 20 1 18 21
M  V30 21 2 21 22
M  V30 22 1 22 23
M  V30 23 2 23 24
M  V30 24 1 24 25
M  V30 25 2 25 26
M  V30 26 1 25 27
M  V30 27 2 27 28
M  V30 28 1 27 29
M  V30 29 1 29 30
M  V30 30 1 29 31
M  V30 31 2 31 32
M  V30 32 1 31 33
M  V30 33 1 33 34
M  V30 34 1 12 35
M  V30 35 1 35 36
M  V30 36 1 8 3
M  V30 37 1 36 9
M  V30 38 1 26 21
M  V30 39 1 33 24
M  V30 40 1 1 37
M  V30 41 1 1 38
M  V30 42 1 1 39
M  V30 43 1 4 40
M  V30 44 1 5 41
M  V30 45 1 6 42
M  V30 46 1 7 43
M  V30 47 1 10 44
M  V30 48 1 10 45
M  V30 49 1 11 46
M  V30 50 1 11 47
M  V30 51 1 15 48
M  V30 52 1 15 49
M  V30 53 1 17 50
M  V30 54 1 17 51
M  V30 55 1 17 52
M  V30 56 1 22 53
M  V30 57 1 23 54
M  V30 58 1 26 55
M  V30 59 1 30 56
M  V30 60 1 30 57
M  V30 61 1 30 58
M  V30 62 1 34 59
M  V30 63 1 34 60
M  V30 64 1 34 61
M  V30 65 1 35 62
M  V30 66 1 35 63
M  V30 67 1 36 64
M  V30 68 1 36 65
M  V30 END BOND
M  V30 END CTAB
M  END
>  <Dataset>  (899) 
ChEMBL_Kinases

>  <Ligand_Instance>  (899) 
nan

>  <PDB_ID>  (899) 
nan

>  <Standardized_SMILES>  (899) 
COc1ccccc1N1CCN(C(=O)CN(C)S(=O)(=O)c2ccc3c(c2)c(=O)n(C)c(=O)n3C)CC1

>  <Name>  (899) 
nan

>  <Pocket>  (899) 
nan

>  <ATP_Site>  (899) 
nan

>  <Peripheral>  (899) 
nan

>  <Num_H_Atoms_ProtBoundConf>  (899) 
nan

>  <Num_Resolved_Atoms>  (899) 
nan

>  <Num_Not_Resolved_Atoms>  (899) 
nan

$$$$
CHEMBL1319748
     RDKit          3D

  0  0  0  0  0  0  0  0  0  0999 V3000
M  V30 BEGIN CTAB
M  V30 COUNTS 60 63 0 0 0
M  V30 BEGIN ATOM
M  V30 1 C 5.258985 -0.886221 6.204528 0
M  V30 2 C 5.077372 -0.076431 4.971507 0
M  V30 3 C 5.701917 1.126831 4.825145 0
M  V30 4 C 5.382580 1.680722 3.614564 0
M  V30 5 C 4.526770 0.744854 3.032035 0
M  V30 6 C 3.815279 0.686057 1.757034 0
M  V30 7 N 3.907596 -0.284109 0.830075 0
M  V30 8 N 3.100048 0.022887 -0.198057 0
M  V30 9 N 2.503535 1.174225 0.074489 0
M  V30 10 C 1.542978 1.963650 -0.666176 0
M  V30 11 C 0.146154 1.631393 -0.358939 0
M  V30 12 O -0.171682 2.289810 0.697354 0
M  V30 13 N -0.837485 0.783060 -0.965790 0
M  V30 14 C -2.136984 0.717570 -0.338368 0
M  V30 15 C -2.282700 -0.321834 0.680434 0
M  V30 16 O -1.639151 -1.245537 1.236003 0
M  V30 17 N -3.587603 -0.305763 1.259361 0
M  V30 18 C -4.076997 -1.192878 2.291726 0
M  V30 19 C -4.457870 -2.495371 1.703399 0
M  V30 20 C -5.791384 -2.443467 1.275022 0
M  V30 21 C -6.441322 -3.535158 0.683801 0
M  V30 22 C -5.686818 -4.680253 0.543571 0
M  V30 23 C -4.372565 -4.775185 0.950463 0
M  V30 24 C -3.777738 -3.676390 1.526405 0
M  V30 25 C -0.385095 0.126058 -2.139205 0
M  V30 26 C -0.655836 0.941010 -3.251039 0
M  V30 27 C -0.314047 0.537123 -4.532938 0
M  V30 28 C 0.300965 -0.671436 -4.769585 0
M  V30 29 C 0.555676 -1.448782 -3.673196 0
M  V30 30 C 1.218060 -2.798459 -3.700288 0
M  V30 31 C 0.229959 -1.078519 -2.388570 0
M  V30 32 C 0.467386 -1.858883 -1.148914 0
M  V30 33 N 2.936763 1.576232 1.259190 0
M  V30 34 O 4.404763 -0.238449 3.882605 0
M  V30 35 H 6.157781 -1.543013 6.146621 0
M  V30 36 H 4.363001 -1.530779 6.308843 0
M  V30 37 H 5.282740 -0.209255 7.083687 0
M  V30 38 H 6.378237 1.702643 5.465238 0
M  V30 39 H 5.578536 2.558768 3.018378 0
M  V30 40 H 1.752710 3.026467 -0.560180 0
M  V30 41 H 1.687816 1.757499 -1.778946 0
M  V30 42 H -2.933139 0.625642 -1.131853 0
M  V30 43 H -2.344794 1.735592 0.105426 0
M  V30 44 H -4.361700 0.374322 0.988749 0
M  V30 45 H -4.866770 -0.762177 2.925198 0
M  V30 46 H -3.155451 -1.418979 2.927562 0
M  V30 47 H -6.478693 -1.583759 1.339431 0
M  V30 48 H -7.451308 -3.531972 0.346207 0
M  V30 49 H -6.068282 -5.591613 0.104717 0
M  V30 50 H -3.773151 -5.666473 0.845400 0
M  V30 51 H -2.764418 -3.614487 1.891860 0
M  V30 52 H -1.131533 1.917464 -3.254742 0
M  V30 53 H -0.507036 1.142128 -5.426765 0
M  V30 54 H 0.597187 -1.058102 -5.733755 0
M  V30 55 H 2.193893 -2.680141 -3.183622 0
M  V30 56 H 1.359187 -3.149685 -4.720163 0
M  V30 57 H 0.619123 -3.524283 -3.085657 0
M  V30 58 H 1.229246 -2.656684 -1.281077 0
M  V30 59 H -0.500588 -2.414924 -0.970936 0
M  V30 60 H 0.632571 -1.237520 -0.272398 0
M  V30 END ATOM
M  V30 BEGIN BOND
M  V30 1 1 1 2
M  V30 2 2 2 3
M  V30 3 1 3 4
M  V30 4 2 4 5
M  V30 5 1 5 6
M  V30 6 1 6 7
M  V30 7 2 7 8
M  V30 8 1 8 9
M  V30 9 1 9 10
M  V30 10 1 10 11
M  V30 11 2 11 12
M  V30 12 1 11 13
M  V30 13 1 13 14
M  V30 14 1 14 15
M  V30 15 2 15 16
M  V30 16 1 15 17
M  V30 17 1 17 18
M  V30 18 1 18 19
M  V30 19 2 19 20
M  V30 20 1 20 21
M  V30 21 2 21 22
M  V30 22 1 22 23
M  V30 23 2 23 24
M  V30 24 1 13 25
M  V30 25 2 25 26
M  V30 26 1 26 27
M  V30 27 2 27 28
M  V30 28 1 28 29
M  V30 29 1 29 30
M  V30 30 2 29 31
M  V30 31 1 31 32
M  V30 32 1 9 33
M  V30 33 1 5 34
M  V30 34 1 34 2
M  V30 35 2 33 6
M  V30 36 1 24 19
M  V30 37 1 31 25
M  V30 38 1 1 35
M  V30 39 1 1 36
M  V30 40 1 1 37
M  V30 41 1 3 38
M  V30 42 1 4 39
M  V30 43 1 10 40
M  V30 44 1 10 41
M  V30 45 1 14 42
M  V30 46 1 14 43
M  V30 47 1 17 44
M  V30 48 1 18 45
M  V30 49 1 18 46
M  V30 50 1 20 47
M  V30 51 1 21 48
M  V30 52 1 22 49
M  V30 53 1 23 50
M  V30 54 1 24 51
M  V30 55 1 26 52
M  V30 56 1 27 53
M  V30 57 1 28 54
M  V30 58 1 30 55
M  V30 59 1 30 56
M  V30 60 1 30 57
M  V30 61 1 32 58
M  V30 62 1 32 59
M  V30 63 1 32 60
M  V30 END BOND
M  V30 END CTAB
M  END
>  <Dataset>  (900) 
ChEMBL_Kinases

>  <Ligand_Instance>  (900) 
nan

>  <PDB_ID>  (900) 
nan

>  <Standardized_SMILES>  (900) 
Cc1ccc(-c2nnn(CC(=O)N(CC(=O)NCc3ccccc3)c3cccc(C)c3C)n2)o1

>  <Name>  (900) 
nan

>  <Pocket>  (900) 
nan

>  <ATP_Site>  (900) 
nan

>  <Peripheral>  (900) 
nan

>  <Num_H_Atoms_ProtBoundConf>  (900) 
nan

>  <Num_Resolved_Atoms>  (900) 
nan

>  <Num_Not_Resolved_Atoms>  (900) 
nan

$$$$
CHEMBL1319645
     RDKit          3D

  0  0  0  0  0  0  0  0  0  0999 V3000
M  V30 BEGIN CTAB
M  V30 COUNTS 33 35 0 0 0
M  V30 BEGIN ATOM
M  V30 1 C -2.426799 -5.092365 3.086465 0
M  V30 2 O -2.690011 -4.498392 1.830750 0
M  V30 3 C -1.881173 -3.499986 1.308670 0
M  V30 4 C -0.766198 -3.000166 1.948799 0
M  V30 5 C 0.033753 -2.007133 1.423779 0
M  V30 6 C -0.269924 -1.461711 0.193120 0
M  V30 7 C 0.400030 -0.407095 -0.557700 0
M  V30 8 C 0.728757 -0.763207 -1.874072 0
M  V30 9 C 1.398178 0.141173 -2.707333 0
M  V30 10 O 1.667584 -0.228113 -3.873312 0
M  V30 11 O 1.713480 1.326506 -2.239591 0
M  V30 12 C 1.427898 1.698961 -1.026379 0
M  V30 13 C 1.733405 2.931000 -0.483301 0
M  V30 14 O 2.406758 3.854627 -1.302679 0
M  V30 15 C 1.418263 3.305176 0.807692 0
M  V30 16 O 1.779086 4.573292 1.239178 0
M  V30 17 C 0.753041 2.406703 1.632453 0
M  V30 18 C 0.435921 1.171201 1.118644 0
M  V30 19 C 0.772983 0.860338 -0.159105 0
M  V30 20 C -1.398098 -1.970735 -0.450061 0
M  V30 21 C -2.196397 -2.964541 0.077723 0
M  V30 22 H -1.547129 -5.778728 2.929184 0
M  V30 23 H -2.073104 -4.340468 3.823098 0
M  V30 24 H -3.315199 -5.625736 3.435515 0
M  V30 25 H -0.497377 -3.402387 2.914097 0
M  V30 26 H 0.902954 -1.607562 1.885827 0
M  V30 27 H 0.477954 -1.744317 -2.289985 0
M  V30 28 H 3.363313 4.124093 -1.035912 0
M  V30 29 H 1.959617 4.748805 2.227909 0
M  V30 30 H 0.515983 2.720314 2.638484 0
M  V30 31 H -0.080631 0.513229 1.778172 0
M  V30 32 H -1.738743 -1.616811 -1.431719 0
M  V30 33 H -3.067197 -3.348037 -0.433305 0
M  V30 END ATOM
M  V30 BEGIN BOND
M  V30 1 1 1 2
M  V30 2 1 2 3
M  V30 3 2 3 4
M  V30 4 1 4 5
M  V30 5 2 5 6
M  V30 6 1 6 7
M  V30 7 2 7 8
M  V30 8 1 8 9
M  V30 9 2 9 10
M  V30 10 1 9 11
M  V30 11 1 11 12
M  V30 12 2 12 13
M  V30 13 1 13 14
M  V30 14 1 13 15
M  V30 15 1 15 16
M  V30 16 2 15 17
M  V30 17 1 17 18
M  V30 18 2 18 19
M  V30 19 1 6 20
M  V30 20 2 20 21
M  V30 21 1 21 3
M  V30 22 1 19 7
M  V30 23 1 19 12
M  V30 24 1 1 22
M  V30 25 1 1 23
M  V30 26 1 1 24
M  V30 27 1 4 25
M  V30 28 1 5 26
M  V30 29 1 8 27
M  V30 30 1 14 28
M  V30 31 1 16 29
M  V30 32 1 17 30
M  V30 33 1 18 31
M  V30 34 1 20 32
M  V30 35 1 21 33
M  V30 END BOND
M  V30 END CTAB
M  END
>  <Dataset>  (901) 
ChEMBL_Kinases

>  <Ligand_Instance>  (901) 
nan

>  <PDB_ID>  (901) 
nan

>  <Standardized_SMILES>  (901) 
COc1ccc(-c2cc(=O)oc3c(O)c(O)ccc23)cc1

>  <Name>  (901) 
nan

>  <Pocket>  (901) 
nan

>  <ATP_Site>  (901) 
nan

>  <Peripheral>  (901) 
nan

>  <Num_H_Atoms_ProtBoundConf>  (901) 
nan

>  <Num_Resolved_Atoms>  (901) 
nan

>  <Num_Not_Resolved_Atoms>  (901) 
nan

$$$$
CHEMBL1319623
     RDKit          3D

  0  0  0  0  0  0  0  0  0  0999 V3000
M  V30 BEGIN CTAB
M  V30 COUNTS 45 48 0 0 0
M  V30 BEGIN ATOM
M  V30 1 C 0.364741 -7.871211 -3.095083 0
M  V30 2 O 0.188229 -7.053067 -1.953040 0
M  V30 3 C 0.479736 -5.688974 -1.973603 0
M  V30 4 C 0.976782 -4.787546 -2.965648 0
M  V30 5 C 1.229071 -3.341335 -2.814379 0
M  V30 6 C 0.888723 -3.102992 -1.567938 0
M  V30 7 C 1.234544 -1.637139 -1.635190 0
M  V30 8 C 1.731781 -0.731285 -2.634500 0
M  V30 9 S 1.813683 0.911491 -1.694245 0
M  V30 10 C 1.189585 0.117472 -0.187640 0
M  V30 11 N 1.028178 0.902714 1.008775 0
M  V30 12 C 1.590990 2.261672 0.922081 0
M  V30 13 C 1.790311 2.815916 2.318295 0
M  V30 14 N 0.603106 2.549385 3.127248 0
M  V30 15 C -0.196473 3.707073 3.404943 0
M  V30 16 O 0.402285 4.665802 2.863538 0
M  V30 17 C -1.413348 3.970679 4.099786 0
M  V30 18 C -1.838872 3.945532 5.465197 0
M  V30 19 C -3.159389 4.301241 5.565587 0
M  V30 20 C -3.520269 4.539524 4.262050 0
M  V30 21 O -2.518808 4.339356 3.525198 0
M  V30 22 C 0.565769 1.123024 3.431488 0
M  V30 23 C 0.353179 0.369611 2.170086 0
M  V30 24 N 1.050000 -0.987395 -0.540890 0
M  V30 25 C 0.414954 -3.810720 -0.522578 0
M  V30 26 C 0.195276 -5.149827 -0.705628 0
M  V30 27 H -0.530865 -7.815151 -3.769053 0
M  V30 28 H 0.417010 -8.918020 -2.739314 0
M  V30 29 H 1.263959 -7.660182 -3.677163 0
M  V30 30 H 1.061016 -5.577699 -3.761731 0
M  V30 31 H 1.521247 -3.456445 -3.840165 0
M  V30 32 H 1.954251 -1.086857 -3.648052 0
M  V30 33 H 0.846119 2.841337 0.367252 0
M  V30 34 H 2.540740 2.208401 0.398438 0
M  V30 35 H 1.973222 3.898373 2.178942 0
M  V30 36 H 2.660779 2.328368 2.796037 0
M  V30 37 H -1.110445 3.661503 6.227932 0
M  V30 38 H -3.724890 4.361458 6.483738 0
M  V30 39 H -4.538902 4.852767 3.983642 0
M  V30 40 H -0.305620 0.913721 4.100733 0
M  V30 41 H 1.458958 0.806345 4.000193 0
M  V30 42 H 0.556093 -0.729489 2.291465 0
M  V30 43 H -0.747657 0.429137 1.922233 0
M  V30 44 H 0.271247 -3.181336 0.339880 0
M  V30 45 H -0.181192 -5.608236 0.191230 0
M  V30 END ATOM
M  V30 BEGIN BOND
M  V30 1 1 1 2
M  V30 2 1 2 3
M  V30 3 2 3 4
M  V30 4 1 4 5
M  V30 5 2 5 6
M  V30 6 1 6 7
M  V30 7 2 7 8
M  V30 8 1 8 9
M  V30 9 1 9 10
M  V30 10 1 10 11
M  V30 11 1 11 12
M  V30 12 1 12 13
M  V30 13 1 13 14
M  V30 14 1 14 15
M  V30 15 2 15 16
M  V30 16 1 15 17
M  V30 17 2 17 18
M  V30 18 1 18 19
M  V30 19 2 19 20
M  V30 20 1 20 21
M  V30 21 1 14 22
M  V30 22 1 22 23
M  V30 23 2 10 24
M  V30 24 1 6 25
M  V30 25 2 25 26
M  V30 26 1 26 3
M  V30 27 1 24 7
M  V30 28 1 23 11
M  V30 29 1 21 17
M  V30 30 1 1 27
M  V30 31 1 1 28
M  V30 32 1 1 29
M  V30 33 1 4 30
M  V30 34 1 5 31
M  V30 35 1 8 32
M  V30 36 1 12 33
M  V30 37 1 12 34
M  V30 38 1 13 35
M  V30 39 1 13 36
M  V30 40 1 18 37
M  V30 41 1 19 38
M  V30 42 1 20 39
M  V30 43 1 22 40
M  V30 44 1 22 41
M  V30 45 1 23 42
M  V30 46 1 23 43
M  V30 47 1 25 44
M  V30 48 1 26 45
M  V30 END BOND
M  V30 END CTAB
M  END
>  <Dataset>  (902) 
ChEMBL_Kinases

>  <Ligand_Instance>  (902) 
nan

>  <PDB_ID>  (902) 
nan

>  <Standardized_SMILES>  (902) 
COc1ccc(-c2csc(N3CCN(C(=O)c4ccco4)CC3)n2)cc1

>  <Name>  (902) 
nan

>  <Pocket>  (902) 
nan

>  <ATP_Site>  (902) 
nan

>  <Peripheral>  (902) 
nan

>  <Num_H_Atoms_ProtBoundConf>  (902) 
nan

>  <Num_Resolved_Atoms>  (902) 
nan

>  <Num_Not_Resolved_Atoms>  (902) 
nan

$$$$
CHEMBL1319607
     RDKit          3D

  0  0  0  0  0  0  0  0  0  0999 V3000
M  V30 BEGIN CTAB
M  V30 COUNTS 30 31 0 0 0
M  V30 BEGIN ATOM
M  V30 1 C -2.444394 -1.374035 0.452598 0
M  V30 2 C -1.820567 -2.198823 1.540073 0
M  V30 3 O -0.474613 -1.831500 1.674867 0
M  V30 4 C 0.373796 -2.420163 2.604989 0
M  V30 5 O -0.301059 -3.277758 3.231349 0
M  V30 6 C 1.787200 -2.166068 2.882148 0
M  V30 7 C 2.348708 -1.091747 1.987702 0
M  V30 8 S 2.206187 -1.575677 0.242934 0
M  V30 9 C 1.305585 -0.231637 -0.530576 0
M  V30 10 C 1.113735 -0.454712 -1.882382 0
M  V30 11 C 0.437300 0.460432 -2.683013 0
M  V30 12 C -0.064341 1.634760 -2.121660 0
M  V30 13 C 0.146350 1.821334 -0.773224 0
M  V30 14 C 0.813394 0.927540 0.036449 0
M  V30 15 N 1.049519 1.080249 1.415955 0
M  V30 16 C 1.682300 0.212846 2.138271 0
M  V30 17 S 1.838939 0.660000 3.859205 0
M  V30 18 H -1.655605 -0.948089 -0.184514 0
M  V30 19 H -3.180737 -1.941657 -0.153986 0
M  V30 20 H -2.986005 -0.532162 0.954967 0
M  V30 21 H -1.920831 -3.276808 1.246770 0
M  V30 22 H -2.377175 -2.124961 2.508092 0
M  V30 23 H 2.357764 -3.092639 2.654104 0
M  V30 24 H 2.015453 -1.900715 3.927496 0
M  V30 25 H 3.420386 -0.947100 2.175467 0
M  V30 26 H 1.447195 -1.323840 -2.461788 0
M  V30 27 H 0.263881 0.328438 -3.742664 0
M  V30 28 H -0.598493 2.375450 -2.711872 0
M  V30 29 H -0.219853 2.716083 -0.276115 0
M  V30 30 H 0.638856 0.475820 4.571263 0
M  V30 END ATOM
M  V30 BEGIN BOND
M  V30 1 1 1 2
M  V30 2 1 2 3
M  V30 3 1 3 4
M  V30 4 2 4 5
M  V30 5 1 4 6
M  V30 6 1 6 7
M  V30 7 1 7 8
M  V30 8 1 8 9
M  V30 9 2 9 10
M  V30 10 1 10 11
M  V30 11 2 11 12
M  V30 12 1 12 13
M  V30 13 2 13 14
M  V30 14 1 14 15
M  V30 15 2 15 16
M  V30 16 1 16 17
M  V30 17 1 16 7
M  V30 18 1 14 9
M  V30 19 1 1 18
M  V30 20 1 1 19
M  V30 21 1 1 20
M  V30 22 1 2 21
M  V30 23 1 2 22
M  V30 24 1 6 23
M  V30 25 1 6 24
M  V30 26 1 7 25
M  V30 27 1 10 26
M  V30 28 1 11 27
M  V30 29 1 12 28
M  V30 30 1 13 29
M  V30 31 1 17 30
M  V30 END BOND
M  V30 END CTAB
M  END
>  <Dataset>  (903) 
ChEMBL_Kinases

>  <Ligand_Instance>  (903) 
nan

>  <PDB_ID>  (903) 
nan

>  <Standardized_SMILES>  (903) 
CCOC(=O)CC1Sc2ccccc2N=C1S

>  <Name>  (903) 
nan

>  <Pocket>  (903) 
nan

>  <ATP_Site>  (903) 
nan

>  <Peripheral>  (903) 
nan

>  <Num_H_Atoms_ProtBoundConf>  (903) 
nan

>  <Num_Resolved_Atoms>  (903) 
nan

>  <Num_Not_Resolved_Atoms>  (903) 
nan

$$$$
CHEMBL1319320
     RDKit          3D

  0  0  0  0  0  0  0  0  0  0999 V3000
M  V30 BEGIN CTAB
M  V30 COUNTS 57 60 0 0 0
M  V30 BEGIN ATOM
M  V30 1 C -2.464602 0.976046 3.042131 0
M  V30 2 C -1.023183 0.884467 3.500349 0
M  V30 3 O -0.158356 0.554693 2.426731 0
M  V30 4 C 1.216553 0.431891 2.687810 0
M  V30 5 O 1.685974 0.606937 3.841642 0
M  V30 6 C 2.076914 0.079956 1.499927 0
M  V30 7 C 3.519646 -0.019887 1.900940 0
M  V30 8 C 4.153313 1.186379 2.481501 0
M  V30 9 C 4.264993 2.420821 1.715212 0
M  V30 10 C 5.535224 1.636851 2.085378 0
M  V30 11 C 1.884732 1.106865 0.447943 0
M  V30 12 C 0.526967 1.068182 -0.231071 0
M  V30 13 N 0.159029 -0.291493 -0.498113 0
M  V30 14 C -1.236465 -0.454691 -0.727278 0
M  V30 15 O -1.686042 0.718000 -0.609166 0
M  V30 16 C -2.015385 -1.636186 -1.025979 0
M  V30 17 C -2.515861 -2.321305 0.087290 0
M  V30 18 C -3.276927 -3.473763 -0.140332 0
M  V30 19 O -3.753722 -4.122195 1.000741 0
M  V30 20 C -4.526682 -5.290510 0.817147 0
M  V30 21 N -3.527082 -3.919723 -1.384918 0
M  V30 22 C -3.053549 -3.273535 -2.477096 0
M  V30 23 C -3.294454 -3.707003 -3.757644 0
M  V30 24 C -2.805510 -3.037229 -4.856431 0
M  V30 25 C -2.047972 -1.889756 -4.626038 0
M  V30 26 C -1.789250 -1.430553 -3.359237 0
M  V30 27 C -2.290187 -2.120124 -2.292000 0
M  V30 28 C 1.283117 -1.219482 -0.477938 0
M  V30 29 C 1.687171 -1.302899 0.993838 0
M  V30 30 H -2.969216 -0.006860 3.210124 0
M  V30 31 H -2.527387 1.273888 1.976155 0
M  V30 32 H -3.040161 1.744993 3.615400 0
M  V30 33 H -0.952687 0.206493 4.361193 0
M  V30 34 H -0.737463 1.930326 3.804331 0
M  V30 35 H 4.161307 -0.363908 1.044065 0
M  V30 36 H 3.673363 -0.848351 2.662562 0
M  V30 37 H 4.001615 1.314239 3.595331 0
M  V30 38 H 4.210522 2.550504 0.636057 0
M  V30 39 H 4.080717 3.376492 2.259123 0
M  V30 40 H 6.182982 2.175054 2.787400 0
M  V30 41 H 6.061338 1.068863 1.307228 0
M  V30 42 H 2.682566 1.029793 -0.305664 0
M  V30 43 H 1.938952 2.125093 0.893396 0
M  V30 44 H -0.236074 1.668618 0.283317 0
M  V30 45 H 0.670622 1.567875 -1.234162 0
M  V30 46 H -2.322021 -1.971843 1.095011 0
M  V30 47 H -4.088289 -6.148577 1.405555 0
M  V30 48 H -5.564844 -5.199706 1.215001 0
M  V30 49 H -4.549389 -5.610054 -0.228229 0
M  V30 50 H -3.884800 -4.600986 -3.925925 0
M  V30 51 H -2.974872 -3.349508 -5.886595 0
M  V30 52 H -1.649304 -1.341804 -5.493330 0
M  V30 53 H -1.191588 -0.527404 -3.216950 0
M  V30 54 H 2.128485 -0.788140 -1.033381 0
M  V30 55 H 1.018350 -2.214995 -0.838955 0
M  V30 56 H 2.525750 -2.027175 1.015238 0
M  V30 57 H 0.885137 -1.707425 1.622457 0
M  V30 END ATOM
M  V30 BEGIN BOND
M  V30 1 1 1 2
M  V30 2 1 2 3
M  V30 3 1 3 4
M  V30 4 2 4 5
M  V30 5 1 4 6
M  V30 6 1 6 7
M  V30 7 1 7 8
M  V30 8 1 8 9
M  V30 9 1 9 10
M  V30 10 1 6 11
M  V30 11 1 11 12
M  V30 12 1 12 13
M  V30 13 1 13 14
M  V30 14 2 14 15
M  V30 15 1 14 16
M  V30 16 2 16 17
M  V30 17 1 17 18
M  V30 18 1 18 19
M  V30 19 1 19 20
M  V30 20 2 18 21
M  V30 21 1 21 22
M  V30 22 2 22 23
M  V30 23 1 23 24
M  V30 24 2 24 25
M  V30 25 1 25 26
M  V30 26 2 26 27
M  V30 27 1 13 28
M  V30 28 1 28 29
M  V30 29 1 29 6
M  V30 30 1 10 8
M  V30 31 1 27 16
M  V30 32 1 27 22
M  V30 33 1 1 30
M  V30 34 1 1 31
M  V30 35 1 1 32
M  V30 36 1 2 33
M  V30 37 1 2 34
M  V30 38 1 7 35
M  V30 39 1 7 36
M  V30 40 1 8 37
M  V30 41 1 9 38
M  V30 42 1 9 39
M  V30 43 1 10 40
M  V30 44 1 10 41
M  V30 45 1 11 42
M  V30 46 1 11 43
M  V30 47 1 12 44
M  V30 48 1 12 45
M  V30 49 1 17 46
M  V30 50 1 20 47
M  V30 51 1 20 48
M  V30 52 1 20 49
M  V30 53 1 23 50
M  V30 54 1 24 51
M  V30 55 1 25 52
M  V30 56 1 26 53
M  V30 57 1 28 54
M  V30 58 1 28 55
M  V30 59 1 29 56
M  V30 60 1 29 57
M  V30 END BOND
M  V30 END CTAB
M  END
>  <Dataset>  (904) 
ChEMBL_Kinases

>  <Ligand_Instance>  (904) 
nan

>  <PDB_ID>  (904) 
nan

>  <Standardized_SMILES>  (904) 
CCOC(=O)C1(CC2CC2)CCN(C(=O)c2cc(OC)nc3ccccc23)CC1

>  <Name>  (904) 
nan

>  <Pocket>  (904) 
nan

>  <ATP_Site>  (904) 
nan

>  <Peripheral>  (904) 
nan

>  <Num_H_Atoms_ProtBoundConf>  (904) 
nan

>  <Num_Resolved_Atoms>  (904) 
nan

>  <Num_Not_Resolved_Atoms>  (904) 
nan

$$$$
CHEMBL1319281
     RDKit          3D

  0  0  0  0  0  0  0  0  0  0999 V3000
M  V30 BEGIN CTAB
M  V30 COUNTS 31 33 0 0 0
M  V30 BEGIN ATOM
M  V30 1 O -1.341927 -0.843617 0.958545 0
M  V30 2 C -0.221231 -1.408340 1.141173 0
M  V30 3 N 0.251478 -2.503919 0.365004 0
M  V30 4 C -0.549364 -3.045560 -0.705888 0
M  V30 5 C -0.484761 -2.140323 -1.876943 0
M  V30 6 C 0.473540 -2.272615 -2.860254 0
M  V30 7 C 0.595327 -1.469928 -3.975393 0
M  V30 8 C -0.357818 -0.462469 -4.055651 0
M  V30 9 C -1.332784 -0.302502 -3.085840 0
M  V30 10 N -1.391696 -1.136978 -2.007285 0
M  V30 11 C 0.664114 -0.918358 2.216808 0
M  V30 12 N 1.893976 -1.383947 2.570079 0
M  V30 13 N 2.370311 -0.684296 3.583809 0
M  V30 14 C 1.489667 0.274137 3.953649 0
M  V30 15 C 1.545388 1.233625 4.946507 0
M  V30 16 C 0.453301 2.088508 5.072409 0
M  V30 17 C -0.630322 1.957781 4.222043 0
M  V30 18 C -0.649516 0.982114 3.237382 0
M  V30 19 C 0.419664 0.124598 3.093547 0
M  V30 20 H 1.166737 -2.917829 0.561451 0
M  V30 21 H -0.241044 -4.045584 -1.019921 0
M  V30 22 H -1.630209 -3.132141 -0.393141 0
M  V30 23 H 1.205643 -3.076518 -2.762328 0
M  V30 24 H 1.364826 -1.618953 -4.713442 0
M  V30 25 H -0.324776 0.207434 -4.904967 0
M  V30 26 H -2.061847 0.505323 -3.191834 0
M  V30 27 H 2.375244 -2.190443 2.086029 0
M  V30 28 H 2.439213 1.252066 5.559173 0
M  V30 29 H 0.573943 2.809207 5.870796 0
M  V30 30 H -1.405573 2.673919 4.420586 0
M  V30 31 H -1.504867 0.921297 2.609360 0
M  V30 END ATOM
M  V30 BEGIN BOND
M  V30 1 2 1 2
M  V30 2 1 2 3
M  V30 3 1 3 4
M  V30 4 1 4 5
M  V30 5 2 5 6
M  V30 6 1 6 7
M  V30 7 2 7 8
M  V30 8 1 8 9
M  V30 9 2 9 10
M  V30 10 1 2 11
M  V30 11 1 11 12
M  V30 12 1 12 13
M  V30 13 2 13 14
M  V30 14 1 14 15
M  V30 15 2 15 16
M  V30 16 1 16 17
M  V30 17 2 17 18
M  V30 18 1 18 19
M  V30 19 1 10 5
M  V30 20 2 19 11
M  V30 21 1 19 14
M  V30 22 1 3 20
M  V30 23 1 4 21
M  V30 24 1 4 22
M  V30 25 1 6 23
M  V30 26 1 7 24
M  V30 27 1 8 25
M  V30 28 1 9 26
M  V30 29 1 12 27
M  V30 30 1 15 28
M  V30 31 1 16 29
M  V30 32 1 17 30
M  V30 33 1 18 31
M  V30 END BOND
M  V30 END CTAB
M  END
>  <Dataset>  (905) 
ChEMBL_Kinases

>  <Ligand_Instance>  (905) 
nan

>  <PDB_ID>  (905) 
nan

>  <Standardized_SMILES>  (905) 
O=C(NCc1ccccn1)c1[nH]nc2ccccc12

>  <Name>  (905) 
nan

>  <Pocket>  (905) 
nan

>  <ATP_Site>  (905) 
nan

>  <Peripheral>  (905) 
nan

>  <Num_H_Atoms_ProtBoundConf>  (905) 
nan

>  <Num_Resolved_Atoms>  (905) 
nan

>  <Num_Not_Resolved_Atoms>  (905) 
nan

$$$$
CHEMBL1319259
     RDKit          3D

  0  0  0  0  0  0  0  0  0  0999 V3000
M  V30 BEGIN CTAB
M  V30 COUNTS 51 54 0 0 0
M  V30 BEGIN ATOM
M  V30 1 C -0.154579 -2.753522 6.436561 0
M  V30 2 C 0.776409 -2.246187 5.380378 0
M  V30 3 C 1.367831 -3.208980 4.616946 0
M  V30 4 C 2.256567 -2.863431 3.598660 0
M  V30 5 C 2.481598 -1.508298 3.432013 0
M  V30 6 N 3.373695 -0.996262 2.421715 0
M  V30 7 C 2.669152 -0.764917 1.233524 0
M  V30 8 O 1.514408 -0.834457 0.687918 0
M  V30 9 C 3.043373 -0.257536 -0.104376 0
M  V30 10 N 1.840570 -0.256698 -0.901452 0
M  V30 11 C 1.027046 0.822399 -0.944089 0
M  V30 12 C -0.134077 0.902623 -1.676922 0
M  V30 13 S -1.110169 2.377779 -1.645014 0
M  V30 14 O -0.444529 3.421450 -0.798243 0
M  V30 15 O -1.107314 2.887542 -3.055740 0
M  V30 16 C -2.705133 2.057414 -1.052128 0
M  V30 17 C -3.822744 1.699679 -1.778839 0
M  V30 18 C -5.040055 1.473192 -1.171585 0
M  V30 19 C -5.184832 1.598590 0.206610 0
M  V30 20 F -6.372314 1.379410 0.814048 0
M  V30 21 C -4.074961 1.957381 0.958558 0
M  V30 22 C -2.873573 2.175806 0.315543 0
M  V30 23 C -0.527575 -0.156982 -2.425501 0
M  V30 24 O -1.568809 -0.164146 -3.119078 0
M  V30 25 C 0.289388 -1.262792 -2.392883 0
M  V30 26 C -0.037204 -2.397265 -3.131574 0
M  V30 27 C 0.741267 -3.539331 -3.141173 0
M  V30 28 F 0.379388 -4.618276 -3.877709 0
M  V30 29 C 1.894412 -3.592986 -2.401403 0
M  V30 30 C 2.227897 -2.457915 -1.657865 0
M  V30 31 C 1.450024 -1.320171 -1.649860 0
M  V30 32 C 1.893276 -0.521135 4.193564 0
M  V30 33 C 1.011600 -0.896873 5.201391 0
M  V30 34 H -0.911124 -3.395336 5.898033 0
M  V30 35 H -0.644860 -1.926806 6.984851 0
M  V30 36 H 0.385781 -3.438096 7.115458 0
M  V30 37 H 1.201416 -4.271731 4.735829 0
M  V30 38 H 2.765235 -3.556988 2.951732 0
M  V30 39 H 4.364848 -0.731929 2.250834 0
M  V30 40 H 3.921031 -0.710468 -0.558047 0
M  V30 41 H 3.320204 0.820895 0.059640 0
M  V30 42 H 1.285393 1.709876 -0.364333 0
M  V30 43 H -3.647914 1.616576 -2.857423 0
M  V30 44 H -5.888215 1.194719 -1.782955 0
M  V30 45 H -4.200585 2.051265 2.026437 0
M  V30 46 H -2.073379 2.449621 0.987393 0
M  V30 47 H -0.944374 -2.425187 -3.745816 0
M  V30 48 H 2.537836 -4.456530 -2.372333 0
M  V30 49 H 3.125103 -2.512603 -1.088244 0
M  V30 50 H 2.073567 0.529935 4.057563 0
M  V30 51 H 0.497707 -0.209028 5.854044 0
M  V30 END ATOM
M  V30 BEGIN BOND
M  V30 1 1 1 2
M  V30 2 2 2 3
M  V30 3 1 3 4
M  V30 4 2 4 5
M  V30 5 1 5 6
M  V30 6 1 6 7
M  V30 7 2 7 8
M  V30 8 1 7 9
M  V30 9 1 9 10
M  V30 10 1 10 11
M  V30 11 2 11 12
M  V30 12 1 12 13
M  V30 13 2 13 14
M  V30 14 2 13 15
M  V30 15 1 13 16
M  V30 16 2 16 17
M  V30 17 1 17 18
M  V30 18 2 18 19
M  V30 19 1 19 20
M  V30 20 1 19 21
M  V30 21 2 21 22
M  V30 22 1 12 23
M  V30 23 2 23 24
M  V30 24 1 23 25
M  V30 25 2 25 26
M  V30 26 1 26 27
M  V30 27 1 27 28
M  V30 28 2 27 29
M  V30 29 1 29 30
M  V30 30 2 30 31
M  V30 31 1 5 32
M  V30 32 2 32 33
M  V30 33 1 33 2
M  V30 34 1 31 10
M  V30 35 1 22 16
M  V30 36 1 31 25
M  V30 37 1 1 34
M  V30 38 1 1 35
M  V30 39 1 1 36
M  V30 40 1 3 37
M  V30 41 1 4 38
M  V30 42 1 6 39
M  V30 43 1 9 40
M  V30 44 1 9 41
M  V30 45 1 11 42
M  V30 46 1 17 43
M  V30 47 1 18 44
M  V30 48 1 21 45
M  V30 49 1 22 46
M  V30 50 1 26 47
M  V30 51 1 29 48
M  V30 52 1 30 49
M  V30 53 1 32 50
M  V30 54 1 33 51
M  V30 END BOND
M  V30 END CTAB
M  END
>  <Dataset>  (906) 
ChEMBL_Kinases

>  <Ligand_Instance>  (906) 
nan

>  <PDB_ID>  (906) 
nan

>  <Standardized_SMILES>  (906) 
Cc1ccc(NC(=O)Cn2cc(S(=O)(=O)c3ccc(F)cc3)c(=O)c3cc(F)ccc32)cc1

>  <Name>  (906) 
nan

>  <Pocket>  (906) 
nan

>  <ATP_Site>  (906) 
nan

>  <Peripheral>  (906) 
nan

>  <Num_H_Atoms_ProtBoundConf>  (906) 
nan

>  <Num_Resolved_Atoms>  (906) 
nan

>  <Num_Not_Resolved_Atoms>  (906) 
nan

$$$$
CHEMBL1319221
     RDKit          3D

  0  0  0  0  0  0  0  0  0  0999 V3000
M  V30 BEGIN CTAB
M  V30 COUNTS 28 31 0 0 0
M  V30 BEGIN ATOM
M  V30 1 N -1.183147 -2.972171 3.741384 0
M  V30 2 C -0.553962 -2.027221 2.870109 0
M  V30 3 N 0.232236 -0.951934 3.011614 0
M  V30 4 C 0.502368 -0.471407 1.764557 0
M  V30 5 C 1.270448 0.621011 1.414279 0
M  V30 6 C 1.892043 1.398792 2.370337 0
M  V30 7 C 2.639207 2.470164 1.928004 0
M  V30 8 C 2.823483 2.838698 0.602552 0
M  V30 9 C 2.174070 2.018921 -0.312421 0
M  V30 10 C 1.414699 0.935187 0.077214 0
M  V30 11 N 0.785109 0.140145 -0.806736 0
M  V30 12 C 0.038000 -0.925730 -0.427831 0
M  V30 13 C -0.631303 -1.762956 -1.459855 0
M  V30 14 C -2.043720 -2.278756 -1.104065 0
M  V30 15 C -0.909656 -3.197728 -1.228993 0
M  V30 16 N -0.133359 -1.273259 0.861097 0
M  V30 17 N -0.757893 -2.196636 1.555958 0
M  V30 18 H -0.655034 -3.837973 4.040603 0
M  V30 19 H -2.167908 -2.794319 4.075830 0
M  V30 20 H 1.797800 1.178412 3.420158 0
M  V30 21 H 3.151016 3.115789 2.654182 0
M  V30 22 H 3.425282 3.693943 0.335836 0
M  V30 23 H 2.281203 2.256904 -1.359702 0
M  V30 24 H -0.498616 -1.485940 -2.529985 0
M  V30 25 H -2.451896 -2.016805 -0.105648 0
M  V30 26 H -2.807876 -2.157490 -1.897116 0
M  V30 27 H -0.893123 -3.900544 -2.089945 0
M  V30 28 H -0.533865 -3.670082 -0.298807 0
M  V30 END ATOM
M  V30 BEGIN BOND
M  V30 1 1 1 2
M  V30 2 1 2 3
M  V30 3 2 3 4
M  V30 4 1 4 5
M  V30 5 2 5 6
M  V30 6 1 6 7
M  V30 7 2 7 8
M  V30 8 1 8 9
M  V30 9 2 9 10
M  V30 10 1 10 11
M  V30 11 2 11 12
M  V30 12 1 12 13
M  V30 13 1 13 14
M  V30 14 1 14 15
M  V30 15 1 12 16
M  V30 16 1 16 17
M  V30 17 2 17 2
M  V30 18 1 16 4
M  V30 19 1 10 5
M  V30 20 1 15 13
M  V30 21 1 1 18
M  V30 22 1 1 19
M  V30 23 1 6 20
M  V30 24 1 7 21
M  V30 25 1 8 22
M  V30 26 1 9 23
M  V30 27 1 13 24
M  V30 28 1 14 25
M  V30 29 1 14 26
M  V30 30 1 15 27
M  V30 31 1 15 28
M  V30 END BOND
M  V30 END CTAB
M  END
>  <Dataset>  (907) 
ChEMBL_Kinases

>  <Ligand_Instance>  (907) 
nan

>  <PDB_ID>  (907) 
nan

>  <Standardized_SMILES>  (907) 
Nc1nc2c3ccccc3nc(C3CC3)n2n1

>  <Name>  (907) 
nan

>  <Pocket>  (907) 
nan

>  <ATP_Site>  (907) 
nan

>  <Peripheral>  (907) 
nan

>  <Num_H_Atoms_ProtBoundConf>  (907) 
nan

>  <Num_Resolved_Atoms>  (907) 
nan

>  <Num_Not_Resolved_Atoms>  (907) 
nan

$$$$
CHEMBL1318999
     RDKit          3D

  0  0  0  0  0  0  0  0  0  0999 V3000
M  V30 BEGIN CTAB
M  V30 COUNTS 45 48 0 0 0
M  V30 BEGIN ATOM
M  V30 1 O -0.024325 -4.065914 3.062363 0
M  V30 2 C 0.830915 -3.116181 3.002284 0
M  V30 3 C 2.268253 -3.444197 2.916083 0
M  V30 4 S 3.344264 -2.017384 2.757686 0
M  V30 5 C 3.163574 -1.201443 1.185233 0
M  V30 6 C 4.069247 -1.730143 0.278664 0
M  V30 7 C 4.179073 -1.301677 -1.051327 0
M  V30 8 C 3.321011 -0.280840 -1.478054 0
M  V30 9 N 3.061852 0.428516 -2.603077 0
M  V30 10 N 2.090638 1.292353 -2.370091 0
M  V30 11 C 1.700965 1.158709 -1.084806 0
M  V30 12 C 0.633413 1.966958 -0.500821 0
M  V30 13 C -0.470509 2.238431 -1.313287 0
M  V30 14 C -1.464202 2.998501 -0.743854 0
M  V30 15 C -1.366751 3.461138 0.554494 0
M  V30 16 C -0.245583 3.163499 1.323462 0
M  V30 17 C 0.788662 2.398621 0.797252 0
M  V30 18 N 2.467856 0.189285 -0.555505 0
M  V30 19 N 2.377134 -0.222078 0.684226 0
M  V30 20 N 0.318772 -1.797488 3.025509 0
M  V30 21 C -1.057989 -1.358131 3.109850 0
M  V30 22 C -1.804230 -1.882120 1.936392 0
M  V30 23 C -1.309227 -1.227776 0.642059 0
M  V30 24 C -2.426167 -1.658855 -0.283612 0
M  V30 25 C -3.620053 -1.578474 0.647764 0
M  V30 26 O -3.145291 -1.510246 1.927927 0
M  V30 27 H 2.463910 -4.168845 2.071750 0
M  V30 28 H 2.531345 -4.036115 3.825549 0
M  V30 29 H 4.808263 -2.519009 0.428479 0
M  V30 30 H 4.857775 -1.669588 -1.800739 0
M  V30 31 H -0.484165 1.841330 -2.333945 0
M  V30 32 H -2.317884 3.205844 -1.376385 0
M  V30 33 H -2.161546 4.058390 0.984448 0
M  V30 34 H -0.111075 3.495146 2.343470 0
M  V30 35 H 1.686080 2.128428 1.335591 0
M  V30 36 H 1.062506 -1.069380 2.978962 0
M  V30 37 H -1.499124 -1.847567 4.016974 0
M  V30 38 H -1.124480 -0.268915 3.241337 0
M  V30 39 H -1.651499 -2.954090 1.837337 0
M  V30 40 H -1.373438 -0.122842 0.736466 0
M  V30 41 H -0.317456 -1.601693 0.333137 0
M  V30 42 H -2.534094 -0.984890 -1.155714 0
M  V30 43 H -2.254748 -2.705700 -0.562822 0
M  V30 44 H -4.147029 -0.609688 0.418044 0
M  V30 45 H -4.285811 -2.446884 0.531389 0
M  V30 END ATOM
M  V30 BEGIN BOND
M  V30 1 2 1 2
M  V30 2 1 2 3
M  V30 3 1 3 4
M  V30 4 1 4 5
M  V30 5 1 5 6
M  V30 6 2 6 7
M  V30 7 1 7 8
M  V30 8 2 8 9
M  V30 9 1 9 10
M  V30 10 2 10 11
M  V30 11 1 11 12
M  V30 12 2 12 13
M  V30 13 1 13 14
M  V30 14 2 14 15
M  V30 15 1 15 16
M  V30 16 2 16 17
M  V30 17 1 11 18
M  V30 18 1 18 19
M  V30 19 1 2 20
M  V30 20 1 20 21
M  V30 21 1 21 22
M  V30 22 1 22 23
M  V30 23 1 23 24
M  V30 24 1 24 25
M  V30 25 1 25 26
M  V30 26 2 19 5
M  V30 27 1 26 22
M  V30 28 1 18 8
M  V30 29 1 17 12
M  V30 30 1 3 27
M  V30 31 1 3 28
M  V30 32 1 6 29
M  V30 33 1 7 30
M  V30 34 1 13 31
M  V30 35 1 14 32
M  V30 36 1 15 33
M  V30 37 1 16 34
M  V30 38 1 17 35
M  V30 39 1 20 36
M  V30 40 1 21 37
M  V30 41 1 21 38
M  V30 42 1 22 39
M  V30 43 1 23 40
M  V30 44 1 23 41
M  V30 45 1 24 42
M  V30 46 1 24 43
M  V30 47 1 25 44
M  V30 48 1 25 45
M  V30 END BOND
M  V30 END CTAB
M  END
>  <Dataset>  (908) 
ChEMBL_Kinases

>  <Ligand_Instance>  (908) 
nan

>  <PDB_ID>  (908) 
nan

>  <Standardized_SMILES>  (908) 
O=C(CSc1ccc2nnc(-c3ccccc3)n2n1)NCC1CCCO1

>  <Name>  (908) 
nan

>  <Pocket>  (908) 
nan

>  <ATP_Site>  (908) 
nan

>  <Peripheral>  (908) 
nan

>  <Num_H_Atoms_ProtBoundConf>  (908) 
nan

>  <Num_Resolved_Atoms>  (908) 
nan

>  <Num_Not_Resolved_Atoms>  (908) 
nan

$$$$
CHEMBL1318922
     RDKit          3D

  0  0  0  0  0  0  0  0  0  0999 V3000
M  V30 BEGIN CTAB
M  V30 COUNTS 48 51 0 0 0
M  V30 BEGIN ATOM
M  V30 1 C 2.462125 -5.368232 4.466642 0
M  V30 2 C 2.817413 -4.048705 3.903068 0
M  V30 3 N 2.499098 -2.883818 4.227616 0
M  V30 4 N 2.821669 -1.801314 3.713112 0
M  V30 5 C 3.648952 -1.793455 2.619920 0
M  V30 6 S 4.446444 -0.848334 1.468434 0
M  V30 7 C 3.612903 -0.476707 -0.045343 0
M  V30 8 C 2.542980 0.469528 -0.140160 0
M  V30 9 C 1.914204 1.369779 0.594471 0
M  V30 10 C 2.382343 1.559725 1.984875 0
M  V30 11 O 3.245930 1.193791 2.853699 0
M  V30 12 O 2.395510 2.077100 3.241303 0
M  V30 13 N 0.848730 2.220376 0.278423 0
M  V30 14 C -0.345224 2.943751 0.553201 0
M  V30 15 O -0.694486 3.513796 1.603697 0
M  V30 16 C -0.747776 2.636691 -0.845173 0
M  V30 17 N -1.160009 1.265762 -0.967039 0
M  V30 18 C -2.340116 0.731660 -1.590468 0
M  V30 19 O -3.100301 1.624681 -2.083702 0
M  V30 20 C -2.510801 -0.749968 -1.575927 0
M  V30 21 N -2.985239 -1.264260 -0.320277 0
M  V30 22 N -2.108885 -1.644005 0.623939 0
M  V30 23 C -2.726747 -2.093014 1.701992 0
M  V30 24 C -4.079473 -2.018966 1.491766 0
M  V30 25 Cl -5.357539 -2.481029 2.591218 0
M  V30 26 C -4.190863 -1.498081 0.221766 0
M  V30 27 C -5.444464 -1.204535 -0.510273 0
M  V30 28 C 0.737416 2.786496 -1.046625 0
M  V30 29 S 1.354834 1.740047 -2.323954 0
M  V30 30 C 2.023850 0.321116 -1.521754 0
M  V30 31 S 3.919992 -3.649137 2.414761 0
M  V30 32 H 2.521882 -6.178509 3.720061 0
M  V30 33 H 3.110834 -5.606122 5.306818 0
M  V30 34 H 1.369085 -5.309795 4.729044 0
M  V30 35 H 4.382143 -0.258184 -0.872770 0
M  V30 36 H 3.229390 -1.499227 -0.420234 0
M  V30 37 H 1.519397 2.096372 3.796650 0
M  V30 38 H -1.402769 3.390499 -1.313296 0
M  V30 39 H -0.511810 0.607530 -0.530377 0
M  V30 40 H -3.252506 -1.058343 -2.373989 0
M  V30 41 H -1.582074 -1.280542 -1.862317 0
M  V30 42 H -2.201592 -2.453584 2.590765 0
M  V30 43 H -5.950550 -0.335949 -0.032007 0
M  V30 44 H -6.169493 -2.059402 -0.362281 0
M  V30 45 H -5.306682 -1.100003 -1.590790 0
M  V30 46 H 1.013444 3.859599 -1.113920 0
M  V30 47 H 2.822429 -0.090023 -2.228376 0
M  V30 48 H 1.270425 -0.522268 -1.531460 0
M  V30 END ATOM
M  V30 BEGIN BOND
M  V30 1 1 1 2
M  V30 2 2 2 3
M  V30 3 1 3 4
M  V30 4 2 4 5
M  V30 5 1 5 6
M  V30 6 1 6 7
M  V30 7 1 7 8
M  V30 8 2 8 9
M  V30 9 1 9 10
M  V30 10 2 10 11
M  V30 11 1 10 12
M  V30 12 1 9 13
M  V30 13 1 13 14
M  V30 14 2 14 15
M  V30 15 1 14 16
M  V30 16 1 16 17
M  V30 17 1 17 18
M  V30 18 2 18 19
M  V30 19 1 18 20
M  V30 20 1 20 21
M  V30 21 1 21 22
M  V30 22 2 22 23
M  V30 23 1 23 24
M  V30 24 1 24 25
M  V30 25 2 24 26
M  V30 26 1 26 27
M  V30 27 1 16 28
M  V30 28 1 28 29
M  V30 29 1 29 30
M  V30 30 1 5 31
M  V30 31 1 31 2
M  V30 32 1 30 8
M  V30 33 1 28 13
M  V30 34 1 26 21
M  V30 35 1 1 32
M  V30 36 1 1 33
M  V30 37 1 1 34
M  V30 38 1 7 35
M  V30 39 1 7 36
M  V30 40 1 12 37
M  V30 41 1 16 38
M  V30 42 1 17 39
M  V30 43 1 20 40
M  V30 44 1 20 41
M  V30 45 1 23 42
M  V30 46 1 27 43
M  V30 47 1 27 44
M  V30 48 1 27 45
M  V30 49 1 28 46
M  V30 50 1 30 47
M  V30 51 1 30 48
M  V30 END BOND
M  V30 END CTAB
M  END
>  <Dataset>  (909) 
ChEMBL_Kinases

>  <Ligand_Instance>  (909) 
nan

>  <PDB_ID>  (909) 
nan

>  <Standardized_SMILES>  (909) 
Cc1nnc(SCC2=C(C(=O)O)N3C(=O)C(NC(=O)Cn4ncc(Cl)c4C)C3SC2)s1

>  <Name>  (909) 
nan

>  <Pocket>  (909) 
nan

>  <ATP_Site>  (909) 
nan

>  <Peripheral>  (909) 
nan

>  <Num_H_Atoms_ProtBoundConf>  (909) 
nan

>  <Num_Resolved_Atoms>  (909) 
nan

>  <Num_Not_Resolved_Atoms>  (909) 
nan

$$$$
CHEMBL1318867
     RDKit          3D

  0  0  0  0  0  0  0  0  0  0999 V3000
M  V30 BEGIN CTAB
M  V30 COUNTS 66 71 0 0 0
M  V30 BEGIN ATOM
M  V30 1 C 4.125376 0.285177 5.285770 0
M  V30 2 C 4.064669 -0.562359 4.061890 0
M  V30 3 C 5.047747 -1.495318 3.799479 0
M  V30 4 C 4.884331 -2.219702 2.636959 0
M  V30 5 C 3.815973 -2.025318 1.798130 0
M  V30 6 C 2.846554 -1.088208 2.080393 0
M  V30 7 C 1.762942 -0.872235 1.255505 0
M  V30 8 C 0.759517 0.070555 1.509671 0
M  V30 9 C -0.387620 0.258266 0.618194 0
M  V30 10 C -0.337430 1.685957 0.132172 0
M  V30 11 N 0.562439 2.247796 -0.690968 0
M  V30 12 N 0.259403 3.516719 -0.888968 0
M  V30 13 N -0.834197 3.762944 -0.192006 0
M  V30 14 N -1.213552 2.645569 0.441231 0
M  V30 15 C -2.399306 2.638695 1.252310 0
M  V30 16 C -3.640048 2.334776 0.461331 0
M  V30 17 C -4.231564 1.107675 0.254843 0
M  V30 18 C -5.375223 1.018419 -0.506650 0
M  V30 19 C -5.983923 2.107507 -1.092260 0
M  V30 20 C -5.424535 3.353785 -0.910565 0
M  V30 21 C -4.279751 3.422180 -0.145068 0
M  V30 22 N -0.380250 -0.515631 -0.554961 0
M  V30 23 C 0.586112 -0.347272 -1.554118 0
M  V30 24 C 0.764574 -1.664964 -2.292674 0
M  V30 25 N -0.228284 -2.639875 -1.935094 0
M  V30 26 C 0.001082 -3.952261 -1.513463 0
M  V30 27 C 1.249052 -4.474960 -1.399023 0
M  V30 28 C 1.491956 -5.769174 -0.983039 0
M  V30 29 C 0.437251 -6.598256 -0.660225 0
M  V30 30 C -0.845222 -6.099871 -0.765097 0
M  V30 31 C -1.032154 -4.799047 -1.185813 0
M  V30 32 C -1.499445 -1.976751 -2.103722 0
M  V30 33 C -1.645998 -0.947361 -1.018337 0
M  V30 34 C 1.005068 0.742382 2.685012 0
M  V30 35 O 0.133848 1.712981 3.112934 0
M  V30 36 N 2.046582 0.552904 3.503178 0
M  V30 37 C 2.992846 -0.354996 3.237280 0
M  V30 38 H 3.157058 0.095181 5.830902 0
M  V30 39 H 4.927934 -0.003555 5.982633 0
M  V30 40 H 4.122888 1.357630 5.038751 0
M  V30 41 H 5.839034 -1.560323 4.529612 0
M  V30 42 H 5.671230 -2.957461 2.439482 0
M  V30 43 H 3.735079 -2.617962 0.902097 0
M  V30 44 H 1.739329 -1.492328 0.395929 0
M  V30 45 H -1.317152 0.124338 1.169202 0
M  V30 46 H -2.346514 1.927855 2.121868 0
M  V30 47 H -2.556807 3.631107 1.715279 0
M  V30 48 H -3.720468 0.285631 0.733279 0
M  V30 49 H -5.758333 -0.008255 -0.603585 0
M  V30 50 H -6.880962 1.974062 -1.679553 0
M  V30 51 H -5.848204 4.249070 -1.339639 0
M  V30 52 H -3.853850 4.427538 -0.015683 0
M  V30 53 H 0.110391 0.347203 -2.320081 0
M  V30 54 H 1.505489 0.153563 -1.282343 0
M  V30 55 H 1.812770 -2.007740 -2.185396 0
M  V30 56 H 0.645660 -1.533819 -3.409535 0
M  V30 57 H 2.151273 -3.924545 -1.622741 0
M  V30 58 H 2.469555 -6.204952 -0.884899 0
M  V30 59 H 0.577399 -7.627027 -0.327399 0
M  V30 60 H -1.657657 -6.768830 -0.506419 0
M  V30 61 H -2.072161 -4.518504 -1.229612 0
M  V30 62 H -2.377746 -2.665286 -1.976738 0
M  V30 63 H -1.622809 -1.513998 -3.125540 0
M  V30 64 H -2.215688 -1.345316 -0.156514 0
M  V30 65 H -2.220706 -0.098276 -1.430753 0
M  V30 66 H 0.441931 2.639970 3.420402 0
M  V30 END ATOM
M  V30 BEGIN BOND
M  V30 1 1 1 2
M  V30 2 2 2 3
M  V30 3 1 3 4
M  V30 4 2 4 5
M  V30 5 1 5 6
M  V30 6 2 6 7
M  V30 7 1 7 8
M  V30 8 1 8 9
M  V30 9 1 9 10
M  V30 10 2 10 11
M  V30 11 1 11 12
M  V30 12 2 12 13
M  V30 13 1 13 14
M  V30 14 1 14 15
M  V30 15 1 15 16
M  V30 16 2 16 17
M  V30 17 1 17 18
M  V30 18 2 18 19
M  V30 19 1 19 20
M  V30 20 2 20 21
M  V30 21 1 9 22
M  V30 22 1 22 23
M  V30 23 1 23 24
M  V30 24 1 24 25
M  V30 25 1 25 26
M  V30 26 2 26 27
M  V30 27 1 27 28
M  V30 28 2 28 29
M  V30 29 1 29 30
M  V30 30 2 30 31
M  V30 31 1 25 32
M  V30 32 1 32 33
M  V30 33 2 8 34
M  V30 34 1 34 35
M  V30 35 1 34 36
M  V30 36 2 36 37
M  V30 37 1 37 2
M  V30 38 1 37 6
M  V30 39 1 14 10
M  V30 40 1 21 16
M  V30 41 1 33 22
M  V30 42 1 31 26
M  V30 43 1 1 38
M  V30 44 1 1 39
M  V30 45 1 1 40
M  V30 46 1 3 41
M  V30 47 1 4 42
M  V30 48 1 5 43
M  V30 49 1 7 44
M  V30 50 1 9 45
M  V30 51 1 15 46
M  V30 52 1 15 47
M  V30 53 1 17 48
M  V30 54 1 18 49
M  V30 55 1 19 50
M  V30 56 1 20 51
M  V30 57 1 21 52
M  V30 58 1 23 53
M  V30 59 1 23 54
M  V30 60 1 24 55
M  V30 61 1 24 56
M  V30 62 1 27 57
M  V30 63 1 28 58
M  V30 64 1 29 59
M  V30 65 1 30 60
M  V30 66 1 31 61
M  V30 67 1 32 62
M  V30 68 1 32 63
M  V30 69 1 33 64
M  V30 70 1 33 65
M  V30 71 1 35 66
M  V30 END BOND
M  V30 END CTAB
M  END
>  <Dataset>  (910) 
ChEMBL_Kinases

>  <Ligand_Instance>  (910) 
nan

>  <PDB_ID>  (910) 
nan

>  <Standardized_SMILES>  (910) 
Cc1cccc2cc(C(c3nnnn3Cc3ccccc3)N3CCN(c4ccccc4)CC3)c(O)nc12

>  <Name>  (910) 
nan

>  <Pocket>  (910) 
nan

>  <ATP_Site>  (910) 
nan

>  <Peripheral>  (910) 
nan

>  <Num_H_Atoms_ProtBoundConf>  (910) 
nan

>  <Num_Resolved_Atoms>  (910) 
nan

>  <Num_Not_Resolved_Atoms>  (910) 
nan

$$$$
CHEMBL1318837
     RDKit          3D

  0  0  0  0  0  0  0  0  0  0999 V3000
M  V30 BEGIN CTAB
M  V30 COUNTS 57 60 0 0 0
M  V30 BEGIN ATOM
M  V30 1 C 0.708538 -1.010248 3.912589 0
M  V30 2 C 2.184628 -1.354244 3.825602 0
M  V30 3 O 2.755217 -1.007037 2.606857 0
M  V30 4 C 2.329641 -1.507653 1.391915 0
M  V30 5 O 1.353478 -2.321851 1.559831 0
M  V30 6 N 2.793927 -1.258372 0.066718 0
M  V30 7 C 3.890711 -0.370438 -0.245466 0
M  V30 8 C 3.433196 0.692705 -1.191178 0
M  V30 9 C 2.181960 0.401846 -1.956729 0
M  V30 10 N 1.073909 0.987018 -1.215570 0
M  V30 11 C 0.102031 2.047941 -1.450963 0
M  V30 12 O 0.157671 2.661785 -2.547847 0
M  V30 13 C -0.726977 2.085875 -0.221414 0
M  V30 14 C -0.435542 3.154227 0.633152 0
M  V30 15 C -1.139867 3.208108 1.820741 0
M  V30 16 C -2.084718 2.249686 2.144391 0
M  V30 17 C -2.367099 1.186086 1.280658 0
M  V30 18 C -1.665792 1.124219 0.081271 0
M  V30 19 C -2.131688 -0.024073 -0.693316 0
M  V30 20 O -1.705606 -0.347439 -1.803257 0
M  V30 21 N -3.137428 -0.646089 0.092591 0
M  V30 22 C -3.923093 -1.784411 -0.336329 0
M  V30 23 C -3.244213 -3.083165 -0.120503 0
M  V30 24 C -2.490219 -3.496899 -1.226004 0
M  V30 25 C -1.774034 -4.696709 -1.210477 0
M  V30 26 C -1.847645 -5.464641 -0.036059 0
M  V30 27 N -2.579869 -5.055558 1.028288 0
M  V30 28 C -3.257169 -3.899012 0.985908 0
M  V30 29 C -3.268973 0.013601 1.370778 0
M  V30 30 C 1.888893 -1.039104 -2.201989 0
M  V30 31 C 2.129156 -1.937400 -1.024574 0
M  V30 32 H 0.230796 -0.870119 2.926456 0
M  V30 33 H 0.175033 -1.813587 4.433192 0
M  V30 34 H 0.542584 -0.048228 4.462027 0
M  V30 35 H 2.679202 -0.721489 4.623728 0
M  V30 36 H 2.343615 -2.407797 4.140798 0
M  V30 37 H 4.729216 -0.973131 -0.723010 0
M  V30 38 H 4.285700 0.124244 0.676103 0
M  V30 39 H 4.261196 0.985509 -1.907707 0
M  V30 40 H 3.312950 1.647345 -0.584878 0
M  V30 41 H 2.241330 0.910342 -2.957812 0
M  V30 42 H 1.125458 0.391243 -0.334251 0
M  V30 43 H 0.302016 3.895991 0.378164 0
M  V30 44 H -0.928923 4.031295 2.497254 0
M  V30 45 H -2.629343 2.317039 3.086478 0
M  V30 46 H -4.233093 -1.658119 -1.375426 0
M  V30 47 H -4.864677 -1.797854 0.296279 0
M  V30 48 H -2.339703 -3.018721 -2.188131 0
M  V30 49 H -1.166096 -5.122498 -1.971797 0
M  V30 50 H -1.308709 -6.419917 0.037664 0
M  V30 51 H -3.860691 -3.510767 1.799804 0
M  V30 52 H -2.969761 -0.659403 2.208884 0
M  V30 53 H -4.296841 0.381581 1.475086 0
M  V30 54 H 0.810245 -1.120289 -2.472027 0
M  V30 55 H 2.419138 -1.405169 -3.116243 0
M  V30 56 H 2.819786 -2.756465 -1.360121 0
M  V30 57 H 1.178559 -2.403541 -0.679038 0
M  V30 END ATOM
M  V30 BEGIN BOND
M  V30 1 1 1 2
M  V30 2 1 2 3
M  V30 3 1 3 4
M  V30 4 2 4 5
M  V30 5 1 4 6
M  V30 6 1 6 7
M  V30 7 1 7 8
M  V30 8 1 8 9
M  V30 9 1 9 10
M  V30 10 1 10 11
M  V30 11 2 11 12
M  V30 12 1 11 13
M  V30 13 2 13 14
M  V30 14 1 14 15
M  V30 15 2 15 16
M  V30 16 1 16 17
M  V30 17 2 17 18
M  V30 18 1 18 19
M  V30 19 2 19 20
M  V30 20 1 19 21
M  V30 21 1 21 22
M  V30 22 1 22 23
M  V30 23 2 23 24
M  V30 24 1 24 25
M  V30 25 2 25 26
M  V30 26 1 26 27
M  V30 27 2 27 28
M  V30 28 1 21 29
M  V30 29 1 9 30
M  V30 30 1 30 31
M  V30 31 1 31 6
M  V30 32 1 18 13
M  V30 33 1 28 23
M  V30 34 1 29 17
M  V30 35 1 1 32
M  V30 36 1 1 33
M  V30 37 1 1 34
M  V30 38 1 2 35
M  V30 39 1 2 36
M  V30 40 1 7 37
M  V30 41 1 7 38
M  V30 42 1 8 39
M  V30 43 1 8 40
M  V30 44 1 9 41
M  V30 45 1 10 42
M  V30 46 1 14 43
M  V30 47 1 15 44
M  V30 48 1 16 45
M  V30 49 1 22 46
M  V30 50 1 22 47
M  V30 51 1 24 48
M  V30 52 1 25 49
M  V30 53 1 26 50
M  V30 54 1 28 51
M  V30 55 1 29 52
M  V30 56 1 29 53
M  V30 57 1 30 54
M  V30 58 1 30 55
M  V30 59 1 31 56
M  V30 60 1 31 57
M  V30 END BOND
M  V30 END CTAB
M  END
>  <Dataset>  (911) 
ChEMBL_Kinases

>  <Ligand_Instance>  (911) 
nan

>  <PDB_ID>  (911) 
nan

>  <Standardized_SMILES>  (911) 
CCOC(=O)N1CCC(NC(=O)c2cccc3c2C(=O)N(Cc2cccnc2)C3)CC1

>  <Name>  (911) 
nan

>  <Pocket>  (911) 
nan

>  <ATP_Site>  (911) 
nan

>  <Peripheral>  (911) 
nan

>  <Num_H_Atoms_ProtBoundConf>  (911) 
nan

>  <Num_Resolved_Atoms>  (911) 
nan

>  <Num_Not_Resolved_Atoms>  (911) 
nan

$$$$
CHEMBL1318780
     RDKit          3D

  0  0  0  0  0  0  0  0  0  0999 V3000
M  V30 BEGIN CTAB
M  V30 COUNTS 49 52 0 0 0
M  V30 BEGIN ATOM
M  V30 1 C -0.856429 -1.549180 7.824428 0
M  V30 2 O -0.952415 -1.264294 6.461863 0
M  V30 3 C 0.008289 -0.694237 5.662008 0
M  V30 4 C 1.270156 -0.283582 6.038081 0
M  V30 5 C 2.168210 0.281023 5.156497 0
M  V30 6 O 3.402700 0.651521 5.656226 0
M  V30 7 C 4.423808 1.232639 4.910694 0
M  V30 8 C 1.787599 0.444066 3.832417 0
M  V30 9 C 0.533357 0.045317 3.418844 0
M  V30 10 C 0.207652 0.250446 2.008785 0
M  V30 11 O 1.075550 0.770600 1.263305 0
M  V30 12 N -1.022381 -0.091762 1.398083 0
M  V30 13 C -1.216663 0.158508 0.017035 0
M  V30 14 C -0.893574 -0.782176 -0.949222 0
M  V30 15 C -1.100112 -0.495282 -2.287830 0
M  V30 16 C -0.748637 -1.509240 -3.280346 0
M  V30 17 C -0.864673 -1.444481 -4.632201 0
M  V30 18 N -0.409127 -2.625706 -5.091515 0
M  V30 19 C -0.330626 -3.025766 -6.393191 0
M  V30 20 C 0.180566 -4.301426 -6.598607 0
M  V30 21 C 0.592806 -5.140431 -5.584033 0
M  V30 22 N 0.479775 -4.661842 -4.316007 0
M  V30 23 C -0.012270 -3.428979 -4.087237 0
M  V30 24 N -0.229380 -2.718474 -2.950514 0
M  V30 25 C -1.625326 0.717331 -2.686494 0
M  V30 26 C -1.951229 1.662388 -1.735536 0
M  V30 27 C -1.741746 1.370195 -0.385443 0
M  V30 28 C -2.083486 2.370684 0.670766 0
M  V30 29 C -0.341197 -0.514308 4.318687 0
M  V30 30 H -1.574410 -0.872677 8.364449 0
M  V30 31 H -1.196878 -2.573420 8.090271 0
M  V30 32 H 0.141514 -1.338615 8.258129 0
M  V30 33 H 1.528656 -0.427129 7.075907 0
M  V30 34 H 4.481076 2.340970 5.025503 0
M  V30 35 H 5.411764 0.864703 5.310203 0
M  V30 36 H 4.451453 0.930685 3.836171 0
M  V30 37 H 2.521803 0.891171 3.172740 0
M  V30 38 H -1.760449 -0.525411 1.995380 0
M  V30 39 H -0.481655 -1.728951 -0.609976 0
M  V30 40 H -1.253154 -0.580881 -5.134383 0
M  V30 41 H -0.642482 -2.400744 -7.221092 0
M  V30 42 H 0.249449 -4.636747 -7.642765 0
M  V30 43 H 0.979084 -6.119183 -5.831389 0
M  V30 44 H -1.787911 0.941540 -3.750330 0
M  V30 45 H -2.363388 2.618325 -2.021422 0
M  V30 46 H -1.164539 2.787431 1.125165 0
M  V30 47 H -2.764700 1.896297 1.403584 0
M  V30 48 H -2.616938 3.217867 0.177305 0
M  V30 49 H -1.316589 -0.816234 3.962608 0
M  V30 END ATOM
M  V30 BEGIN BOND
M  V30 1 1 1 2
M  V30 2 1 2 3
M  V30 3 2 3 4
M  V30 4 1 4 5
M  V30 5 1 5 6
M  V30 6 1 6 7
M  V30 7 2 5 8
M  V30 8 1 8 9
M  V30 9 1 9 10
M  V30 10 2 10 11
M  V30 11 1 10 12
M  V30 12 1 12 13
M  V30 13 2 13 14
M  V30 14 1 14 15
M  V30 15 1 15 16
M  V30 16 2 16 17
M  V30 17 1 17 18
M  V30 18 1 18 19
M  V30 19 2 19 20
M  V30 20 1 20 21
M  V30 21 2 21 22
M  V30 22 1 22 23
M  V30 23 2 23 24
M  V30 24 2 15 25
M  V30 25 1 25 26
M  V30 26 2 26 27
M  V30 27 1 27 28
M  V30 28 2 9 29
M  V30 29 1 29 3
M  V30 30 1 27 13
M  V30 31 1 24 16
M  V30 32 1 23 18
M  V30 33 1 1 30
M  V30 34 1 1 31
M  V30 35 1 1 32
M  V30 36 1 4 33
M  V30 37 1 7 34
M  V30 38 1 7 35
M  V30 39 1 7 36
M  V30 40 1 8 37
M  V30 41 1 12 38
M  V30 42 1 14 39
M  V30 43 1 17 40
M  V30 44 1 19 41
M  V30 45 1 20 42
M  V30 46 1 21 43
M  V30 47 1 25 44
M  V30 48 1 26 45
M  V30 49 1 28 46
M  V30 50 1 28 47
M  V30 51 1 28 48
M  V30 52 1 29 49
M  V30 END BOND
M  V30 END CTAB
M  END
>  <Dataset>  (912) 
ChEMBL_Kinases

>  <Ligand_Instance>  (912) 
nan

>  <PDB_ID>  (912) 
nan

>  <Standardized_SMILES>  (912) 
COc1cc(OC)cc(C(=O)Nc2cc(-c3cn4cccnc4n3)ccc2C)c1

>  <Name>  (912) 
nan

>  <Pocket>  (912) 
nan

>  <ATP_Site>  (912) 
nan

>  <Peripheral>  (912) 
nan

>  <Num_H_Atoms_ProtBoundConf>  (912) 
nan

>  <Num_Resolved_Atoms>  (912) 
nan

>  <Num_Not_Resolved_Atoms>  (912) 
nan

$$$$
CHEMBL1323385
     RDKit          3D

  0  0  0  0  0  0  0  0  0  0999 V3000
M  V30 BEGIN CTAB
M  V30 COUNTS 50 53 0 0 0
M  V30 BEGIN ATOM
M  V30 1 C 1.878939 -2.759894 5.199440 0
M  V30 2 O 1.903811 -2.053131 3.961751 0
M  V30 3 C 2.895117 -2.227452 3.004851 0
M  V30 4 C 3.979147 -3.072502 3.076195 0
M  V30 5 C 4.910606 -3.173214 2.066801 0
M  V30 6 C 4.706702 -2.376424 0.963084 0
M  V30 7 C 3.627527 -1.523299 0.873226 0
M  V30 8 N 3.444650 -0.702403 -0.304235 0
M  V30 9 C 2.465521 0.314358 -0.465349 0
M  V30 10 N 3.105396 1.457346 -0.830665 0
M  V30 11 C 2.424511 2.617818 -1.066126 0
M  V30 12 C 1.063400 2.533439 -0.904317 0
M  V30 13 N 0.344796 3.655985 -1.126704 0
M  V30 14 C -0.992338 3.707017 -1.003523 0
M  V30 15 C -1.742917 4.967435 -1.258323 0
M  V30 16 C -1.600292 2.512354 -0.626539 0
M  V30 17 O -2.852508 2.550840 -0.508510 0
M  V30 18 N -0.952889 1.355936 -0.388105 0
M  V30 19 C -1.682589 0.207872 0.010232 0
M  V30 20 C -2.187846 -0.674051 -1.101074 0
M  V30 21 C -2.932149 -1.823297 -0.459340 0
M  V30 22 C -4.270022 -1.816009 -0.128434 0
M  V30 23 C -4.850672 -2.915986 0.462168 0
M  V30 24 C -4.114484 -4.058409 0.741876 0
M  V30 25 C -2.780586 -4.016870 0.391874 0
M  V30 26 C -2.167865 -2.928649 -0.202526 0
M  V30 27 C 0.375053 1.398832 -0.535654 0
M  V30 28 N 1.128292 0.277111 -0.318084 0
M  V30 29 C 2.682126 -1.420072 1.894024 0
M  V30 30 H 2.753586 -2.551975 5.829716 0
M  V30 31 H 0.935678 -2.436516 5.733904 0
M  V30 32 H 1.738526 -3.828995 4.946575 0
M  V30 33 H 4.013472 -3.645341 4.015434 0
M  V30 34 H 5.737622 -3.852060 2.185209 0
M  V30 35 H 5.446210 -2.453352 0.157177 0
M  V30 36 H 4.112888 -0.902434 -1.112598 0
M  V30 37 H 2.910994 3.552263 -1.360175 0
M  V30 38 H -1.129215 5.611532 -1.916962 0
M  V30 39 H -1.896041 5.522065 -0.299450 0
M  V30 40 H -2.741638 4.736454 -1.680464 0
M  V30 41 H -2.611884 0.558971 0.545522 0
M  V30 42 H -1.152254 -0.425725 0.749002 0
M  V30 43 H -1.405523 -1.045833 -1.774365 0
M  V30 44 H -2.977475 -0.163805 -1.710690 0
M  V30 45 H -4.800579 -0.899288 -0.368586 0
M  V30 46 H -5.902821 -2.878957 0.710305 0
M  V30 47 H -4.533934 -4.939254 1.204612 0
M  V30 48 H -2.164479 -4.892054 0.594064 0
M  V30 49 H -1.102352 -2.994388 -0.442420 0
M  V30 50 H 1.862305 -0.727421 1.745443 0
M  V30 END ATOM
M  V30 BEGIN BOND
M  V30 1 1 1 2
M  V30 2 1 2 3
M  V30 3 2 3 4
M  V30 4 1 4 5
M  V30 5 2 5 6
M  V30 6 1 6 7
M  V30 7 1 7 8
M  V30 8 1 8 9
M  V30 9 2 9 10
M  V30 10 1 10 11
M  V30 11 2 11 12
M  V30 12 1 12 13
M  V30 13 2 13 14
M  V30 14 1 14 15
M  V30 15 1 14 16
M  V30 16 2 16 17
M  V30 17 1 16 18
M  V30 18 1 18 19
M  V30 19 1 19 20
M  V30 20 1 20 21
M  V30 21 2 21 22
M  V30 22 1 22 23
M  V30 23 2 23 24
M  V30 24 1 24 25
M  V30 25 2 25 26
M  V30 26 1 18 27
M  V30 27 2 27 28
M  V30 28 2 7 29
M  V30 29 1 29 3
M  V30 30 1 28 9
M  V30 31 1 27 12
M  V30 32 1 26 21
M  V30 33 1 1 30
M  V30 34 1 1 31
M  V30 35 1 1 32
M  V30 36 1 4 33
M  V30 37 1 5 34
M  V30 38 1 6 35
M  V30 39 1 8 36
M  V30 40 1 11 37
M  V30 41 1 15 38
M  V30 42 1 15 39
M  V30 43 1 15 40
M  V30 44 1 19 41
M  V30 45 1 19 42
M  V30 46 1 20 43
M  V30 47 1 20 44
M  V30 48 1 22 45
M  V30 49 1 23 46
M  V30 50 1 24 47
M  V30 51 1 25 48
M  V30 52 1 26 49
M  V30 53 1 29 50
M  V30 END BOND
M  V30 END CTAB
M  END
>  <Dataset>  (913) 
ChEMBL_Kinases

>  <Ligand_Instance>  (913) 
nan

>  <PDB_ID>  (913) 
nan

>  <Standardized_SMILES>  (913) 
COc1cccc(Nc2ncc3nc(C)c(=O)n(CCc4ccccc4)c3n2)c1

>  <Name>  (913) 
nan

>  <Pocket>  (913) 
nan

>  <ATP_Site>  (913) 
nan

>  <Peripheral>  (913) 
nan

>  <Num_H_Atoms_ProtBoundConf>  (913) 
nan

>  <Num_Resolved_Atoms>  (913) 
nan

>  <Num_Not_Resolved_Atoms>  (913) 
nan

$$$$
CHEMBL1316389
     RDKit          3D

  0  0  0  0  0  0  0  0  0  0999 V3000
M  V30 BEGIN CTAB
M  V30 COUNTS 51 54 0 0 0
M  V30 BEGIN ATOM
M  V30 1 C 1.593384 -4.500141 -0.527455 0
M  V30 2 N 2.178588 -3.820087 0.590283 0
M  V30 3 C 2.499724 -4.201368 1.835716 0
M  V30 4 C 3.049499 -3.129457 2.542580 0
M  V30 5 C 3.040891 -2.080535 1.650386 0
M  V30 6 C 2.501359 -2.514535 0.445220 0
M  V30 7 C 2.436639 -1.501171 -0.592777 0
M  V30 8 O 3.418258 -0.976304 -1.138876 0
M  V30 9 N 1.148922 -1.038642 -1.054542 0
M  V30 10 C 1.011531 -0.039222 -2.063813 0
M  V30 11 C 0.424341 1.268708 -1.575181 0
M  V30 12 C -0.493410 0.984675 -0.369090 0
M  V30 13 C 0.401360 0.850796 0.806455 0
M  V30 14 C 0.207412 1.944085 1.817372 0
M  V30 15 N -1.147575 2.122542 2.129143 0
M  V30 16 C -1.746596 1.379974 3.161183 0
M  V30 17 C -1.967335 -0.036206 2.983928 0
M  V30 18 N -1.297045 -1.242534 3.216147 0
M  V30 19 C -2.038586 -2.274712 2.821464 0
M  V30 20 C -3.368171 -2.289334 2.220390 0
M  V30 21 S -3.604129 -0.426569 2.223637 0
M  V30 22 C -1.965949 2.483136 1.031027 0
M  V30 23 C -1.486702 2.090331 -0.319275 0
M  V30 24 C -1.143455 -0.346538 -0.775558 0
M  V30 25 C -0.150569 -1.471168 -0.621245 0
M  V30 26 H 0.511325 -4.391903 -0.489074 0
M  V30 27 H 1.965077 -4.133831 -1.506900 0
M  V30 28 H 1.877022 -5.579687 -0.447655 0
M  V30 29 H 2.324694 -5.201570 2.149852 0
M  V30 30 H 3.356278 -3.288335 3.568659 0
M  V30 31 H 3.439356 -1.132730 2.015073 0
M  V30 32 H 0.408164 -0.366529 -2.944130 0
M  V30 33 H 2.035133 0.192612 -2.434266 0
M  V30 34 H -0.256026 1.694125 -2.348044 0
M  V30 35 H 1.192450 2.002249 -1.300465 0
M  V30 36 H 0.380494 -0.145881 1.305488 0
M  V30 37 H 1.502224 0.956076 0.516355 0
M  V30 38 H 0.559732 2.905229 1.324764 0
M  V30 39 H 0.866565 1.817829 2.705563 0
M  V30 40 H -1.046623 1.459535 4.069494 0
M  V30 41 H -2.664787 1.875359 3.530315 0
M  V30 42 H -1.367000 -3.119817 3.075618 0
M  V30 43 H -3.678554 -3.349035 2.014644 0
M  V30 44 H -3.012942 2.140988 1.256178 0
M  V30 45 H -2.028910 3.609029 1.049047 0
M  V30 46 H -2.395705 1.705214 -0.870320 0
M  V30 47 H -1.171283 2.964604 -0.924348 0
M  V30 48 H -1.359844 -0.255990 -1.876279 0
M  V30 49 H -2.107512 -0.523933 -0.307490 0
M  V30 50 H -0.123871 -1.866734 0.413565 0
M  V30 51 H -0.460138 -2.329304 -1.258104 0
M  V30 END ATOM
M  V30 BEGIN BOND
M  V30 1 1 1 2
M  V30 2 1 2 3
M  V30 3 2 3 4
M  V30 4 1 4 5
M  V30 5 2 5 6
M  V30 6 1 6 7
M  V30 7 2 7 8
M  V30 8 1 7 9
M  V30 9 1 9 10
M  V30 10 1 10 11
M  V30 11 1 11 12
M  V30 12 1 12 13
M  V30 13 1 13 14
M  V30 14 1 14 15
M  V30 15 1 15 16
M  V30 16 1 16 17
M  V30 17 2 17 18
M  V30 18 1 18 19
M  V30 19 2 19 20
M  V30 20 1 20 21
M  V30 21 1 15 22
M  V30 22 1 22 23
M  V30 23 1 12 24
M  V30 24 1 24 25
M  V30 25 1 6 2
M  V30 26 1 25 9
M  V30 27 1 23 12
M  V30 28 1 21 17
M  V30 29 1 1 26
M  V30 30 1 1 27
M  V30 31 1 1 28
M  V30 32 1 3 29
M  V30 33 1 4 30
M  V30 34 1 5 31
M  V30 35 1 10 32
M  V30 36 1 10 33
M  V30 37 1 11 34
M  V30 38 1 11 35
M  V30 39 1 13 36
M  V30 40 1 13 37
M  V30 41 1 14 38
M  V30 42 1 14 39
M  V30 43 1 16 40
M  V30 44 1 16 41
M  V30 45 1 19 42
M  V30 46 1 20 43
M  V30 47 1 22 44
M  V30 48 1 22 45
M  V30 49 1 23 46
M  V30 50 1 23 47
M  V30 51 1 24 48
M  V30 52 1 24 49
M  V30 53 1 25 50
M  V30 54 1 25 51
M  V30 END BOND
M  V30 END CTAB
M  END
>  <Dataset>  (914) 
ChEMBL_Kinases

>  <Ligand_Instance>  (914) 
nan

>  <PDB_ID>  (914) 
nan

>  <Standardized_SMILES>  (914) 
Cn1cccc1C(=O)N1CCC2(CCN(Cc3nccs3)CC2)CC1

>  <Name>  (914) 
nan

>  <Pocket>  (914) 
nan

>  <ATP_Site>  (914) 
nan

>  <Peripheral>  (914) 
nan

>  <Num_H_Atoms_ProtBoundConf>  (914) 
nan

>  <Num_Resolved_Atoms>  (914) 
nan

>  <Num_Not_Resolved_Atoms>  (914) 
nan

$$$$
CHEMBL1316709
     RDKit          3D

  0  0  0  0  0  0  0  0  0  0999 V3000
M  V30 BEGIN CTAB
M  V30 COUNTS 40 43 0 0 0
M  V30 BEGIN ATOM
M  V30 1 C -2.055247 -3.226120 2.182088 0
M  V30 2 N -0.792581 -2.766783 1.706320 0
M  V30 3 C 0.093825 -3.887823 1.399490 0
M  V30 4 C 1.366843 -3.427828 0.758289 0
M  V30 5 N 1.416166 -1.946699 0.848624 0
M  V30 6 C 1.604306 -1.292211 -0.400346 0
M  V30 7 N 2.246991 -1.981340 -1.375230 0
M  V30 8 C 2.547926 -1.488689 -2.581230 0
M  V30 9 N 2.203646 -0.241917 -2.866971 0
M  V30 10 C 1.561171 0.562001 -2.001577 0
M  V30 11 C 1.175034 1.858430 -2.263549 0
M  V30 12 C 0.503388 2.639634 -1.342825 0
M  V30 13 C 0.228343 2.040302 -0.108586 0
M  V30 14 C -0.483843 2.871262 0.862355 0
M  V30 15 C -1.349269 2.333773 1.790490 0
M  V30 16 C -1.795137 3.453628 2.496397 0
M  V30 17 O -1.237215 4.541164 2.018818 0
M  V30 18 C -0.420483 4.245174 1.011923 0
M  V30 19 C 0.621995 0.748839 0.131204 0
M  V30 20 C 1.285019 -0.011221 -0.784086 0
M  V30 21 C 1.286149 -1.633913 2.231315 0
M  V30 22 C -0.112451 -1.909028 2.690636 0
M  V30 23 H -2.865585 -2.597176 1.713731 0
M  V30 24 H -2.079329 -3.122388 3.284992 0
M  V30 25 H -2.278400 -4.268326 1.878116 0
M  V30 26 H -0.463557 -4.535773 0.668304 0
M  V30 27 H 0.266648 -4.513938 2.307910 0
M  V30 28 H 2.293970 -3.764519 1.306300 0
M  V30 29 H 1.489811 -3.786762 -0.266999 0
M  V30 30 H 3.069732 -2.131457 -3.295122 0
M  V30 31 H 1.441550 2.213191 -3.250161 0
M  V30 32 H 0.232335 3.656614 -1.625578 0
M  V30 33 H -1.615712 1.301156 1.935007 0
M  V30 34 H -2.506181 3.385148 3.319848 0
M  V30 35 H 0.174575 4.928144 0.424746 0
M  V30 36 H 0.351012 0.394811 1.082732 0
M  V30 37 H 1.703459 -0.655024 2.553999 0
M  V30 38 H 1.941063 -2.357057 2.829788 0
M  V30 39 H -0.151530 -2.507709 3.641365 0
M  V30 40 H -0.694958 -0.968016 2.793303 0
M  V30 END ATOM
M  V30 BEGIN BOND
M  V30 1 1 1 2
M  V30 2 1 2 3
M  V30 3 1 3 4
M  V30 4 1 4 5
M  V30 5 1 5 6
M  V30 6 2 6 7
M  V30 7 1 7 8
M  V30 8 2 8 9
M  V30 9 1 9 10
M  V30 10 2 10 11
M  V30 11 1 11 12
M  V30 12 2 12 13
M  V30 13 1 13 14
M  V30 14 1 14 15
M  V30 15 2 15 16
M  V30 16 1 16 17
M  V30 17 1 17 18
M  V30 18 1 13 19
M  V30 19 2 19 20
M  V30 20 1 5 21
M  V30 21 1 21 22
M  V30 22 1 22 2
M  V30 23 1 20 6
M  V30 24 1 20 10
M  V30 25 2 18 14
M  V30 26 1 1 23
M  V30 27 1 1 24
M  V30 28 1 1 25
M  V30 29 1 3 26
M  V30 30 1 3 27
M  V30 31 1 4 28
M  V30 32 1 4 29
M  V30 33 1 8 30
M  V30 34 1 11 31
M  V30 35 1 12 32
M  V30 36 1 15 33
M  V30 37 1 16 34
M  V30 38 1 18 35
M  V30 39 1 19 36
M  V30 40 1 21 37
M  V30 41 1 21 38
M  V30 42 1 22 39
M  V30 43 1 22 40
M  V30 END BOND
M  V30 END CTAB
M  END
>  <Dataset>  (915) 
ChEMBL_Kinases

>  <Ligand_Instance>  (915) 
nan

>  <PDB_ID>  (915) 
nan

>  <Standardized_SMILES>  (915) 
CN1CCN(c2ncnc3ccc(-c4ccoc4)cc23)CC1

>  <Name>  (915) 
nan

>  <Pocket>  (915) 
nan

>  <ATP_Site>  (915) 
nan

>  <Peripheral>  (915) 
nan

>  <Num_H_Atoms_ProtBoundConf>  (915) 
nan

>  <Num_Resolved_Atoms>  (915) 
nan

>  <Num_Not_Resolved_Atoms>  (915) 
nan

$$$$
CHEMBL1316791
     RDKit          3D

  0  0  0  0  0  0  0  0  0  0999 V3000
M  V30 BEGIN CTAB
M  V30 COUNTS 40 43 0 0 0
M  V30 BEGIN ATOM
M  V30 1 F 2.883269 -5.073931 3.598898 0
M  V30 2 C 2.520723 -4.777513 2.342413 0
M  V30 3 C 1.827230 -5.700021 1.586423 0
M  V30 4 C 1.452618 -5.388613 0.283755 0
M  V30 5 C 1.805522 -4.126546 -0.206873 0
M  V30 6 C 2.507086 -3.172468 0.534821 0
M  V30 7 C 2.817139 -1.873382 -0.103712 0
M  V30 8 N 1.719688 -0.953021 0.164671 0
M  V30 9 C 1.832347 0.360674 -0.369258 0
M  V30 10 N 2.901051 0.735178 -1.087575 0
M  V30 11 C 3.093271 1.940891 -1.625560 0
M  V30 12 N 2.156699 2.897340 -1.457473 0
M  V30 13 C 1.031479 2.627967 -0.746105 0
M  V30 14 C 0.065080 3.595407 -0.565645 0
M  V30 15 C -1.084032 3.313936 0.163020 0
M  V30 16 C -1.232376 2.038006 0.702166 0
M  V30 17 C -2.434207 1.694123 1.483194 0
M  V30 18 C -2.859011 0.377442 1.421828 0
M  V30 19 C -3.969636 -0.073923 2.108301 0
M  V30 20 C -4.680931 0.843183 2.889550 0
M  V30 21 N -4.252536 2.107820 2.933691 0
M  V30 22 C -3.174889 2.558053 2.270944 0
M  V30 23 C -0.250251 1.091367 0.505660 0
M  V30 24 C 0.889789 1.355911 -0.211973 0
M  V30 25 C 2.848228 -3.537679 1.811200 0
M  V30 26 H 1.544794 -6.674754 1.940225 0
M  V30 27 H 0.907644 -6.070206 -0.357497 0
M  V30 28 H 1.512015 -3.901276 -1.206985 0
M  V30 29 H 3.782555 -1.446412 0.279484 0
M  V30 30 H 2.899859 -2.031113 -1.197802 0
M  V30 31 H 0.915413 -1.293858 0.726172 0
M  V30 32 H 3.987213 2.168352 -2.195645 0
M  V30 33 H 0.193595 4.583677 -0.991332 0
M  V30 34 H -1.855439 4.030482 0.327255 0
M  V30 35 H -2.385401 -0.411341 0.850699 0
M  V30 36 H -4.326549 -1.105511 2.077724 0
M  V30 37 H -5.558050 0.507903 3.438572 0
M  V30 38 H -2.796229 3.570571 2.280133 0
M  V30 39 H -0.424922 0.141644 0.942513 0
M  V30 40 H 3.393631 -2.776804 2.365950 0
M  V30 END ATOM
M  V30 BEGIN BOND
M  V30 1 1 1 2
M  V30 2 2 2 3
M  V30 3 1 3 4
M  V30 4 2 4 5
M  V30 5 1 5 6
M  V30 6 1 6 7
M  V30 7 1 7 8
M  V30 8 1 8 9
M  V30 9 2 9 10
M  V30 10 1 10 11
M  V30 11 2 11 12
M  V30 12 1 12 13
M  V30 13 2 13 14
M  V30 14 1 14 15
M  V30 15 2 15 16
M  V30 16 1 16 17
M  V30 17 2 17 18
M  V30 18 1 18 19
M  V30 19 2 19 20
M  V30 20 1 20 21
M  V30 21 2 21 22
M  V30 22 1 16 23
M  V30 23 2 23 24
M  V30 24 2 6 25
M  V30 25 1 25 2
M  V30 26 1 24 9
M  V30 27 1 24 13
M  V30 28 1 22 17
M  V30 29 1 3 26
M  V30 30 1 4 27
M  V30 31 1 5 28
M  V30 32 1 7 29
M  V30 33 1 7 30
M  V30 34 1 8 31
M  V30 35 1 11 32
M  V30 36 1 14 33
M  V30 37 1 15 34
M  V30 38 1 18 35
M  V30 39 1 19 36
M  V30 40 1 20 37
M  V30 41 1 22 38
M  V30 42 1 23 39
M  V30 43 1 25 40
M  V30 END BOND
M  V30 END CTAB
M  END
>  <Dataset>  (916) 
ChEMBL_Kinases

>  <Ligand_Instance>  (916) 
nan

>  <PDB_ID>  (916) 
nan

>  <Standardized_SMILES>  (916) 
Fc1cccc(CNc2ncnc3ccc(-c4cccnc4)cc23)c1

>  <Name>  (916) 
nan

>  <Pocket>  (916) 
nan

>  <ATP_Site>  (916) 
nan

>  <Peripheral>  (916) 
nan

>  <Num_H_Atoms_ProtBoundConf>  (916) 
nan

>  <Num_Resolved_Atoms>  (916) 
nan

>  <Num_Not_Resolved_Atoms>  (916) 
nan

$$$$
CHEMBL1316828
     RDKit          3D

  0  0  0  0  0  0  0  0  0  0999 V3000
M  V30 BEGIN CTAB
M  V30 COUNTS 59 65 0 0 0
M  V30 BEGIN ATOM
M  V30 1 O -0.493636 -0.973060 3.680297 0
M  V30 2 C -0.845087 -0.907512 2.454072 0
M  V30 3 C -0.512721 -2.182347 1.741076 0
M  V30 4 C -0.473090 -3.374411 2.343564 0
M  V30 5 C -0.763558 -3.538114 3.759131 0
M  V30 6 C 0.198292 -4.247725 4.485824 0
M  V30 7 C 0.008984 -4.507444 5.848232 0
M  V30 8 C -1.144086 -4.046393 6.446353 0
M  V30 9 C -2.119093 -3.343434 5.770259 0
M  V30 10 C -1.911612 -3.099573 4.429604 0
M  V30 11 C -0.246971 -2.090999 0.247492 0
M  V30 12 C 0.363232 -0.790000 -0.004995 0 CFG=1
M  V30 13 O 1.614599 -0.872673 0.709745 0
M  V30 14 C 0.786215 -0.379783 -1.366451 0 CFG=1
M  V30 15 C -0.252786 0.120682 -2.324120 0
M  V30 16 C -1.210542 1.001980 -1.685810 0
M  V30 17 C -2.126247 1.850274 -2.311508 0
M  V30 18 C -3.047593 2.626360 -1.605680 0
M  V30 19 C -3.086779 2.577282 -0.215213 0
M  V30 20 O -3.937218 3.281167 0.625272 0
M  V30 21 C -2.207438 1.752703 0.523541 0
M  V30 22 C -1.343306 1.044147 -0.340533 0
M  V30 23 C -0.395699 0.330617 0.520952 0 CFG=2
M  V30 24 C 0.571595 1.376125 0.986415 0
M  V30 25 C 1.681923 1.457752 0.000387 0
M  V30 26 N 1.674301 0.703220 -1.163310 0
M  V30 27 C 2.472963 1.130266 -2.249356 0
M  V30 28 C 3.954724 1.067094 -2.065809 0
M  V30 29 C 4.750731 1.559283 -3.305748 0
M  V30 30 C 4.708598 0.115079 -2.920036 0
M  V30 31 C -1.446466 0.004872 1.580276 0 CFG=2
M  V30 32 O -1.823942 1.321859 1.832844 0
M  V30 33 H -0.217673 -4.304517 1.813198 0
M  V30 34 H 1.095382 -4.611138 4.048170 0
M  V30 35 H 0.755832 -5.055779 6.404426 0
M  V30 36 H -1.355450 -4.209870 7.494553 0
M  V30 37 H -3.033941 -2.966334 6.195624 0
M  V30 38 H -2.647774 -2.562198 3.836446 0
M  V30 39 H 0.494362 -2.901929 -0.015356 0
M  V30 40 H -1.146994 -2.361487 -0.337674 0
M  V30 41 H 1.482974 -0.754164 1.662403 0
M  V30 42 H 1.294080 -1.281249 -1.821015 0
M  V30 43 H -0.771147 -0.724620 -2.848541 0
M  V30 44 H 0.286263 0.746688 -3.102899 0
M  V30 45 H -2.106709 1.896709 -3.400359 0
M  V30 46 H -3.755092 3.284296 -2.064881 0
M  V30 47 H -3.836666 4.291882 0.786482 0
M  V30 48 H 0.927994 1.185559 2.030362 0
M  V30 49 H -0.014062 2.337141 1.098394 0
M  V30 50 H 2.700584 1.449851 0.535926 0
M  V30 51 H 1.685945 2.546414 -0.352121 0
M  V30 52 H 2.141262 2.158921 -2.543954 0
M  V30 53 H 2.239749 0.502479 -3.154080 0
M  V30 54 H 4.419156 1.269356 -1.084773 0
M  V30 55 H 5.646297 2.149726 -3.098052 0
M  V30 56 H 4.166295 1.861440 -4.199709 0
M  V30 57 H 5.679166 -0.317051 -2.607451 0
M  V30 58 H 4.156753 -0.595642 -3.590215 0
M  V30 59 H -2.291664 -0.452832 1.034619 0
M  V30 END ATOM
M  V30 BEGIN BOND
M  V30 1 2 1 2
M  V30 2 1 2 3
M  V30 3 2 3 4
M  V30 4 1 4 5
M  V30 5 2 5 6
M  V30 6 1 6 7
M  V30 7 2 7 8
M  V30 8 1 8 9
M  V30 9 2 9 10
M  V30 10 1 3 11
M  V30 11 1 11 12
M  V30 12 1 12 13 CFG=1
M  V30 13 1 12 14
M  V30 14 1 14 15
M  V30 15 1 15 16
M  V30 16 2 16 17
M  V30 17 1 17 18
M  V30 18 2 18 19
M  V30 19 1 19 20
M  V30 20 1 19 21
M  V30 21 2 21 22
M  V30 22 1 22 23
M  V30 23 1 23 24 CFG=1
M  V30 24 1 24 25
M  V30 25 1 25 26
M  V30 26 1 26 27
M  V30 27 1 27 28
M  V30 28 1 28 29
M  V30 29 1 29 30
M  V30 30 1 23 31
M  V30 31 1 31 32
M  V30 32 1 31 2
M  V30 33 1 10 5
M  V30 34 1 23 12
M  V30 35 1 30 28
M  V30 36 1 26 14
M  V30 37 1 22 16
M  V30 38 1 32 21
M  V30 39 1 4 33
M  V30 40 1 6 34
M  V30 41 1 7 35
M  V30 42 1 8 36
M  V30 43 1 9 37
M  V30 44 1 10 38
M  V30 45 1 11 39
M  V30 46 1 11 40
M  V30 47 1 13 41
M  V30 48 1 14 42 CFG=3
M  V30 49 1 15 43
M  V30 50 1 15 44
M  V30 51 1 17 45
M  V30 52 1 18 46
M  V30 53 1 20 47
M  V30 54 1 24 48
M  V30 55 1 24 49
M  V30 56 1 25 50
M  V30 57 1 25 51
M  V30 58 1 27 52
M  V30 59 1 27 53
M  V30 60 1 28 54
M  V30 61 1 29 55
M  V30 62 1 29 56
M  V30 63 1 30 57
M  V30 64 1 30 58
M  V30 65 1 31 59 CFG=3
M  V30 END BOND
M  V30 END CTAB
M  END
>  <Dataset>  (917) 
ChEMBL_Kinases

>  <Ligand_Instance>  (917) 
nan

>  <PDB_ID>  (917) 
nan

>  <Standardized_SMILES>  (917) 
O=C1/C(=C\c2ccccc2)C[C@@]2(O)[C@H]3Cc4ccc(O)c5c4[C@@]2(CCN3CC2CC2)[C@@H]1O5

>  <Name>  (917) 
nan

>  <Pocket>  (917) 
nan

>  <ATP_Site>  (917) 
nan

>  <Peripheral>  (917) 
nan

>  <Num_H_Atoms_ProtBoundConf>  (917) 
nan

>  <Num_Resolved_Atoms>  (917) 
nan

>  <Num_Not_Resolved_Atoms>  (917) 
nan

$$$$
CHEMBL1316956
     RDKit          3D

  0  0  0  0  0  0  0  0  0  0999 V3000
M  V30 BEGIN CTAB
M  V30 COUNTS 50 53 0 0 0
M  V30 BEGIN ATOM
M  V30 1 C 0.005770 -4.596145 2.495226 0
M  V30 2 O 0.223296 -3.624528 1.498312 0
M  V30 3 C 1.350068 -2.823313 1.494665 0
M  V30 4 C 2.261323 -3.005571 2.507454 0
M  V30 5 C 3.386066 -2.222036 2.521532 0
M  V30 6 C 3.610283 -1.270984 1.549750 0
M  V30 7 N 4.586215 -0.387925 1.299485 0
M  V30 8 C 4.263682 0.294130 0.175744 0
M  V30 9 C 3.036185 -0.129874 -0.359588 0
M  V30 10 C 2.463809 0.470482 -1.560610 0
M  V30 11 C 1.465179 1.558879 -1.414801 0
M  V30 12 N 0.282120 1.268720 -0.690373 0
M  V30 13 C 0.102008 1.182728 0.734769 0
M  V30 14 N 1.086950 1.398193 1.619606 0
M  V30 15 C 0.865610 1.320409 2.937517 0
M  V30 16 N -0.352726 1.023555 3.424413 0
M  V30 17 C -1.408983 0.790109 2.621132 0
M  V30 18 C -1.155891 0.876083 1.271791 0
M  V30 19 C -2.308508 0.644610 0.398660 0
M  V30 20 C -2.937233 1.884144 0.189489 0
M  V30 21 C -4.073200 2.010403 -0.599492 0
M  V30 22 C -4.600710 0.866880 -1.200004 0
M  V30 23 C -3.972992 -0.341779 -0.985946 0
M  V30 24 C -2.847645 -0.471404 -0.205211 0
M  V30 25 O -2.102018 -1.583272 0.111541 0
M  V30 26 C -2.427954 -2.864061 -0.370989 0
M  V30 27 C 2.680325 -1.122782 0.563240 0
M  V30 28 C 1.516242 -1.883327 0.487024 0
M  V30 29 H 0.709040 -5.458231 2.325988 0
M  V30 30 H 0.159172 -4.193702 3.513468 0
M  V30 31 H -1.022884 -5.017555 2.372803 0
M  V30 32 H 2.143754 -3.734075 3.299520 0
M  V30 33 H 4.154186 -2.313885 3.300612 0
M  V30 34 H 5.436609 -0.262093 1.880202 0
M  V30 35 H 4.933488 1.075392 -0.214167 0
M  V30 36 H 3.309485 0.826788 -2.208154 0
M  V30 37 H 1.938586 -0.326957 -2.198865 0
M  V30 38 H 1.160296 1.826867 -2.476165 0
M  V30 39 H 1.960041 2.513569 -1.043099 0
M  V30 40 H -0.595110 1.086636 -1.238134 0
M  V30 41 H 1.750246 1.517429 3.546738 0
M  V30 42 H -2.384828 0.551558 2.997862 0
M  V30 43 H -2.661184 2.872228 0.580568 0
M  V30 44 H -4.607789 2.911889 -0.808276 0
M  V30 45 H -5.482250 0.894434 -1.826019 0
M  V30 46 H -4.313176 -1.266625 -1.409323 0
M  V30 47 H -2.913899 -3.414534 0.472228 0
M  V30 48 H -3.089634 -2.875572 -1.243740 0
M  V30 49 H -1.459313 -3.366368 -0.653957 0
M  V30 50 H 0.779416 -1.750955 -0.315163 0
M  V30 END ATOM
M  V30 BEGIN BOND
M  V30 1 1 1 2
M  V30 2 1 2 3
M  V30 3 2 3 4
M  V30 4 1 4 5
M  V30 5 2 5 6
M  V30 6 1 6 7
M  V30 7 1 7 8
M  V30 8 2 8 9
M  V30 9 1 9 10
M  V30 10 1 10 11
M  V30 11 1 11 12
M  V30 12 1 12 13
M  V30 13 2 13 14
M  V30 14 1 14 15
M  V30 15 2 15 16
M  V30 16 1 16 17
M  V30 17 2 17 18
M  V30 18 1 18 19
M  V30 19 2 19 20
M  V30 20 1 20 21
M  V30 21 2 21 22
M  V30 22 1 22 23
M  V30 23 2 23 24
M  V30 24 1 24 25
M  V30 25 1 25 26
M  V30 26 1 9 27
M  V30 27 2 27 28
M  V30 28 1 28 3
M  V30 29 1 27 6
M  V30 30 1 18 13
M  V30 31 1 24 19
M  V30 32 1 1 29
M  V30 33 1 1 30
M  V30 34 1 1 31
M  V30 35 1 4 32
M  V30 36 1 5 33
M  V30 37 1 7 34
M  V30 38 1 8 35
M  V30 39 1 10 36
M  V30 40 1 10 37
M  V30 41 1 11 38
M  V30 42 1 11 39
M  V30 43 1 12 40
M  V30 44 1 15 41
M  V30 45 1 17 42
M  V30 46 1 20 43
M  V30 47 1 21 44
M  V30 48 1 22 45
M  V30 49 1 23 46
M  V30 50 1 26 47
M  V30 51 1 26 48
M  V30 52 1 26 49
M  V30 53 1 28 50
M  V30 END BOND
M  V30 END CTAB
M  END
>  <Dataset>  (918) 
ChEMBL_Kinases

>  <Ligand_Instance>  (918) 
nan

>  <PDB_ID>  (918) 
nan

>  <Standardized_SMILES>  (918) 
COc1ccc2[nH]cc(CCNc3ncncc3-c3ccccc3OC)c2c1

>  <Name>  (918) 
nan

>  <Pocket>  (918) 
nan

>  <ATP_Site>  (918) 
nan

>  <Peripheral>  (918) 
nan

>  <Num_H_Atoms_ProtBoundConf>  (918) 
nan

>  <Num_Resolved_Atoms>  (918) 
nan

>  <Num_Not_Resolved_Atoms>  (918) 
nan

$$$$
CHEMBL1316979
     RDKit          3D

  0  0  0  0  0  0  0  0  0  0999 V3000
M  V30 BEGIN CTAB
M  V30 COUNTS 48 52 0 0 0
M  V30 BEGIN ATOM
M  V30 1 C 2.491930 -4.652137 2.766541 0
M  V30 2 O 2.422316 -3.477888 2.016496 0
M  V30 3 C 3.430768 -3.032000 1.144290 0
M  V30 4 C 4.592480 -3.801599 1.008095 0
M  V30 5 C 5.631172 -3.411805 0.158437 0
M  V30 6 C 5.506769 -2.244005 -0.559967 0
M  V30 7 C 4.366094 -1.478941 -0.432814 0
M  V30 8 C 3.338661 -1.860351 0.404703 0
M  V30 9 C 2.082331 -1.044117 0.552705 0
M  V30 10 N 0.969012 -1.657342 -0.184091 0
M  V30 11 C -0.303894 -1.023763 -0.163369 0
M  V30 12 N -0.479620 0.105873 0.512741 0
M  V30 13 C -1.672080 0.757328 0.568729 0
M  V30 14 C -1.853519 1.997424 1.315974 0
M  V30 15 C -0.799109 2.562438 2.010461 0
M  V30 16 C -0.978307 3.737399 2.717446 0
M  V30 17 C -2.195023 4.396349 2.767345 0
M  V30 18 C -3.204150 3.794445 2.063129 0
M  V30 19 C -3.098958 2.627509 1.338121 0
M  V30 20 O -4.367685 4.542060 2.186694 0
M  V30 21 C -4.175051 5.523204 3.188463 0
M  V30 22 O -2.767112 5.529904 3.325715 0
M  V30 23 N -2.727030 0.232625 -0.093215 0
M  V30 24 C -2.641058 -0.910257 -0.805457 0
M  V30 25 C -3.728733 -1.446670 -1.484999 0
M  V30 26 C -3.606476 -2.608030 -2.198024 0
M  V30 27 C -2.370796 -3.242856 -2.230114 0
M  V30 28 C -1.309192 -2.680099 -1.541519 0
M  V30 29 C -1.404804 -1.524255 -0.823816 0
M  V30 30 H 3.030606 -4.546714 3.729255 0
M  V30 31 H 1.434019 -5.006687 2.938785 0
M  V30 32 H 2.970818 -5.483060 2.209356 0
M  V30 33 H 4.751339 -4.736443 1.549620 0
M  V30 34 H 6.530057 -4.019183 0.061043 0
M  V30 35 H 6.331546 -1.961003 -1.216413 0
M  V30 36 H 4.249645 -0.561563 -0.986573 0
M  V30 37 H 1.830014 -0.894433 1.618512 0
M  V30 38 H 2.323233 -0.041139 0.157212 0
M  V30 39 H 1.208292 -2.529822 -0.674836 0
M  V30 40 H 0.191474 2.117365 2.029028 0
M  V30 41 H -0.164816 4.219562 3.283087 0
M  V30 42 H -3.909596 2.172419 0.790750 0
M  V30 43 H -4.598562 6.507303 2.909067 0
M  V30 44 H -4.660797 5.154353 4.134595 0
M  V30 45 H -4.684413 -0.922685 -1.438685 0
M  V30 46 H -4.520670 -2.956631 -2.702974 0
M  V30 47 H -2.322303 -4.153878 -2.804085 0
M  V30 48 H -0.394797 -3.235418 -1.620718 0
M  V30 END ATOM
M  V30 BEGIN BOND
M  V30 1 1 1 2
M  V30 2 1 2 3
M  V30 3 2 3 4
M  V30 4 1 4 5
M  V30 5 2 5 6
M  V30 6 1 6 7
M  V30 7 2 7 8
M  V30 8 1 8 9
M  V30 9 1 9 10
M  V30 10 1 10 11
M  V30 11 2 11 12
M  V30 12 1 12 13
M  V30 13 1 13 14
M  V30 14 2 14 15
M  V30 15 1 15 16
M  V30 16 2 16 17
M  V30 17 1 17 18
M  V30 18 2 18 19
M  V30 19 1 18 20
M  V30 20 1 20 21
M  V30 21 1 21 22
M  V30 22 2 13 23
M  V30 23 1 23 24
M  V30 24 2 24 25
M  V30 25 1 25 26
M  V30 26 2 26 27
M  V30 27 1 27 28
M  V30 28 2 28 29
M  V30 29 1 8 3
M  V30 30 1 29 11
M  V30 31 1 19 14
M  V30 32 1 29 24
M  V30 33 1 22 17
M  V30 34 1 1 30
M  V30 35 1 1 31
M  V30 36 1 1 32
M  V30 37 1 4 33
M  V30 38 1 5 34
M  V30 39 1 6 35
M  V30 40 1 7 36
M  V30 41 1 9 37
M  V30 42 1 9 38
M  V30 43 1 10 39
M  V30 44 1 15 40
M  V30 45 1 16 41
M  V30 46 1 19 42
M  V30 47 1 21 43
M  V30 48 1 21 44
M  V30 49 1 25 45
M  V30 50 1 26 46
M  V30 51 1 27 47
M  V30 52 1 28 48
M  V30 END BOND
M  V30 END CTAB
M  END
>  <Dataset>  (919) 
ChEMBL_Kinases

>  <Ligand_Instance>  (919) 
nan

>  <PDB_ID>  (919) 
nan

>  <Standardized_SMILES>  (919) 
COc1ccccc1CNc1nc(-c2ccc3c(c2)OCO3)nc2ccccc12

>  <Name>  (919) 
nan

>  <Pocket>  (919) 
nan

>  <ATP_Site>  (919) 
nan

>  <Peripheral>  (919) 
nan

>  <Num_H_Atoms_ProtBoundConf>  (919) 
nan

>  <Num_Resolved_Atoms>  (919) 
nan

>  <Num_Not_Resolved_Atoms>  (919) 
nan

$$$$
CHEMBL1317302
     RDKit          3D

  0  0  0  0  0  0  0  0  0  0999 V3000
M  V30 BEGIN CTAB
M  V30 COUNTS 54 58 0 0 0
M  V30 BEGIN ATOM
M  V30 1 C 3.403868 -4.782540 -0.227267 0
M  V30 2 C 2.261243 -5.720088 0.077196 0
M  V30 3 N 1.863509 -5.530130 1.470965 0
M  V30 4 C 1.595957 -4.145075 1.480826 0
M  V30 5 N 2.559229 -3.324122 2.003023 0
M  V30 6 C 2.432210 -1.999831 2.068869 0
M  V30 7 C 1.275496 -1.417912 1.587697 0
M  V30 8 N 1.134364 -0.075733 1.633824 0
M  V30 9 C -0.025178 0.450655 1.131847 0
M  V30 10 C -0.079142 1.901481 1.255043 0
M  V30 11 C -0.065049 2.722038 0.128105 0
M  V30 12 N -0.068403 3.951324 0.671191 0
M  V30 13 C -0.041109 5.169633 -0.143874 0
M  V30 14 C -0.085209 3.960651 2.005583 0
M  V30 15 C -0.117705 4.864092 3.043871 0
M  V30 16 C -0.154258 4.545201 4.363207 0
M  V30 17 C -0.157330 3.186302 4.740805 0
M  V30 18 C -0.126794 2.176652 3.767386 0
M  V30 19 C -0.093682 2.651372 2.440308 0
M  V30 20 C -0.964534 -0.371800 0.617913 0
M  V30 21 O -2.019418 0.176511 0.166011 0
M  V30 22 N -0.806784 -1.696577 0.580612 0
M  V30 23 C -1.813465 -2.585255 0.025390 0
M  V30 24 C -1.496531 -2.711891 -1.471182 0 CFG=1
M  V30 25 C -2.438486 -3.594154 -2.197241 0
M  V30 26 C -3.337941 -2.636231 -2.943981 0
M  V30 27 C -2.491520 -1.407028 -3.015080 0
M  V30 28 O -1.609221 -1.423763 -1.968470 0
M  V30 29 C 0.321245 -2.253562 1.065688 0
M  V30 30 N 0.461787 -3.607830 1.005335 0
M  V30 31 H 4.170996 -4.828923 0.544305 0
M  V30 32 H 3.849884 -5.017672 -1.231013 0
M  V30 33 H 2.995486 -3.742687 -0.301353 0
M  V30 34 H 1.414120 -5.549788 -0.635998 0
M  V30 35 H 2.620789 -6.773783 -0.063047 0
M  V30 36 H 1.840948 -6.324322 2.141689 0
M  V30 37 H 3.253066 -1.414510 2.498566 0
M  V30 38 H -0.058566 2.487064 -0.914423 0
M  V30 39 H -0.445970 6.030529 0.397365 0
M  V30 40 H -0.540301 5.005469 -1.119769 0
M  V30 41 H 1.030971 5.430132 -0.402148 0
M  V30 42 H -0.112576 5.925183 2.762783 0
M  V30 43 H -0.184011 5.347176 5.104624 0
M  V30 44 H -0.193110 2.935337 5.801373 0
M  V30 45 H -0.135181 1.143440 4.020715 0
M  V30 46 H -2.823391 -2.207329 0.182638 0
M  V30 47 H -1.757142 -3.589877 0.524737 0
M  V30 48 H -0.470766 -3.079984 -1.535275 0
M  V30 49 H -3.068709 -4.199850 -1.512224 0
M  V30 50 H -1.910838 -4.258778 -2.915722 0
M  V30 51 H -4.310413 -2.475931 -2.478098 0
M  V30 52 H -3.479129 -3.038680 -3.967794 0
M  V30 53 H -3.147962 -0.502074 -2.888201 0
M  V30 54 H -1.964389 -1.295987 -3.968629 0
M  V30 END ATOM
M  V30 BEGIN BOND
M  V30 1 1 1 2
M  V30 2 1 2 3
M  V30 3 1 3 4
M  V30 4 2 4 5
M  V30 5 1 5 6
M  V30 6 2 6 7
M  V30 7 1 7 8
M  V30 8 2 8 9
M  V30 9 1 9 10
M  V30 10 2 10 11
M  V30 11 1 11 12
M  V30 12 1 12 13
M  V30 13 1 12 14
M  V30 14 2 14 15
M  V30 15 1 15 16
M  V30 16 2 16 17
M  V30 17 1 17 18
M  V30 18 2 18 19
M  V30 19 1 9 20
M  V30 20 2 20 21
M  V30 21 1 20 22
M  V30 22 1 22 23
M  V30 23 1 23 24
M  V30 24 1 24 25
M  V30 25 1 25 26
M  V30 26 1 26 27
M  V30 27 1 27 28
M  V30 28 1 22 29
M  V30 29 2 29 30
M  V30 30 1 30 4
M  V30 31 1 29 7
M  V30 32 1 19 10
M  V30 33 1 28 24
M  V30 34 1 19 14
M  V30 35 1 1 31
M  V30 36 1 1 32
M  V30 37 1 1 33
M  V30 38 1 2 34
M  V30 39 1 2 35
M  V30 40 1 3 36
M  V30 41 1 6 37
M  V30 42 1 11 38
M  V30 43 1 13 39
M  V30 44 1 13 40
M  V30 45 1 13 41
M  V30 46 1 15 42
M  V30 47 1 16 43
M  V30 48 1 17 44
M  V30 49 1 18 45
M  V30 50 1 23 46
M  V30 51 1 23 47
M  V30 52 1 24 48 CFG=1
M  V30 53 1 25 49
M  V30 54 1 25 50
M  V30 55 1 26 51
M  V30 56 1 26 52
M  V30 57 1 27 53
M  V30 58 1 27 54
M  V30 END BOND
M  V30 END CTAB
M  END
>  <Dataset>  (920) 
ChEMBL_Kinases

>  <Ligand_Instance>  (920) 
nan

>  <PDB_ID>  (920) 
nan

>  <Standardized_SMILES>  (920) 
CCNc1ncc2nc(-c3cn(C)c4ccccc34)c(=O)n(C[C@H]3CCCO3)c2n1

>  <Name>  (920) 
nan

>  <Pocket>  (920) 
nan

>  <ATP_Site>  (920) 
nan

>  <Peripheral>  (920) 
nan

>  <Num_H_Atoms_ProtBoundConf>  (920) 
nan

>  <Num_Resolved_Atoms>  (920) 
nan

>  <Num_Not_Resolved_Atoms>  (920) 
nan

$$$$
CHEMBL1318509
     RDKit          3D

  0  0  0  0  0  0  0  0  0  0999 V3000
M  V30 BEGIN CTAB
M  V30 COUNTS 36 38 0 0 0
M  V30 BEGIN ATOM
M  V30 1 N 1.019166 -7.209858 1.579449 0
M  V30 2 C 1.354591 -6.116032 1.728628 0
M  V30 3 C 1.760887 -4.750898 1.936803 0
M  V30 4 C 2.573743 -4.357108 2.998984 0
M  V30 5 C 2.972087 -3.042465 3.201082 0
M  V30 6 C 2.539600 -2.087326 2.305525 0
M  V30 7 C 1.737357 -2.485109 1.260315 0
M  V30 8 C 1.248475 -1.515655 0.292827 0
M  V30 9 N 0.437358 -1.879750 -0.728941 0
M  V30 10 C -0.015178 -0.972843 -1.617463 0
M  V30 11 C 0.342609 0.368414 -1.506107 0
M  V30 12 C 1.181774 0.721564 -0.443089 0
M  V30 13 N 1.435459 2.118641 -0.474882 0
M  V30 14 C 0.507021 2.714784 0.461280 0
M  V30 15 C -0.881386 2.314232 0.121373 0
M  V30 16 C -1.744460 2.934665 -0.753410 0
M  V30 17 C -3.026231 2.449377 -0.957559 0
M  V30 18 C -3.500444 1.323097 -0.295566 0
M  V30 19 C -2.650624 0.685293 0.586941 0
M  V30 20 C -1.390434 1.186122 0.768882 0
M  V30 21 N 1.593108 -0.237346 0.403246 0
M  V30 22 C 1.321807 -3.797588 1.032737 0
M  V30 23 H 2.905207 -5.114776 3.691116 0
M  V30 24 H 3.601723 -2.777286 4.035202 0
M  V30 25 H 2.818292 -1.051734 2.415630 0
M  V30 26 H -0.643446 -1.446090 -2.352705 0
M  V30 27 H -0.097323 0.955802 -2.286442 0
M  V30 28 H 2.104368 2.726591 -1.000006 0
M  V30 29 H 0.778782 2.332872 1.477782 0
M  V30 30 H 0.616731 3.820041 0.503808 0
M  V30 31 H -1.322774 3.803734 -1.239890 0
M  V30 32 H -3.666615 2.978293 -1.661846 0
M  V30 33 H -4.499154 0.960274 -0.467434 0
M  V30 34 H -3.055736 -0.184841 1.078774 0
M  V30 35 H -0.833248 0.577774 1.500550 0
M  V30 36 H 0.690572 -4.071742 0.199390 0
M  V30 END ATOM
M  V30 BEGIN BOND
M  V30 1 3 1 2
M  V30 2 1 2 3
M  V30 3 2 3 4
M  V30 4 1 4 5
M  V30 5 2 5 6
M  V30 6 1 6 7
M  V30 7 1 7 8
M  V30 8 2 8 9
M  V30 9 1 9 10
M  V30 10 2 10 11
M  V30 11 1 11 12
M  V30 12 1 12 13
M  V30 13 1 13 14
M  V30 14 1 14 15
M  V30 15 2 15 16
M  V30 16 1 16 17
M  V30 17 2 17 18
M  V30 18 1 18 19
M  V30 19 2 19 20
M  V30 20 2 12 21
M  V30 21 2 7 22
M  V30 22 1 22 3
M  V30 23 1 21 8
M  V30 24 1 20 15
M  V30 25 1 4 23
M  V30 26 1 5 24
M  V30 27 1 6 25
M  V30 28 1 10 26
M  V30 29 1 11 27
M  V30 30 1 13 28
M  V30 31 1 14 29
M  V30 32 1 14 30
M  V30 33 1 16 31
M  V30 34 1 17 32
M  V30 35 1 18 33
M  V30 36 1 19 34
M  V30 37 1 20 35
M  V30 38 1 22 36
M  V30 END BOND
M  V30 END CTAB
M  END
>  <Dataset>  (921) 
ChEMBL_Kinases

>  <Ligand_Instance>  (921) 
nan

>  <PDB_ID>  (921) 
nan

>  <Standardized_SMILES>  (921) 
N#Cc1cccc(-c2nccc(NCc3ccccc3)n2)c1

>  <Name>  (921) 
nan

>  <Pocket>  (921) 
nan

>  <ATP_Site>  (921) 
nan

>  <Peripheral>  (921) 
nan

>  <Num_H_Atoms_ProtBoundConf>  (921) 
nan

>  <Num_Resolved_Atoms>  (921) 
nan

>  <Num_Not_Resolved_Atoms>  (921) 
nan

$$$$
CHEMBL131770
     RDKit          3D

  0  0  0  0  0  0  0  0  0  0999 V3000
M  V30 BEGIN CTAB
M  V30 COUNTS 39 40 0 0 0
M  V30 BEGIN ATOM
M  V30 1 O 1.471900 -2.495127 3.199470 0
M  V30 2 C 0.638484 -1.623813 2.847727 0
M  V30 3 C 0.709861 -1.176667 1.466390 0
M  V30 4 C 1.619821 -1.693907 0.676233 0
M  V30 5 O 2.536735 -2.668666 1.107026 0
M  V30 6 C 1.739222 -1.278445 -0.734989 0
M  V30 7 C 2.634266 -1.769608 -1.559828 0
M  V30 8 C 2.799101 -1.398759 -2.959709 0
M  V30 9 C 2.011178 -0.463698 -3.593676 0
M  V30 10 C 2.184185 -0.131490 -4.908815 0
M  V30 11 C 3.172327 -0.724443 -5.682254 0
M  V30 12 O 3.328849 -0.371497 -7.013859 0
M  V30 13 C 3.961436 -1.660672 -5.047973 0
M  V30 14 C 3.769224 -1.980342 -3.720541 0
M  V30 15 C -0.345058 -1.094860 3.783337 0
M  V30 16 C -1.250452 -0.178250 3.482246 0
M  V30 17 C -2.248239 0.373273 4.391061 0
M  V30 18 C -3.143773 1.329746 3.958635 0
M  V30 19 C -4.092876 1.860190 4.807295 0
M  V30 20 C -4.191525 1.457246 6.134389 0
M  V30 21 O -5.176229 2.040364 6.926230 0
M  V30 22 C -3.296309 0.497604 6.576144 0
M  V30 23 C -2.367876 -0.002160 5.694240 0
M  V30 24 H 0.070042 -0.436941 1.004614 0
M  V30 25 H 3.506152 -2.664836 0.895909 0
M  V30 26 H 1.055246 -0.530224 -1.113390 0
M  V30 27 H 3.288972 -2.511925 -1.126942 0
M  V30 28 H 1.221603 0.039313 -3.054638 0
M  V30 29 H 1.570605 0.601685 -5.416140 0
M  V30 30 H 2.956133 0.543191 -7.304599 0
M  V30 31 H 4.743469 -2.146006 -5.616642 0
M  V30 32 H 4.418432 -2.720815 -3.279263 0
M  V30 33 H -0.347108 -1.468020 4.797688 0
M  V30 34 H -1.221528 0.173857 2.460186 0
M  V30 35 H -3.120995 1.689685 2.930379 0
M  V30 36 H -4.777161 2.613303 4.416651 0
M  V30 37 H -6.142068 1.870077 6.614499 0
M  V30 38 H -3.383971 0.199913 7.592121 0
M  V30 39 H -1.715111 -0.739081 6.116903 0
M  V30 END ATOM
M  V30 BEGIN BOND
M  V30 1 2 1 2
M  V30 2 1 2 3
M  V30 3 2 3 4
M  V30 4 1 4 5
M  V30 5 1 4 6
M  V30 6 2 6 7
M  V30 7 1 7 8
M  V30 8 2 8 9
M  V30 9 1 9 10
M  V30 10 2 10 11
M  V30 11 1 11 12
M  V30 12 1 11 13
M  V30 13 2 13 14
M  V30 14 1 2 15
M  V30 15 2 15 16
M  V30 16 1 16 17
M  V30 17 2 17 18
M  V30 18 1 18 19
M  V30 19 2 19 20
M  V30 20 1 20 21
M  V30 21 1 20 22
M  V30 22 2 22 23
M  V30 23 1 14 8
M  V30 24 1 23 17
M  V30 25 1 3 24
M  V30 26 1 5 25
M  V30 27 1 6 26
M  V30 28 1 7 27
M  V30 29 1 9 28
M  V30 30 1 10 29
M  V30 31 1 12 30
M  V30 32 1 13 31
M  V30 33 1 14 32
M  V30 34 1 15 33
M  V30 35 1 16 34
M  V30 36 1 18 35
M  V30 37 1 19 36
M  V30 38 1 21 37
M  V30 39 1 22 38
M  V30 40 1 23 39
M  V30 END BOND
M  V30 END CTAB
M  END
>  <Dataset>  (922) 
ChEMBL_Kinases

>  <Ligand_Instance>  (922) 
nan

>  <PDB_ID>  (922) 
nan

>  <Standardized_SMILES>  (922) 
O=C(/C=C(O)/C=C/c1ccc(O)cc1)/C=C/c1ccc(O)cc1

>  <Name>  (922) 
nan

>  <Pocket>  (922) 
nan

>  <ATP_Site>  (922) 
nan

>  <Peripheral>  (922) 
nan

>  <Num_H_Atoms_ProtBoundConf>  (922) 
nan

>  <Num_Resolved_Atoms>  (922) 
nan

>  <Num_Not_Resolved_Atoms>  (922) 
nan

$$$$
CHEMBL1317712
     RDKit          3D

  0  0  0  0  0  0  0  0  0  0999 V3000
M  V30 BEGIN CTAB
M  V30 COUNTS 49 51 0 0 0
M  V30 BEGIN ATOM
M  V30 1 C 1.048536 -3.592031 0.783033 0
M  V30 2 O 2.021243 -2.830812 0.141557 0
M  V30 3 C 2.447337 -1.550865 0.703861 0
M  V30 4 C 1.778400 -1.195620 1.878592 0
M  V30 5 C 2.362262 -0.007287 2.251807 0
M  V30 6 C 3.365611 0.674356 1.655373 0
M  V30 7 C 3.900977 0.139772 0.465856 0
M  V30 8 C 3.433414 -1.054865 -0.102196 0
M  V30 9 C 3.901647 -1.466986 -1.406535 0
M  V30 10 N 3.242615 -0.786802 -2.540926 0
M  V30 11 C 1.852355 -0.807382 -2.556082 0
M  V30 12 C 1.192633 0.144541 -1.714989 0
M  V30 13 C -0.129972 -0.139644 -1.872809 0
M  V30 14 C -1.083844 0.416919 -0.900525 0
M  V30 15 C -0.718620 1.321000 0.112035 0
M  V30 16 C -1.494768 1.853460 1.335640 0
M  V30 17 C -2.612184 1.080182 0.972848 0
M  V30 18 C -3.093106 0.401387 2.308769 0
M  V30 19 O -2.678838 -0.070793 3.391490 0
M  V30 20 N -3.551555 -0.211925 3.512590 0
M  V30 21 C -2.449214 -0.396669 4.437175 0
M  V30 22 C -4.882945 -0.671960 3.868137 0
M  V30 23 C -3.338875 0.226396 0.226528 0
M  V30 24 C -2.354348 0.063812 -0.599423 0
M  V30 25 N -0.779473 -1.057697 -2.610343 0
M  V30 26 C 0.000415 -1.928059 -3.372720 0
M  V30 27 N 1.319375 -1.720339 -3.279178 0
M  V30 28 H 1.442210 -3.640797 1.863027 0
M  V30 29 H 1.153302 -4.661844 0.435082 0
M  V30 30 H 0.022409 -3.295896 0.791943 0
M  V30 31 H 0.988343 -1.711284 2.295563 0
M  V30 32 H 1.984002 0.466225 3.116553 0
M  V30 33 H 3.770366 1.649383 2.026443 0
M  V30 34 H 4.711077 0.679307 0.019078 0
M  V30 35 H 4.969497 -1.422334 -1.446083 0
M  V30 36 H 3.623868 -2.575432 -1.592921 0
M  V30 37 H 3.929632 -0.352974 -3.195464 0
M  V30 38 H 1.625331 0.912272 -1.140483 0
M  V30 39 H 0.344897 1.768207 0.049165 0
M  V30 40 H -1.147449 2.451645 2.037281 0
M  V30 41 H -1.919588 -1.371761 4.260872 0
M  V30 42 H -1.680644 0.470141 4.486372 0
M  V30 43 H -2.883828 -0.452046 5.431013 0
M  V30 44 H -5.669758 -0.199860 3.219723 0
M  V30 45 H -5.042087 -0.562442 4.973097 0
M  V30 46 H -4.833782 -1.768370 3.648893 0
M  V30 47 H -4.322198 -0.050665 0.364187 0
M  V30 48 H -2.683159 -0.569752 -1.539487 0
M  V30 49 H -0.488617 -2.701265 -3.947823 0
M  V30 END ATOM
M  V30 BEGIN BOND
M  V30 1 1 1 2
M  V30 2 1 2 3
M  V30 3 2 3 4
M  V30 4 1 4 5
M  V30 5 2 5 6
M  V30 6 1 6 7
M  V30 7 2 7 8
M  V30 8 1 8 9
M  V30 9 1 9 10
M  V30 10 1 10 11
M  V30 11 2 11 12
M  V30 12 1 12 13
M  V30 13 1 13 14
M  V30 14 2 14 15
M  V30 15 1 15 16
M  V30 16 2 16 17
M  V30 17 1 17 18
M  V30 18 2 18 19
M  V30 19 1 18 20
M  V30 20 1 20 21
M  V30 21 1 20 22
M  V30 22 1 17 23
M  V30 23 2 23 24
M  V30 24 2 13 25
M  V30 25 1 25 26
M  V30 26 2 26 27
M  V30 27 1 8 3
M  V30 28 1 27 11
M  V30 29 1 24 14
M  V30 30 1 1 28
M  V30 31 1 1 29
M  V30 32 1 1 30
M  V30 33 1 4 31
M  V30 34 1 5 32
M  V30 35 1 6 33
M  V30 36 1 7 34
M  V30 37 1 9 35
M  V30 38 1 9 36
M  V30 39 1 10 37
M  V30 40 1 12 38
M  V30 41 1 15 39
M  V30 42 1 16 40
M  V30 43 1 21 41
M  V30 44 1 21 42
M  V30 45 1 21 43
M  V30 46 1 22 44
M  V30 47 1 22 45
M  V30 48 1 22 46
M  V30 49 1 23 47
M  V30 50 1 24 48
M  V30 51 1 26 49
M  V30 END BOND
M  V30 END CTAB
M  END
>  <Dataset>  (923) 
ChEMBL_Kinases

>  <Ligand_Instance>  (923) 
nan

>  <PDB_ID>  (923) 
nan

>  <Standardized_SMILES>  (923) 
COc1ccccc1CNc1cc(-c2ccc(C(=O)N(C)C)cc2)ncn1

>  <Name>  (923) 
nan

>  <Pocket>  (923) 
nan

>  <ATP_Site>  (923) 
nan

>  <Peripheral>  (923) 
nan

>  <Num_H_Atoms_ProtBoundConf>  (923) 
nan

>  <Num_Resolved_Atoms>  (923) 
nan

>  <Num_Not_Resolved_Atoms>  (923) 
nan

$$$$
CHEMBL1317820
     RDKit          3D

  0  0  0  0  0  0  0  0  0  0999 V3000
M  V30 BEGIN CTAB
M  V30 COUNTS 60 63 0 0 0
M  V30 BEGIN ATOM
M  V30 1 C 2.522413 -4.849196 7.234235 0
M  V30 2 O 2.133500 -4.949981 5.859378 0
M  V30 3 C 1.922398 -3.798157 5.115218 0
M  V30 4 C 2.096809 -2.577313 5.733849 0
M  V30 5 C 1.875795 -1.435768 4.954530 0
M  V30 6 C 1.499930 -1.563642 3.625623 0
M  V30 7 N 1.275742 -0.399222 2.835103 0
M  V30 8 C 2.026338 0.466311 1.988329 0
M  V30 9 O 3.265174 0.202602 1.831657 0
M  V30 10 N 1.266858 1.527627 1.424640 0
M  V30 11 C -0.127390 1.931989 1.522273 0
M  V30 12 C -0.759885 1.566236 0.196269 0
M  V30 13 C 0.090295 2.160652 -0.919200 0
M  V30 14 C 1.120007 3.130945 -0.358543 0
M  V30 15 C 2.080005 2.386565 0.564708 0
M  V30 16 C -0.849785 2.930557 -1.812790 0
M  V30 17 C -1.720713 2.090769 -2.681094 0
M  V30 18 N -1.272966 0.723269 -2.802274 0
M  V30 19 C -2.186279 -0.352306 -2.875593 0
M  V30 20 O -3.410963 -0.022436 -2.826853 0
M  V30 21 O -1.668668 -1.622344 -2.990022 0
M  V30 22 C -2.417375 -2.789087 -3.073716 0
M  V30 23 C -2.706871 -3.378500 -1.861059 0
M  V30 24 C -3.443214 -4.542404 -1.795260 0
M  V30 25 C -3.863043 -5.069029 -2.991185 0
M  V30 26 C -3.598718 -4.514790 -4.243186 0
M  V30 27 C -2.856194 -3.347096 -4.255644 0
M  V30 28 C 0.163582 0.547428 -2.841712 0
M  V30 29 C 0.848271 1.096082 -1.628917 0
M  V30 30 C 1.338222 -2.822852 3.051854 0
M  V30 31 C 1.550552 -3.976253 3.800467 0
M  V30 32 H 1.843798 -4.146650 7.794218 0
M  V30 33 H 2.498640 -5.831548 7.715061 0
M  V30 34 H 3.525386 -4.399075 7.273388 0
M  V30 35 H 2.388319 -2.469092 6.764698 0
M  V30 36 H 2.001536 -0.440920 5.400731 0
M  V30 37 H 0.249355 -0.325719 3.071336 0
M  V30 38 H -0.651314 1.349137 2.333288 0
M  V30 39 H -0.246051 2.988304 1.788358 0
M  V30 40 H -0.733430 0.437485 0.165829 0
M  V30 41 H -1.816966 1.839155 0.117641 0
M  V30 42 H 1.722424 3.470197 -1.229760 0
M  V30 43 H 0.662136 4.010430 0.131646 0
M  V30 44 H 2.756991 1.782487 -0.074438 0
M  V30 45 H 2.618102 3.161132 1.141106 0
M  V30 46 H -0.226408 3.594980 -2.474650 0
M  V30 47 H -1.480677 3.631339 -1.232406 0
M  V30 48 H -2.736842 2.055936 -2.237869 0
M  V30 49 H -1.837360 2.579335 -3.681660 0
M  V30 50 H -2.374447 -2.961796 -0.910320 0
M  V30 51 H -3.704522 -5.056877 -0.859351 0
M  V30 52 H -4.444380 -5.985870 -2.956222 0
M  V30 53 H -3.931245 -4.934679 -5.164619 0
M  V30 54 H -2.579132 -2.813011 -5.146294 0
M  V30 55 H 0.391835 -0.515332 -3.058433 0
M  V30 56 H 0.513709 1.130962 -3.719809 0
M  V30 57 H 1.873254 1.440197 -1.936767 0
M  V30 58 H 1.002131 0.245621 -0.929476 0
M  V30 59 H 1.044203 -2.968126 2.012228 0
M  V30 60 H 1.433802 -4.963626 3.386333 0
M  V30 END ATOM
M  V30 BEGIN BOND
M  V30 1 1 1 2
M  V30 2 1 2 3
M  V30 3 2 3 4
M  V30 4 1 4 5
M  V30 5 2 5 6
M  V30 6 1 6 7
M  V30 7 1 7 8
M  V30 8 2 8 9
M  V30 9 1 8 10
M  V30 10 1 10 11
M  V30 11 1 11 12
M  V30 12 1 12 13
M  V30 13 1 13 14
M  V30 14 1 14 15
M  V30 15 1 13 16
M  V30 16 1 16 17
M  V30 17 1 17 18
M  V30 18 1 18 19
M  V30 19 2 19 20
M  V30 20 1 19 21
M  V30 21 1 21 22
M  V30 22 2 22 23
M  V30 23 1 23 24
M  V30 24 2 24 25
M  V30 25 1 25 26
M  V30 26 2 26 27
M  V30 27 1 18 28
M  V30 28 1 28 29
M  V30 29 1 6 30
M  V30 30 2 30 31
M  V30 31 1 31 3
M  V30 32 1 15 10
M  V30 33 1 27 22
M  V30 34 1 29 13
M  V30 35 1 1 32
M  V30 36 1 1 33
M  V30 37 1 1 34
M  V30 38 1 4 35
M  V30 39 1 5 36
M  V30 40 1 7 37
M  V30 41 1 11 38
M  V30 42 1 11 39
M  V30 43 1 12 40
M  V30 44 1 12 41
M  V30 45 1 14 42
M  V30 46 1 14 43
M  V30 47 1 15 44
M  V30 48 1 15 45
M  V30 49 1 16 46
M  V30 50 1 16 47
M  V30 51 1 17 48
M  V30 52 1 17 49
M  V30 53 1 23 50
M  V30 54 1 24 51
M  V30 55 1 25 52
M  V30 56 1 26 53
M  V30 57 1 27 54
M  V30 58 1 28 55
M  V30 59 1 28 56
M  V30 60 1 29 57
M  V30 61 1 29 58
M  V30 62 1 30 59
M  V30 63 1 31 60
M  V30 END BOND
M  V30 END CTAB
M  END
>  <Dataset>  (924) 
ChEMBL_Kinases

>  <Ligand_Instance>  (924) 
nan

>  <PDB_ID>  (924) 
nan

>  <Standardized_SMILES>  (924) 
COc1ccc(NC(=O)N2CCC3(CC2)CCN(C(=O)Oc2ccccc2)CC3)cc1

>  <Name>  (924) 
nan

>  <Pocket>  (924) 
nan

>  <ATP_Site>  (924) 
nan

>  <Peripheral>  (924) 
nan

>  <Num_H_Atoms_ProtBoundConf>  (924) 
nan

>  <Num_Resolved_Atoms>  (924) 
nan

>  <Num_Not_Resolved_Atoms>  (924) 
nan

$$$$
CHEMBL1317916
     RDKit          3D

  0  0  0  0  0  0  0  0  0  0999 V3000
M  V30 BEGIN CTAB
M  V30 COUNTS 32 34 0 0 0
M  V30 BEGIN ATOM
M  V30 1 O -2.611619 -1.130846 3.350938 0
M  V30 2 C -1.822543 -0.611208 2.518975 0
M  V30 3 C -0.382439 -0.826701 2.554158 0
M  V30 4 O 0.051875 -1.650783 3.578287 0
M  V30 5 C 0.451443 -0.267628 1.661475 0
M  V30 6 C 1.894817 -0.580945 1.827032 0
M  V30 7 C 2.477901 -1.267028 0.647175 0
M  V30 8 C 2.279668 -2.648535 0.754469 0
M  V30 9 C 2.744256 -3.516668 -0.237024 0
M  V30 10 C 3.403372 -3.012545 -1.330817 0
M  V30 11 C 3.589900 -1.649469 -1.420243 0
M  V30 12 C 3.141055 -0.772925 -0.455387 0
M  V30 13 C -0.136965 0.577950 0.636107 0
M  V30 14 O 0.630882 1.096821 -0.190856 0
M  V30 15 C -1.576643 0.812192 0.575902 0
M  V30 16 C -2.021401 1.635861 -0.445533 0
M  V30 17 C -3.375983 1.886516 -0.542626 0
M  V30 18 C -4.217806 1.304912 0.381261 0
M  V30 19 C -3.795715 0.482736 1.404675 0
M  V30 20 C -2.428393 0.234904 1.495766 0
M  V30 21 H 0.335587 -2.602597 3.389340 0
M  V30 22 H 2.115144 -1.082664 2.768937 0
M  V30 23 H 2.407241 0.426630 1.878786 0
M  V30 24 H 1.776984 -3.189553 1.560446 0
M  V30 25 H 2.615569 -4.589537 -0.199107 0
M  V30 26 H 3.776387 -3.632678 -2.113131 0
M  V30 27 H 4.095155 -1.157802 -2.239708 0
M  V30 28 H 3.231997 0.291711 -0.421317 0
M  V30 29 H -1.376733 2.090242 -1.165046 0
M  V30 30 H -3.837304 2.519047 -1.306024 0
M  V30 31 H -5.291383 1.461199 0.360867 0
M  V30 32 H -4.446417 0.025094 2.129599 0
M  V30 END ATOM
M  V30 BEGIN BOND
M  V30 1 2 1 2
M  V30 2 1 2 3
M  V30 3 1 3 4
M  V30 4 2 3 5
M  V30 5 1 5 6
M  V30 6 1 6 7
M  V30 7 2 7 8
M  V30 8 1 8 9
M  V30 9 2 9 10
M  V30 10 1 10 11
M  V30 11 2 11 12
M  V30 12 1 5 13
M  V30 13 2 13 14
M  V30 14 1 13 15
M  V30 15 2 15 16
M  V30 16 1 16 17
M  V30 17 2 17 18
M  V30 18 1 18 19
M  V30 19 2 19 20
M  V30 20 1 20 2
M  V30 21 1 12 7
M  V30 22 1 20 15
M  V30 23 1 4 21
M  V30 24 1 6 22
M  V30 25 1 6 23
M  V30 26 1 8 24
M  V30 27 1 9 25
M  V30 28 1 10 26
M  V30 29 1 11 27
M  V30 30 1 12 28
M  V30 31 1 16 29
M  V30 32 1 17 30
M  V30 33 1 18 31
M  V30 34 1 19 32
M  V30 END BOND
M  V30 END CTAB
M  END
>  <Dataset>  (925) 
ChEMBL_Kinases

>  <Ligand_Instance>  (925) 
nan

>  <PDB_ID>  (925) 
nan

>  <Standardized_SMILES>  (925) 
O=C1C(O)=C(Cc2ccccc2)C(=O)c2ccccc21

>  <Name>  (925) 
nan

>  <Pocket>  (925) 
nan

>  <ATP_Site>  (925) 
nan

>  <Peripheral>  (925) 
nan

>  <Num_H_Atoms_ProtBoundConf>  (925) 
nan

>  <Num_Resolved_Atoms>  (925) 
nan

>  <Num_Not_Resolved_Atoms>  (925) 
nan

$$$$
CHEMBL1318067
     RDKit          3D

  0  0  0  0  0  0  0  0  0  0999 V3000
M  V30 BEGIN CTAB
M  V30 COUNTS 43 46 0 0 0
M  V30 BEGIN ATOM
M  V30 1 C -2.455034 -3.028147 4.423458 0
M  V30 2 O -1.567192 -2.471925 3.498156 0
M  V30 3 C -0.240456 -2.875522 3.405805 0
M  V30 4 C 0.307908 -3.853961 4.215902 0
M  V30 5 C 1.631806 -4.253490 4.120416 0
M  V30 6 C 2.412394 -3.631653 3.168015 0
M  V30 7 C 1.940101 -2.647837 2.322814 0
M  V30 8 C 0.613288 -2.304608 2.478274 0
M  V30 9 C 0.089829 -1.266047 1.595606 0
M  V30 10 N 0.883196 -0.684262 0.678832 0
M  V30 11 C 0.496978 0.273649 -0.172791 0
M  V30 12 N 1.419608 0.822909 -1.104488 0
M  V30 13 C 1.934502 2.158482 -1.335313 0
M  V30 14 C 3.387834 2.207386 -0.928836 0
M  V30 15 O 3.954962 0.960371 -1.085986 0
M  V30 16 C 3.477272 0.420228 -2.296710 0
M  V30 17 C 2.038418 -0.081973 -2.089250 0
M  V30 18 C -0.825671 0.654233 -0.056739 0
M  V30 19 C -1.294907 1.638699 -0.904313 0
M  V30 20 C -2.605096 2.066263 -0.842510 0
M  V30 21 C -3.451228 1.490491 0.088593 0
M  V30 22 C -3.004795 0.495909 0.955555 0
M  V30 23 C -1.691118 0.097749 0.861637 0
M  V30 24 N -1.212288 -0.865691 1.683062 0
M  V30 25 H -2.380906 -2.508637 5.414860 0
M  V30 26 H -3.518557 -2.931088 4.079417 0
M  V30 27 H -2.311526 -4.115332 4.610470 0
M  V30 28 H -0.310809 -4.326029 4.949075 0
M  V30 29 H 2.021523 -5.025731 4.776498 0
M  V30 30 H 3.447110 -3.935104 3.084160 0
M  V30 31 H 2.589931 -2.191922 1.594510 0
M  V30 32 H 1.397110 2.898712 -0.702014 0
M  V30 33 H 1.892114 2.435625 -2.413626 0
M  V30 34 H 3.502492 2.591140 0.117181 0
M  V30 35 H 3.912047 2.947486 -1.598259 0
M  V30 36 H 4.168392 -0.404369 -2.556270 0
M  V30 37 H 3.475057 1.235105 -3.035981 0
M  V30 38 H 2.113674 -1.114280 -1.717432 0
M  V30 39 H 1.490718 -0.072420 -3.056067 0
M  V30 40 H -0.662642 2.093874 -1.626803 0
M  V30 41 H -2.946147 2.843769 -1.523365 0
M  V30 42 H -4.492155 1.828461 0.139550 0
M  V30 43 H -3.652770 0.050102 1.673697 0
M  V30 END ATOM
M  V30 BEGIN BOND
M  V30 1 1 1 2
M  V30 2 1 2 3
M  V30 3 2 3 4
M  V30 4 1 4 5
M  V30 5 2 5 6
M  V30 6 1 6 7
M  V30 7 2 7 8
M  V30 8 1 8 9
M  V30 9 2 9 10
M  V30 10 1 10 11
M  V30 11 1 11 12
M  V30 12 1 12 13
M  V30 13 1 13 14
M  V30 14 1 14 15
M  V30 15 1 15 16
M  V30 16 1 16 17
M  V30 17 2 11 18
M  V30 18 1 18 19
M  V30 19 2 19 20
M  V30 20 1 20 21
M  V30 21 2 21 22
M  V30 22 1 22 23
M  V30 23 2 23 24
M  V30 24 1 8 3
M  V30 25 1 24 9
M  V30 26 1 17 12
M  V30 27 1 23 18
M  V30 28 1 1 25
M  V30 29 1 1 26
M  V30 30 1 1 27
M  V30 31 1 4 28
M  V30 32 1 5 29
M  V30 33 1 6 30
M  V30 34 1 7 31
M  V30 35 1 13 32
M  V30 36 1 13 33
M  V30 37 1 14 34
M  V30 38 1 14 35
M  V30 39 1 16 36
M  V30 40 1 16 37
M  V30 41 1 17 38
M  V30 42 1 17 39
M  V30 43 1 19 40
M  V30 44 1 20 41
M  V30 45 1 21 42
M  V30 46 1 22 43
M  V30 END BOND
M  V30 END CTAB
M  END
>  <Dataset>  (926) 
ChEMBL_Kinases

>  <Ligand_Instance>  (926) 
nan

>  <PDB_ID>  (926) 
nan

>  <Standardized_SMILES>  (926) 
COc1ccccc1-c1nc(N2CCOCC2)c2ccccc2n1

>  <Name>  (926) 
nan

>  <Pocket>  (926) 
nan

>  <ATP_Site>  (926) 
nan

>  <Peripheral>  (926) 
nan

>  <Num_H_Atoms_ProtBoundConf>  (926) 
nan

>  <Num_Resolved_Atoms>  (926) 
nan

>  <Num_Not_Resolved_Atoms>  (926) 
nan

$$$$
CHEMBL1318104
     RDKit          3D

  0  0  0  0  0  0  0  0  0  0999 V3000
M  V30 BEGIN CTAB
M  V30 COUNTS 38 41 0 0 0
M  V30 BEGIN ATOM
M  V30 1 O 0.583425 -1.170067 2.461424 0
M  V30 2 C 0.315103 -0.287127 1.647937 0
M  V30 3 C 1.302958 0.665424 1.581529 0
M  V30 4 C 2.524648 0.627895 2.376845 0
M  V30 5 C 2.477898 0.328071 3.732876 0
M  V30 6 C 3.621601 0.286114 4.508458 0
M  V30 7 F 3.549651 -0.006889 5.820978 0
M  V30 8 C 4.856449 0.547643 3.933809 0
M  V30 9 C 4.944589 0.852353 2.576240 0
M  V30 10 F 6.139327 1.114646 1.978916 0
M  V30 11 C 3.779422 0.882360 1.844756 0
M  V30 12 N 1.129380 1.709890 0.719263 0
M  V30 13 C -0.011976 1.752284 -0.027949 0
M  V30 14 C -0.085719 2.847666 -0.857633 0
M  V30 15 N -1.209979 2.926581 -1.613973 0
M  V30 16 C -2.161154 1.977226 -1.526791 0
M  V30 17 N -2.000086 0.944507 -0.687786 0
M  V30 18 C -0.943771 0.745964 0.111615 0
M  V30 19 N -0.827885 -0.324262 0.954933 0
M  V30 20 C -1.900016 -1.283711 1.022478 0
M  V30 21 C -1.900359 -2.341110 0.024583 0
M  V30 22 C -2.765684 -2.160782 -1.070991 0
M  V30 23 C -2.927966 -3.018011 -2.147706 0
M  V30 24 C -2.181726 -4.176634 -2.182823 0
M  V30 25 C -1.314260 -4.425470 -1.148666 0
M  V30 26 C -1.225728 -3.520640 -0.133144 0
M  V30 27 Cl -0.135462 -3.949135 1.158181 0
M  V30 28 H 1.516695 0.125870 4.172736 0
M  V30 29 H 5.777523 0.525124 4.506625 0
M  V30 30 H 3.803228 1.114621 0.788679 0
M  V30 31 H 0.678699 3.590551 -0.913207 0
M  V30 32 H -3.061253 2.059831 -2.145904 0
M  V30 33 H -1.987389 -1.713813 2.061314 0
M  V30 34 H -2.846606 -0.685639 0.919050 0
M  V30 35 H -3.448586 -1.305454 -1.215093 0
M  V30 36 H -3.592010 -2.874941 -2.984928 0
M  V30 37 H -2.261411 -4.883838 -2.992935 0
M  V30 38 H -0.736851 -5.318230 -1.171516 0
M  V30 END ATOM
M  V30 BEGIN BOND
M  V30 1 2 1 2
M  V30 2 1 2 3
M  V30 3 1 3 4
M  V30 4 2 4 5
M  V30 5 1 5 6
M  V30 6 1 6 7
M  V30 7 2 6 8
M  V30 8 1 8 9
M  V30 9 1 9 10
M  V30 10 2 9 11
M  V30 11 2 3 12
M  V30 12 1 12 13
M  V30 13 2 13 14
M  V30 14 1 14 15
M  V30 15 2 15 16
M  V30 16 1 16 17
M  V30 17 2 17 18
M  V30 18 1 18 19
M  V30 19 1 19 20
M  V30 20 1 20 21
M  V30 21 2 21 22
M  V30 22 1 22 23
M  V30 23 2 23 24
M  V30 24 1 24 25
M  V30 25 2 25 26
M  V30 26 1 26 27
M  V30 27 1 19 2
M  V30 28 1 26 21
M  V30 29 1 11 4
M  V30 30 1 18 13
M  V30 31 1 5 28
M  V30 32 1 8 29
M  V30 33 1 11 30
M  V30 34 1 14 31
M  V30 35 1 16 32
M  V30 36 1 20 33
M  V30 37 1 20 34
M  V30 38 1 22 35
M  V30 39 1 23 36
M  V30 40 1 24 37
M  V30 41 1 25 38
M  V30 END BOND
M  V30 END CTAB
M  END
>  <Dataset>  (927) 
ChEMBL_Kinases

>  <Ligand_Instance>  (927) 
nan

>  <PDB_ID>  (927) 
nan

>  <Standardized_SMILES>  (927) 
O=c1c(-c2cc(F)cc(F)c2)nc2cncnc2n1Cc1ccccc1Cl

>  <Name>  (927) 
nan

>  <Pocket>  (927) 
nan

>  <ATP_Site>  (927) 
nan

>  <Peripheral>  (927) 
nan

>  <Num_H_Atoms_ProtBoundConf>  (927) 
nan

>  <Num_Resolved_Atoms>  (927) 
nan

>  <Num_Not_Resolved_Atoms>  (927) 
nan

$$$$
CHEMBL1318332
     RDKit          3D

  0  0  0  0  0  0  0  0  0  0999 V3000
M  V30 BEGIN CTAB
M  V30 COUNTS 36 37 0 0 0
M  V30 BEGIN ATOM
M  V30 1 C -2.182554 -1.262456 0.372882 0
M  V30 2 C -1.088334 -0.488621 1.069030 0 CFG=1
M  V30 3 C -0.306909 -1.404924 1.966761 0
M  V30 4 N 0.431993 -2.388651 1.135345 0
M  V30 5 C 1.047962 -3.366586 1.962488 0
M  V30 6 C 1.588179 -4.513504 1.188177 0
M  V30 7 O 2.546172 -4.157788 0.281412 0
M  V30 8 C 1.379382 -1.530687 0.414282 0
M  V30 9 C 0.497419 -0.837276 -0.632604 0
M  V30 10 N -0.219193 0.189010 0.096347 0
M  V30 11 C -0.128397 1.594746 -0.051326 0
M  V30 12 C -0.973665 2.558287 0.495836 0
M  V30 13 C -0.720148 3.895261 0.250234 0
M  V30 14 C 0.330633 4.306280 -0.510421 0
M  V30 15 C 1.201755 3.367005 -1.077707 0
M  V30 16 C 0.941872 2.029964 -0.827596 0
M  V30 17 H -3.067250 -1.332514 1.070665 0
M  V30 18 H -1.794883 -2.275012 0.147330 0
M  V30 19 H -2.488725 -0.744273 -0.567133 0
M  V30 20 H -1.593710 0.266992 1.708010 0
M  V30 21 H 0.431483 -0.877585 2.582961 0
M  V30 22 H -1.036016 -1.971860 2.575560 0
M  V30 23 H 1.877197 -2.845902 2.521539 0
M  V30 24 H 0.326083 -3.680865 2.749947 0
M  V30 25 H 2.072288 -5.237942 1.912726 0
M  V30 26 H 0.779346 -5.128334 0.711609 0
M  V30 27 H 2.525488 -4.733380 -0.540000 0
M  V30 28 H 2.231099 -2.014605 -0.016825 0
M  V30 29 H 1.731848 -0.775980 1.172076 0
M  V30 30 H 1.085013 -0.483117 -1.481333 0
M  V30 31 H -0.195472 -1.617618 -1.016491 0
M  V30 32 H -1.799611 2.168712 1.091310 0
M  V30 33 H -1.412159 4.581340 0.706110 0
M  V30 34 H 0.487458 5.372696 -0.671293 0
M  V30 35 H 1.995149 3.782710 -1.656053 0
M  V30 36 H 1.712874 1.429608 -1.338870 0
M  V30 END ATOM
M  V30 BEGIN BOND
M  V30 1 1 1 2
M  V30 2 1 2 3
M  V30 3 1 3 4
M  V30 4 1 4 5
M  V30 5 1 5 6
M  V30 6 1 6 7
M  V30 7 1 4 8
M  V30 8 1 8 9
M  V30 9 1 9 10
M  V30 10 1 10 11
M  V30 11 2 11 12
M  V30 12 1 12 13
M  V30 13 2 13 14
M  V30 14 1 14 15
M  V30 15 2 15 16
M  V30 16 1 10 2
M  V30 17 1 16 11
M  V30 18 1 1 17
M  V30 19 1 1 18
M  V30 20 1 1 19
M  V30 21 1 2 20 CFG=1
M  V30 22 1 3 21
M  V30 23 1 3 22
M  V30 24 1 5 23
M  V30 25 1 5 24
M  V30 26 1 6 25
M  V30 27 1 6 26
M  V30 28 1 7 27
M  V30 29 1 8 28
M  V30 30 1 8 29
M  V30 31 1 9 30
M  V30 32 1 9 31
M  V30 33 1 12 32
M  V30 34 1 13 33
M  V30 35 1 14 34
M  V30 36 1 15 35
M  V30 37 1 16 36
M  V30 END BOND
M  V30 END CTAB
M  END
>  <Dataset>  (928) 
ChEMBL_Kinases

>  <Ligand_Instance>  (928) 
nan

>  <PDB_ID>  (928) 
nan

>  <Standardized_SMILES>  (928) 
C[C@H]1CN(CCO)CCN1c1ccccc1

>  <Name>  (928) 
nan

>  <Pocket>  (928) 
nan

>  <ATP_Site>  (928) 
nan

>  <Peripheral>  (928) 
nan

>  <Num_H_Atoms_ProtBoundConf>  (928) 
nan

>  <Num_Resolved_Atoms>  (928) 
nan

>  <Num_Not_Resolved_Atoms>  (928) 
nan

$$$$
CHEMBL1318340
     RDKit          3D

  0  0  0  0  0  0  0  0  0  0999 V3000
M  V30 BEGIN CTAB
M  V30 COUNTS 35 37 0 0 0
M  V30 BEGIN ATOM
M  V30 1 C 1.950367 -3.483435 4.393135 0
M  V30 2 N 1.477745 -2.667053 3.281715 0
M  V30 3 C 0.599110 -3.179493 2.288153 0
M  V30 4 N 0.211134 -4.462007 2.406404 0
M  V30 5 C -0.616216 -5.067200 1.534916 0
M  V30 6 N -1.092553 -4.374845 0.483949 0
M  V30 7 C -0.749753 -3.067345 0.287543 0
M  V30 8 C -1.225059 -2.336511 -0.781588 0
M  V30 9 C -0.837675 -1.019659 -0.918074 0
M  V30 10 C 0.013796 -0.444052 0.003875 0
M  V30 11 C 0.399941 0.950990 -0.174649 0
M  V30 12 C 1.620780 1.435112 0.230438 0
M  V30 13 C 2.005137 2.744291 0.072698 0
M  V30 14 C 1.081189 3.593869 -0.533700 0
M  V30 15 C -0.166809 3.156570 -0.961990 0
M  V30 16 O -1.032271 4.070932 -1.559220 0
M  V30 17 C -2.287640 3.621248 -1.987440 0
M  V30 18 C -0.486819 1.824934 -0.771110 0
M  V30 19 C 0.492554 -1.170202 1.075405 0
M  V30 20 C 0.100655 -2.484049 1.203869 0
M  V30 21 H 1.331021 -4.399106 4.507973 0
M  V30 22 H 1.973517 -2.964625 5.352011 0
M  V30 23 H 2.971677 -3.807123 4.138872 0
M  V30 24 H 1.879570 -1.730781 3.364627 0
M  V30 25 H -0.933030 -6.098490 1.623268 0
M  V30 26 H -1.881355 -2.791533 -1.486254 0
M  V30 27 H -1.221471 -0.463602 -1.763150 0
M  V30 28 H 2.331299 0.780021 0.697384 0
M  V30 29 H 2.978068 3.128554 0.395778 0
M  V30 30 H 1.340651 4.637562 -0.679567 0
M  V30 31 H -2.814733 2.989931 -1.231602 0
M  V30 32 H -2.215510 2.997254 -2.910701 0
M  V30 33 H -2.982220 4.457805 -2.222304 0
M  V30 34 H -1.465892 1.456700 -1.100932 0
M  V30 35 H 1.144960 -0.706116 1.769559 0
M  V30 END ATOM
M  V30 BEGIN BOND
M  V30 1 1 1 2
M  V30 2 1 2 3
M  V30 3 2 3 4
M  V30 4 1 4 5
M  V30 5 2 5 6
M  V30 6 1 6 7
M  V30 7 2 7 8
M  V30 8 1 8 9
M  V30 9 2 9 10
M  V30 10 1 10 11
M  V30 11 2 11 12
M  V30 12 1 12 13
M  V30 13 2 13 14
M  V30 14 1 14 15
M  V30 15 1 15 16
M  V30 16 1 16 17
M  V30 17 2 15 18
M  V30 18 1 10 19
M  V30 19 2 19 20
M  V30 20 1 20 3
M  V30 21 1 20 7
M  V30 22 1 18 11
M  V30 23 1 1 21
M  V30 24 1 1 22
M  V30 25 1 1 23
M  V30 26 1 2 24
M  V30 27 1 5 25
M  V30 28 1 8 26
M  V30 29 1 9 27
M  V30 30 1 12 28
M  V30 31 1 13 29
M  V30 32 1 14 30
M  V30 33 1 17 31
M  V30 34 1 17 32
M  V30 35 1 17 33
M  V30 36 1 18 34
M  V30 37 1 19 35
M  V30 END BOND
M  V30 END CTAB
M  END
>  <Dataset>  (929) 
ChEMBL_Kinases

>  <Ligand_Instance>  (929) 
nan

>  <PDB_ID>  (929) 
nan

>  <Standardized_SMILES>  (929) 
CNc1ncnc2ccc(-c3cccc(OC)c3)cc12

>  <Name>  (929) 
nan

>  <Pocket>  (929) 
nan

>  <ATP_Site>  (929) 
nan

>  <Peripheral>  (929) 
nan

>  <Num_H_Atoms_ProtBoundConf>  (929) 
nan

>  <Num_Resolved_Atoms>  (929) 
nan

>  <Num_Not_Resolved_Atoms>  (929) 
nan

$$$$
CHEMBL1317647
     RDKit          3D

  0  0  0  0  0  0  0  0  0  0999 V3000
M  V30 BEGIN CTAB
M  V30 COUNTS 62 65 0 0 0
M  V30 BEGIN ATOM
M  V30 1 C 1.618292 -6.135524 0.133520 0
M  V30 2 C 2.699592 -5.414017 0.884580 0
M  V30 3 N 2.409041 -3.967116 0.945222 0
M  V30 4 C 2.769483 -2.885204 0.041884 0
M  V30 5 O 3.055123 -3.313142 -1.130344 0
M  V30 6 C 2.643827 -1.705261 0.912281 0 CFG=1
M  V30 7 C 2.780680 -0.363102 0.386798 0 CFG=1
M  V30 8 C 3.148616 -0.250186 -1.097578 0 CFG=2
M  V30 9 O 4.313809 -1.035113 -1.297375 0
M  V30 10 C 3.698644 1.171115 -1.289609 0 CFG=2
M  V30 11 O 4.783373 1.236843 -0.383894 0
M  V30 12 C 2.734960 2.237590 -0.907032 0
M  V30 13 C 1.483424 1.542269 -0.429665 0
M  V30 14 N 0.454176 1.848140 -1.100308 0
M  V30 15 O -0.716637 1.247128 -0.714450 0
M  V30 16 C -1.806833 2.117778 -0.495528 0
M  V30 17 C -3.086596 1.334295 -0.170376 0 CFG=1
M  V30 18 O -2.869770 0.600262 0.957907 0
M  V30 19 C -4.247430 2.261794 -0.003954 0
M  V30 20 O -5.459601 1.835164 0.197280 0
M  V30 21 C -6.079141 1.143211 1.111134 0
M  V30 22 C -5.702832 -0.271327 1.374757 0
M  V30 23 C -6.233092 -1.240146 0.512983 0
M  V30 24 C -5.804396 -2.509822 0.877932 0
M  V30 25 C -5.023981 -2.220984 1.962556 0
M  V30 26 O -4.974468 -0.947686 2.233909 0
M  V30 27 C 1.722004 0.655082 0.714287 0 CFG=1
M  V30 28 C 0.546427 0.160811 1.471023 0
M  V30 29 C 0.950048 -0.988701 2.430055 0
M  V30 30 C 1.269700 -2.076495 1.494993 0 CFG=2
M  V30 31 C 1.644182 -3.394386 2.041478 0
M  V30 32 O 1.430141 -3.980762 3.128137 0
M  V30 33 H 1.185473 -6.936161 0.742522 0
M  V30 34 H 0.810848 -5.418994 -0.111077 0
M  V30 35 H 1.975815 -6.513875 -0.856588 0
M  V30 36 H 2.791183 -5.817596 1.898636 0
M  V30 37 H 3.653194 -5.557284 0.337789 0
M  V30 38 H 3.342934 -1.934285 1.777526 0
M  V30 39 H 3.769565 0.012871 0.815019 0
M  V30 40 H 2.344732 -0.504361 -1.774481 0
M  V30 41 H 4.975736 -0.683941 -0.651933 0
M  V30 42 H 4.158034 1.300676 -2.280162 0
M  V30 43 H 5.577809 1.678457 -0.775153 0
M  V30 44 H 3.068801 2.807801 0.011477 0
M  V30 45 H 2.557850 2.997389 -1.661838 0
M  V30 46 H -1.595528 2.867648 0.272879 0
M  V30 47 H -2.040879 2.634256 -1.469467 0
M  V30 48 H -3.315858 0.706536 -1.067680 0
M  V30 49 H -2.690719 -0.359469 0.771471 0
M  V30 50 H -3.999347 3.006214 0.855316 0
M  V30 51 H -4.272444 3.002039 -0.885614 0
M  V30 52 H -7.202107 1.132052 0.858759 0
M  V30 53 H -6.127340 1.670567 2.135925 0
M  V30 54 H -6.899272 -1.135269 -0.355062 0
M  V30 55 H -6.035716 -3.457301 0.418318 0
M  V30 56 H -4.475655 -2.945994 2.575525 0
M  V30 57 H 2.172172 1.383836 1.469538 0
M  V30 58 H 0.065408 0.896714 2.146244 0
M  V30 59 H -0.274248 -0.291668 0.897915 0
M  V30 60 H 1.867738 -0.644923 2.942043 0
M  V30 61 H 0.138882 -1.136104 3.140043 0
M  V30 62 H 0.520993 -2.274580 0.713215 0
M  V30 END ATOM
M  V30 BEGIN BOND
M  V30 1 1 1 2
M  V30 2 1 2 3
M  V30 3 1 3 4
M  V30 4 2 4 5
M  V30 5 1 4 6
M  V30 6 1 6 7
M  V30 7 1 7 8
M  V30 8 1 8 9
M  V30 9 1 8 10
M  V30 10 1 10 11
M  V30 11 1 10 12
M  V30 12 1 12 13
M  V30 13 2 13 14
M  V30 14 1 14 15
M  V30 15 1 15 16
M  V30 16 1 16 17
M  V30 17 1 17 18
M  V30 18 1 17 19
M  V30 19 1 19 20
M  V30 20 1 20 21
M  V30 21 1 21 22
M  V30 22 2 22 23
M  V30 23 1 23 24
M  V30 24 2 24 25
M  V30 25 1 25 26
M  V30 26 1 13 27
M  V30 27 1 27 28
M  V30 28 1 28 29
M  V30 29 1 29 30
M  V30 30 1 30 31
M  V30 31 2 31 32
M  V30 32 1 31 3
M  V30 33 1 30 6
M  V30 34 1 27 7
M  V30 35 1 26 22
M  V30 36 1 1 33
M  V30 37 1 1 34
M  V30 38 1 1 35
M  V30 39 1 2 36
M  V30 40 1 2 37
M  V30 41 1 6 38 CFG=1
M  V30 42 1 7 39 CFG=1
M  V30 43 1 8 40 CFG=3
M  V30 44 1 9 41
M  V30 45 1 10 42 CFG=3
M  V30 46 1 11 43
M  V30 47 1 12 44
M  V30 48 1 12 45
M  V30 49 1 16 46
M  V30 50 1 16 47
M  V30 51 1 17 48 CFG=3
M  V30 52 1 18 49
M  V30 53 1 19 50
M  V30 54 1 19 51
M  V30 55 1 21 52
M  V30 56 1 21 53
M  V30 57 1 23 54
M  V30 58 1 24 55
M  V30 59 1 25 56
M  V30 60 1 27 57 CFG=1
M  V30 61 1 28 58
M  V30 62 1 28 59
M  V30 63 1 29 60
M  V30 64 1 29 61
M  V30 65 1 30 62 CFG=3
M  V30 END BOND
M  V30 END CTAB
M  END
>  <Dataset>  (930) 
ChEMBL_Kinases

>  <Ligand_Instance>  (930) 
nan

>  <PDB_ID>  (930) 
nan

>  <Standardized_SMILES>  (930) 
CCN1C(=O)[C@H]2[C@H]3[C@H](O)[C@H](O)C/C(=N/OC[C@@H](O)COCc4ccco4)[C@H]3CC[C@@H]2C1=O

>  <Name>  (930) 
nan

>  <Pocket>  (930) 
nan

>  <ATP_Site>  (930) 
nan

>  <Peripheral>  (930) 
nan

>  <Num_H_Atoms_ProtBoundConf>  (930) 
nan

>  <Num_Resolved_Atoms>  (930) 
nan

>  <Num_Not_Resolved_Atoms>  (930) 
nan

$$$$
CHEMBL1323359
     RDKit          3D

  0  0  0  0  0  0  0  0  0  0999 V3000
M  V30 BEGIN CTAB
M  V30 COUNTS 49 51 0 0 0
M  V30 BEGIN ATOM
M  V30 1 C 0.250356 -5.060883 3.654340 0
M  V30 2 C 0.117638 -4.717006 2.199890 0
M  V30 3 N 0.674333 -3.398911 1.873512 0
M  V30 4 C 0.614247 -2.937466 0.503146 0
M  V30 5 O 0.045814 -3.878630 -0.105899 0
M  V30 6 C 1.219693 -1.605335 0.383739 0
M  V30 7 C 1.197184 -1.002901 -0.984779 0
M  V30 8 C 1.885794 0.344044 -0.824069 0
M  V30 9 O 2.974129 0.819438 -1.250089 0
M  V30 10 N 0.945887 1.053568 0.004352 0
M  V30 11 C 1.215564 2.071432 0.958530 0
M  V30 12 C 0.277011 2.727389 1.722876 0
M  V30 13 C 0.583391 3.711532 2.641198 0
M  V30 14 C 1.899307 4.081776 2.826701 0
M  V30 15 C 2.236234 5.141012 3.814119 0
M  V30 16 C 2.873123 3.449940 2.081195 0
M  V30 17 C 2.515921 2.471868 1.175594 0
M  V30 18 C -0.333561 0.488862 -0.363524 0
M  V30 19 O -1.468264 0.827257 0.129771 0
M  V30 20 N -0.139560 -0.524746 -1.381859 0
M  V30 21 C -1.099477 -0.817497 -2.415840 0
M  V30 22 C -2.102498 -1.830021 -2.085209 0
M  V30 23 C -3.281403 -1.446016 -1.480699 0
M  V30 24 C -4.310134 -2.303317 -1.125237 0
M  V30 25 C -4.179032 -3.650537 -1.380733 0
M  V30 26 C -2.999678 -4.033007 -1.985280 0
M  V30 27 N -2.037679 -3.154937 -2.306639 0
M  V30 28 H 1.212443 -5.582909 3.879657 0
M  V30 29 H 0.121689 -4.141412 4.244674 0
M  V30 30 H -0.574871 -5.770520 3.911036 0
M  V30 31 H 0.561956 -5.507532 1.581677 0
M  V30 32 H -0.977692 -4.651027 1.994838 0
M  V30 33 H 1.089619 -2.878155 2.706909 0
M  V30 34 H 2.302847 -1.608055 0.702114 0
M  V30 35 H 0.741561 -0.936822 1.148903 0
M  V30 36 H 1.660886 -1.603438 -1.757820 0
M  V30 37 H -0.751908 2.458819 1.598147 0
M  V30 38 H -0.227553 4.173093 3.199091 0
M  V30 39 H 2.409316 4.719264 4.828569 0
M  V30 40 H 1.440603 5.892627 3.897277 0
M  V30 41 H 3.214140 5.559568 3.505751 0
M  V30 42 H 3.870055 3.774980 2.265144 0
M  V30 43 H 3.373088 2.061426 0.662941 0
M  V30 44 H -1.643011 0.086067 -2.760717 0
M  V30 45 H -0.491477 -1.118042 -3.325285 0
M  V30 46 H -3.499224 -0.416479 -1.231815 0
M  V30 47 H -5.221641 -1.979776 -0.653958 0
M  V30 48 H -4.880969 -4.424479 -1.165462 0
M  V30 49 H -2.711299 -5.041557 -2.265179 0
M  V30 END ATOM
M  V30 BEGIN BOND
M  V30 1 1 1 2
M  V30 2 1 2 3
M  V30 3 1 3 4
M  V30 4 2 4 5
M  V30 5 1 4 6
M  V30 6 1 6 7
M  V30 7 1 7 8
M  V30 8 2 8 9
M  V30 9 1 8 10
M  V30 10 1 10 11
M  V30 11 2 11 12
M  V30 12 1 12 13
M  V30 13 2 13 14
M  V30 14 1 14 15
M  V30 15 1 14 16
M  V30 16 2 16 17
M  V30 17 1 10 18
M  V30 18 2 18 19
M  V30 19 1 18 20
M  V30 20 1 20 21
M  V30 21 1 21 22
M  V30 22 2 22 23
M  V30 23 1 23 24
M  V30 24 2 24 25
M  V30 25 1 25 26
M  V30 26 2 26 27
M  V30 27 1 20 7
M  V30 28 1 27 22
M  V30 29 1 17 11
M  V30 30 1 1 28
M  V30 31 1 1 29
M  V30 32 1 1 30
M  V30 33 1 2 31
M  V30 34 1 2 32
M  V30 35 1 3 33
M  V30 36 1 6 34
M  V30 37 1 6 35
M  V30 38 1 7 36
M  V30 39 1 12 37
M  V30 40 1 13 38
M  V30 41 1 15 39
M  V30 42 1 15 40
M  V30 43 1 15 41
M  V30 44 1 16 42
M  V30 45 1 17 43
M  V30 46 1 21 44
M  V30 47 1 21 45
M  V30 48 1 23 46
M  V30 49 1 24 47
M  V30 50 1 25 48
M  V30 51 1 26 49
M  V30 END BOND
M  V30 END CTAB
M  END
>  <Dataset>  (931) 
ChEMBL_Kinases

>  <Ligand_Instance>  (931) 
nan

>  <PDB_ID>  (931) 
nan

>  <Standardized_SMILES>  (931) 
CCNC(=O)CC1C(=O)N(c2ccc(C)cc2)C(=O)N1Cc1ccccn1

>  <Name>  (931) 
nan

>  <Pocket>  (931) 
nan

>  <ATP_Site>  (931) 
nan

>  <Peripheral>  (931) 
nan

>  <Num_H_Atoms_ProtBoundConf>  (931) 
nan

>  <Num_Resolved_Atoms>  (931) 
nan

>  <Num_Not_Resolved_Atoms>  (931) 
nan

$$$$
CHEMBL1323355
     RDKit          3D

  0  0  0  0  0  0  0  0  0  0999 V3000
M  V30 BEGIN CTAB
M  V30 COUNTS 47 49 0 0 0
M  V30 BEGIN ATOM
M  V30 1 C 2.271303 -5.515103 1.528791 0
M  V30 2 O 1.817581 -4.397871 0.788029 0
M  V30 3 C 0.809213 -3.599141 1.302025 0
M  V30 4 C 0.263785 -3.906166 2.527254 0
M  V30 5 C -0.737790 -3.100620 3.022667 0
M  V30 6 C -1.141790 -2.047239 2.290518 0
M  V30 7 C -0.688088 -1.629202 1.063838 0
M  V30 8 C 0.324757 -2.501768 0.634989 0
M  V30 9 N -1.157591 -0.587462 0.217302 0
M  V30 10 C -0.530922 -0.194412 -0.972628 0
M  V30 11 C 0.529528 0.880483 -0.755007 0 CFG=1
M  V30 12 C 0.064128 2.151088 -0.177223 0
M  V30 13 C 1.730141 0.337638 -0.106649 0
M  V30 14 N 2.838036 1.199306 0.169298 0
M  V30 15 C 2.686321 2.117501 1.253272 0
M  V30 16 C 4.030044 0.378740 0.386044 0
M  V30 17 C -2.271545 0.170993 0.639030 0
M  V30 18 C -2.858823 1.124910 -0.166742 0
M  V30 19 C -3.983869 1.872717 0.094389 0
M  V30 20 C -4.634785 1.676270 1.294226 0
M  V30 21 C -4.120007 0.740801 2.164373 0
M  V30 22 C -2.994429 0.055565 1.800449 0
M  V30 23 S -2.448410 -1.096522 3.047615 0
M  V30 24 H 2.523213 -5.205391 2.585922 0
M  V30 25 H 1.434702 -6.243524 1.631061 0
M  V30 26 H 3.185797 -5.958004 1.083711 0
M  V30 27 H 0.609648 -4.751807 3.080304 0
M  V30 28 H -1.138012 -3.376153 3.985670 0
M  V30 29 H 0.806030 -2.368906 -0.322411 0
M  V30 30 H 0.111767 -0.988696 -1.470628 0
M  V30 31 H -1.207146 0.074107 -1.812937 0
M  V30 32 H 0.887393 1.204430 -1.825037 0
M  V30 33 H -0.347543 2.158939 0.825706 0
M  V30 34 H 0.946482 2.842247 -0.191980 0
M  V30 35 H -0.628016 2.711517 -0.902207 0
M  V30 36 H 2.085798 -0.523997 -0.744893 0
M  V30 37 H 1.400752 -0.070696 0.896930 0
M  V30 38 H 2.903813 3.190450 0.978030 0
M  V30 39 H 3.493999 1.931113 2.045594 0
M  V30 40 H 1.756634 1.999611 1.842704 0
M  V30 41 H 3.832328 -0.681263 0.134102 0
M  V30 42 H 4.911480 0.758949 -0.155263 0
M  V30 43 H 4.308191 0.385198 1.473467 0
M  V30 44 H -2.489551 1.376593 -1.148835 0
M  V30 45 H -4.425663 2.616066 -0.552933 0
M  V30 46 H -5.520691 2.236597 1.547776 0
M  V30 47 H -4.648107 0.607842 3.091882 0
M  V30 END ATOM
M  V30 BEGIN BOND
M  V30 1 1 1 2
M  V30 2 1 2 3
M  V30 3 2 3 4
M  V30 4 1 4 5
M  V30 5 2 5 6
M  V30 6 1 6 7
M  V30 7 2 7 8
M  V30 8 1 7 9
M  V30 9 1 9 10
M  V30 10 1 10 11
M  V30 11 1 11 12
M  V30 12 1 11 13
M  V30 13 1 13 14
M  V30 14 1 14 15
M  V30 15 1 14 16
M  V30 16 1 9 17
M  V30 17 2 17 18
M  V30 18 1 18 19
M  V30 19 2 19 20
M  V30 20 1 20 21
M  V30 21 2 21 22
M  V30 22 1 22 23
M  V30 23 1 8 3
M  V30 24 1 22 17
M  V30 25 1 23 6
M  V30 26 1 1 24
M  V30 27 1 1 25
M  V30 28 1 1 26
M  V30 29 1 4 27
M  V30 30 1 5 28
M  V30 31 1 8 29
M  V30 32 1 10 30
M  V30 33 1 10 31
M  V30 34 1 11 32 CFG=3
M  V30 35 1 12 33
M  V30 36 1 12 34
M  V30 37 1 12 35
M  V30 38 1 13 36
M  V30 39 1 13 37
M  V30 40 1 15 38
M  V30 41 1 15 39
M  V30 42 1 15 40
M  V30 43 1 16 41
M  V30 44 1 16 42
M  V30 45 1 16 43
M  V30 46 1 18 44
M  V30 47 1 19 45
M  V30 48 1 20 46
M  V30 49 1 21 47
M  V30 END BOND
M  V30 END CTAB
M  END
>  <Dataset>  (932) 
ChEMBL_Kinases

>  <Ligand_Instance>  (932) 
nan

>  <PDB_ID>  (932) 
nan

>  <Standardized_SMILES>  (932) 
COc1ccc2c(c1)N(C[C@@H](C)CN(C)C)c1ccccc1S2

>  <Name>  (932) 
DEXTROMEPROMAZINE

>  <Pocket>  (932) 
nan

>  <ATP_Site>  (932) 
nan

>  <Peripheral>  (932) 
nan

>  <Num_H_Atoms_ProtBoundConf>  (932) 
nan

>  <Num_Resolved_Atoms>  (932) 
nan

>  <Num_Not_Resolved_Atoms>  (932) 
nan

$$$$
CHEMBL1323351
     RDKit          3D

  0  0  0  0  0  0  0  0  0  0999 V3000
M  V30 BEGIN CTAB
M  V30 COUNTS 34 37 0 0 0
M  V30 BEGIN ATOM
M  V30 1 N -2.732511 -3.760783 2.223747 0
M  V30 2 C -1.746947 -3.402567 1.698123 0
M  V30 3 C -0.529913 -2.959231 1.035540 0
M  V30 4 C 0.419295 -3.871841 0.894751 0
M  V30 5 N 0.226178 -5.196985 1.375359 0
M  V30 6 O 1.592612 -3.478395 0.264984 0
M  V30 7 C 1.715911 -2.170632 -0.180939 0
M  V30 8 N 2.803189 -1.684306 -0.801937 0
M  V30 9 N 2.532128 -0.406495 -1.067612 0
M  V30 10 C 1.279958 -0.115350 -0.608322 0
M  V30 11 C 0.723309 1.222816 -0.768507 0
M  V30 12 C 1.602691 2.263890 -0.430352 0
M  V30 13 C 1.231416 3.592720 -0.531305 0
M  V30 14 N -0.014064 3.930186 -0.967391 0
M  V30 15 C -0.862470 2.927316 -1.293598 0
M  V30 16 C -0.508102 1.601402 -1.198605 0
M  V30 17 C 0.713937 -1.229574 -0.025861 0
M  V30 18 C -0.551141 -1.530681 0.623232 0
M  V30 19 C -1.012487 -0.639731 1.683030 0
M  V30 20 C -1.944018 0.356045 1.611377 0
M  V30 21 C -2.304919 1.126054 2.648072 0
M  V30 22 S -1.291747 0.515519 4.034921 0
M  V30 23 C -0.469940 -0.738906 3.056529 0
M  V30 24 H 0.402134 -6.072601 0.844252 0
M  V30 25 H -0.121784 -5.363536 2.340730 0
M  V30 26 H 3.703974 -2.138185 -1.058911 0
M  V30 27 H 2.621764 2.068477 -0.071634 0
M  V30 28 H 1.936105 4.382901 -0.261370 0
M  V30 29 H -1.875711 3.086588 -1.651087 0
M  V30 30 H -1.161293 0.778791 -1.450953 0
M  V30 31 H -1.331089 -1.506530 -0.187246 0
M  V30 32 H -2.439542 0.555517 0.670322 0
M  V30 33 H -2.997675 1.927309 2.763045 0
M  V30 34 H 0.389146 -1.612689 3.245856 0
M  V30 END ATOM
M  V30 BEGIN BOND
M  V30 1 3 1 2
M  V30 2 1 2 3
M  V30 3 2 3 4
M  V30 4 1 4 5
M  V30 5 1 4 6
M  V30 6 1 6 7
M  V30 7 1 7 8
M  V30 8 1 8 9
M  V30 9 2 9 10
M  V30 10 1 10 11
M  V30 11 2 11 12
M  V30 12 1 12 13
M  V30 13 2 13 14
M  V30 14 1 14 15
M  V30 15 2 15 16
M  V30 16 1 10 17
M  V30 17 1 17 18
M  V30 18 1 18 19
M  V30 19 1 19 20
M  V30 20 2 20 21
M  V30 21 1 21 22
M  V30 22 1 22 23
M  V30 23 1 18 3
M  V30 24 2 23 19
M  V30 25 2 17 7
M  V30 26 1 16 11
M  V30 27 1 5 24
M  V30 28 1 5 25
M  V30 29 1 8 26
M  V30 30 1 12 27
M  V30 31 1 13 28
M  V30 32 1 15 29
M  V30 33 1 16 30
M  V30 34 1 18 31
M  V30 35 1 20 32
M  V30 36 1 21 33
M  V30 37 1 23 34
M  V30 END BOND
M  V30 END CTAB
M  END
>  <Dataset>  (933) 
ChEMBL_Kinases

>  <Ligand_Instance>  (933) 
nan

>  <PDB_ID>  (933) 
nan

>  <Standardized_SMILES>  (933) 
N#CC1=C(N)Oc2[nH]nc(-c3ccncc3)c2C1c1ccsc1

>  <Name>  (933) 
nan

>  <Pocket>  (933) 
nan

>  <ATP_Site>  (933) 
nan

>  <Peripheral>  (933) 
nan

>  <Num_H_Atoms_ProtBoundConf>  (933) 
nan

>  <Num_Resolved_Atoms>  (933) 
nan

>  <Num_Not_Resolved_Atoms>  (933) 
nan

$$$$
CHEMBL1323290
     RDKit          3D

  0  0  0  0  0  0  0  0  0  0999 V3000
M  V30 BEGIN CTAB
M  V30 COUNTS 95 100 0 0 0
M  V30 BEGIN ATOM
M  V30 1 C 4.794904 -0.397046 4.673504 0
M  V30 2 C 3.564096 -0.502378 3.889734 0
M  V30 3 O 2.984547 0.469405 3.337290 0
M  V30 4 O 2.489785 -1.179440 3.320469 0
M  V30 5 C 1.533731 -0.529898 2.579641 0
M  V30 6 C 0.576569 0.397134 3.032490 0
M  V30 7 C -0.327517 0.991779 2.182700 0
M  V30 8 C -0.310894 0.669990 0.832029 0
M  V30 9 C -1.328589 1.399628 0.049593 0
M  V30 10 C -0.794544 2.766722 -0.161607 0
M  V30 11 C -0.548028 3.438277 -1.292065 0
M  V30 12 C 0.007315 4.843064 -1.200936 0
M  V30 13 C -0.777622 2.882951 -2.657374 0
M  V30 14 C 0.596747 -0.238024 0.310254 0
M  V30 15 C 1.468963 -0.786112 1.224237 0
M  V30 16 C 2.301698 -1.864194 0.689180 0
M  V30 17 O 3.167778 -2.482875 1.346856 0
M  V30 18 C 2.170722 -2.306263 -0.714661 0
M  V30 19 C 2.872604 -3.203936 -1.382693 0
M  V30 20 C 1.960275 -4.044311 -2.266110 0
M  V30 21 C 0.642126 -4.129489 -1.482002 0
M  V30 22 C -0.066023 -2.805885 -1.550275 0
M  V30 23 C -0.741419 -2.511176 -2.847769 0
M  V30 24 C -2.029632 -1.740050 -2.491871 0
M  V30 25 C -1.152819 -3.703170 -3.650734 0
M  V30 26 O 0.038660 -1.615918 -3.585635 0
M  V30 27 C 1.327502 -1.721136 -3.017837 0
M  V30 28 C 2.243846 -0.678374 -3.551882 0
M  V30 29 C 2.379732 -0.825699 -4.999936 0
M  V30 30 C 2.182312 -0.168731 -6.123446 0
M  V30 31 C 1.638556 1.207638 -5.986053 0
M  V30 32 C 2.456247 -0.815848 -7.405493 0
M  V30 33 O 2.885665 -2.029388 -7.350233 0
M  V30 34 O 2.707505 -1.408208 -8.593875 0
M  V30 35 C 1.735768 -3.128302 -3.433682 0
M  V30 36 O 1.937070 -3.744778 -4.463317 0
M  V30 37 C 1.070091 -1.740877 -1.565522 0 CFG=2
M  V30 38 O 0.570317 -0.523645 -1.063889 0
M  V30 39 O -1.207342 1.899172 2.770596 0
M  V30 40 C -1.500163 1.920796 4.150438 0
M  V30 41 C -1.848266 3.312112 4.617779 0
M  V30 42 C -2.827482 1.118083 4.285311 0
M  V30 43 C -2.646352 -0.288537 3.761915 0
M  V30 44 C -3.889266 -1.078460 3.882979 0
M  V30 45 C -4.734351 -1.542078 2.983513 0
M  V30 46 C -5.976191 -2.348870 3.270987 0
M  V30 47 C -4.331031 -1.123541 1.616981 0
M  V30 48 C -0.479980 1.264585 4.961151 0
M  V30 49 C 0.534668 0.520795 4.496148 0
M  V30 50 H 4.718416 0.494598 5.364938 0
M  V30 51 H 5.695624 -0.292505 4.073359 0
M  V30 52 H 4.931576 -1.252019 5.376671 0
M  V30 53 H -1.504752 0.936011 -0.939994 0
M  V30 54 H -2.299991 1.416263 0.596865 0
M  V30 55 H -0.563154 3.286798 0.778479 0
M  V30 56 H 1.068600 4.805051 -0.882665 0
M  V30 57 H -0.149734 5.316275 -2.167333 0
M  V30 58 H -0.518290 5.418880 -0.411614 0
M  V30 59 H -1.118833 3.716871 -3.316106 0
M  V30 60 H -1.493743 2.047471 -2.678025 0
M  V30 61 H 0.191213 2.541698 -3.105909 0
M  V30 62 H 3.912149 -3.503473 -1.475459 0
M  V30 63 H 2.361644 -5.012200 -2.498816 0
M  V30 64 H 0.057303 -5.009425 -1.713275 0
M  V30 65 H 0.962412 -4.242291 -0.404125 0
M  V30 66 H -0.687785 -2.608020 -0.651776 0
M  V30 67 H -2.932993 -2.408512 -2.599246 0
M  V30 68 H -2.181635 -0.921075 -3.212321 0
M  V30 69 H -2.000284 -1.364694 -1.453690 0
M  V30 70 H -1.131122 -3.414046 -4.738446 0
M  V30 71 H -0.511497 -4.582684 -3.575728 0
M  V30 72 H -2.222901 -3.935543 -3.395755 0
M  V30 73 H 3.226787 -0.806921 -3.030296 0
M  V30 74 H 1.834412 0.302320 -3.220390 0
M  V30 75 H 2.801057 -1.807647 -5.105946 0
M  V30 76 H 2.399751 1.989908 -5.966615 0
M  V30 77 H 0.914755 1.254158 -5.125879 0
M  V30 78 H 0.998763 1.364865 -6.876511 0
M  V30 79 H 2.892380 -0.897770 -9.475254 0
M  V30 80 H -1.990271 3.368917 5.695003 0
M  V30 81 H -1.181119 4.047618 4.183467 0
M  V30 82 H -2.879677 3.523089 4.185350 0
M  V30 83 H -3.574087 1.593621 3.619274 0
M  V30 84 H -3.224639 1.122243 5.293915 0
M  V30 85 H -1.900138 -0.771716 4.447878 0
M  V30 86 H -2.318550 -0.325856 2.719684 0
M  V30 87 H -4.196030 -1.354411 4.911920 0
M  V30 88 H -6.459499 -2.681414 2.358878 0
M  V30 89 H -5.779581 -3.223716 3.915837 0
M  V30 90 H -6.717829 -1.719057 3.818527 0
M  V30 91 H -4.439411 -0.015358 1.484285 0
M  V30 92 H -3.355936 -1.468580 1.292394 0
M  V30 93 H -5.110729 -1.548239 0.911350 0
M  V30 94 H -0.664331 1.466689 6.004427 0
M  V30 95 H 1.189672 0.095020 5.229908 0
M  V30 END ATOM
M  V30 BEGIN BOND
M  V30 1 1 1 2
M  V30 2 2 2 3
M  V30 3 1 2 4
M  V30 4 1 4 5
M  V30 5 1 5 6
M  V30 6 2 6 7
M  V30 7 1 7 8
M  V30 8 1 8 9
M  V30 9 1 9 10
M  V30 10 2 10 11 CFG=2
M  V30 11 1 11 12
M  V30 12 1 11 13
M  V30 13 2 8 14
M  V30 14 1 14 15
M  V30 15 1 15 16
M  V30 16 2 16 17
M  V30 17 1 16 18
M  V30 18 2 18 19
M  V30 19 1 19 20
M  V30 20 1 20 21
M  V30 21 1 21 22
M  V30 22 1 22 23
M  V30 23 1 23 24
M  V30 24 1 23 25
M  V30 25 1 23 26
M  V30 26 1 26 27
M  V30 27 1 27 28
M  V30 28 1 28 29
M  V30 29 2 29 30
M  V30 30 1 30 31
M  V30 31 1 30 32
M  V30 32 2 32 33
M  V30 33 1 32 34
M  V30 34 1 27 35
M  V30 35 2 35 36
M  V30 36 1 27 37
M  V30 37 1 37 38 CFG=1
M  V30 38 1 7 39
M  V30 39 1 39 40
M  V30 40 1 40 41
M  V30 41 1 40 42
M  V30 42 1 42 43
M  V30 43 1 43 44
M  V30 44 2 44 45 CFG=2
M  V30 45 1 45 46
M  V30 46 1 45 47
M  V30 47 1 40 48
M  V30 48 2 48 49
M  V30 49 2 15 5
M  V30 50 1 37 18
M  V30 51 1 49 6
M  V30 52 1 38 14
M  V30 53 1 35 20
M  V30 54 1 37 22
M  V30 55 1 1 50
M  V30 56 1 1 51
M  V30 57 1 1 52
M  V30 58 1 9 53
M  V30 59 1 9 54
M  V30 60 1 10 55
M  V30 61 1 12 56
M  V30 62 1 12 57
M  V30 63 1 12 58
M  V30 64 1 13 59
M  V30 65 1 13 60
M  V30 66 1 13 61
M  V30 67 1 19 62
M  V30 68 1 20 63
M  V30 69 1 21 64
M  V30 70 1 21 65
M  V30 71 1 22 66
M  V30 72 1 24 67
M  V30 73 1 24 68
M  V30 74 1 24 69
M  V30 75 1 25 70
M  V30 76 1 25 71
M  V30 77 1 25 72
M  V30 78 1 28 73
M  V30 79 1 28 74
M  V30 80 1 29 75
M  V30 81 1 31 76
M  V30 82 1 31 77
M  V30 83 1 31 78
M  V30 84 1 34 79
M  V30 85 1 41 80
M  V30 86 1 41 81
M  V30 87 1 41 82
M  V30 88 1 42 83
M  V30 89 1 42 84
M  V30 90 1 43 85
M  V30 91 1 43 86
M  V30 92 1 44 87
M  V30 93 1 46 88
M  V30 94 1 46 89
M  V30 95 1 46 90
M  V30 96 1 47 91
M  V30 97 1 47 92
M  V30 98 1 47 93
M  V30 99 1 48 94
M  V30 100 1 49 95
M  V30 END BOND
M  V30 END CTAB
M  END
>  <Dataset>  (934) 
ChEMBL_Kinases

>  <Ligand_Instance>  (934) 
nan

>  <PDB_ID>  (934) 
nan

>  <Standardized_SMILES>  (934) 
CC(=O)Oc1c2c(c(CC=C(C)C)c3c1C(=O)C1=CC4CC5C(C)(C)OC(C/C=C(\C)C(=O)O)(C4=O)[C@]15O3)OC(C)(CCC=C(C)C)C=C2

>  <Name>  (934) 
nan

>  <Pocket>  (934) 
nan

>  <ATP_Site>  (934) 
nan

>  <Peripheral>  (934) 
nan

>  <Num_H_Atoms_ProtBoundConf>  (934) 
nan

>  <Num_Resolved_Atoms>  (934) 
nan

>  <Num_Not_Resolved_Atoms>  (934) 
nan

$$$$
CHEMBL1322824
     RDKit          3D

  0  0  0  0  0  0  0  0  0  0999 V3000
M  V30 BEGIN CTAB
M  V30 COUNTS 29 29 0 0 0
M  V30 BEGIN ATOM
M  V30 1 C -0.010308 0.406675 2.934556 0
M  V30 2 C -0.169727 -1.027857 3.290338 0
M  V30 3 C -0.580836 -1.945802 2.190786 0
M  V30 4 N -1.854053 -1.554219 1.614352 0
M  V30 5 C 0.458495 -2.313053 1.201241 0
M  V30 6 O 1.687753 -2.685605 1.744616 0
M  V30 7 C 0.635142 -1.267019 0.182222 0
M  V30 8 C -0.154060 -1.251223 -0.956320 0
M  V30 9 C -0.087848 -0.349257 -1.994981 0
M  V30 10 C 0.847629 0.642293 -1.913913 0
M  V30 11 O 0.920508 1.546620 -2.945708 0
M  V30 12 C 1.673205 0.696466 -0.812033 0
M  V30 13 O 2.626697 1.702342 -0.723441 0
M  V30 14 C 1.572252 -0.227843 0.205076 0
M  V30 15 H -0.474279 1.035418 3.732742 0
M  V30 16 H 1.049318 0.717845 2.899085 0
M  V30 17 H -0.488685 0.708077 1.968996 0
M  V30 18 H 0.756477 -1.403551 3.788902 0
M  V30 19 H -0.951952 -1.111417 4.091188 0
M  V30 20 H -0.859691 -2.921774 2.742431 0
M  V30 21 H -1.800675 -0.679545 1.055321 0
M  V30 22 H -2.557811 -1.526779 2.371821 0
M  V30 23 H 0.122250 -3.234294 0.601558 0
M  V30 24 H 1.508089 -3.135929 2.625005 0
M  V30 25 H -0.910975 -2.044702 -1.032980 0
M  V30 26 H -0.778282 -0.459128 -2.835705 0
M  V30 27 H 1.005550 1.155454 -3.891474 0
M  V30 28 H 2.319471 2.665297 -0.543719 0
M  V30 29 H 2.219244 -0.189887 1.058731 0
M  V30 END ATOM
M  V30 BEGIN BOND
M  V30 1 1 1 2
M  V30 2 1 2 3
M  V30 3 1 3 4
M  V30 4 1 3 5
M  V30 5 1 5 6
M  V30 6 1 5 7
M  V30 7 2 7 8
M  V30 8 1 8 9
M  V30 9 2 9 10
M  V30 10 1 10 11
M  V30 11 1 10 12
M  V30 12 1 12 13
M  V30 13 2 12 14
M  V30 14 1 14 7
M  V30 15 1 1 15
M  V30 16 1 1 16
M  V30 17 1 1 17
M  V30 18 1 2 18
M  V30 19 1 2 19
M  V30 20 1 3 20
M  V30 21 1 4 21
M  V30 22 1 4 22
M  V30 23 1 5 23
M  V30 24 1 6 24
M  V30 25 1 8 25
M  V30 26 1 9 26
M  V30 27 1 11 27
M  V30 28 1 13 28
M  V30 29 1 14 29
M  V30 END BOND
M  V30 END CTAB
M  END
>  <Dataset>  (935) 
ChEMBL_Kinases

>  <Ligand_Instance>  (935) 
nan

>  <PDB_ID>  (935) 
nan

>  <Standardized_SMILES>  (935) 
CCC(N)C(O)c1ccc(O)c(O)c1

>  <Name>  (935) 
ETHYLNOREPINEPHRINE HYDROCHLORIDE

>  <Pocket>  (935) 
nan

>  <ATP_Site>  (935) 
nan

>  <Peripheral>  (935) 
nan

>  <Num_H_Atoms_ProtBoundConf>  (935) 
nan

>  <Num_Resolved_Atoms>  (935) 
nan

>  <Num_Not_Resolved_Atoms>  (935) 
nan

$$$$
CHEMBL1322756
     RDKit          3D

  0  0  0  0  0  0  0  0  0  0999 V3000
M  V30 BEGIN CTAB
M  V30 COUNTS 35 38 0 0 0
M  V30 BEGIN ATOM
M  V30 1 C 1.428624 -2.914956 4.356911 0
M  V30 2 C 0.308129 -3.640472 4.010542 0
M  V30 3 C -0.209364 -3.605749 2.719942 0
M  V30 4 C 0.458030 -2.803167 1.796543 0
M  V30 5 N -0.006516 -2.701361 0.454492 0
M  V30 6 C 0.568072 -2.013611 -0.649334 0
M  V30 7 N 1.349726 -2.781186 -1.450588 0
M  V30 8 C 1.971603 -2.301839 -2.530250 0
M  V30 9 N 1.812394 -1.016818 -2.825984 0
M  V30 10 C 1.058406 -0.203949 -2.082541 0
M  V30 11 C 0.900103 1.126803 -2.391836 0
M  V30 12 C 0.106605 1.941993 -1.587049 0
M  V30 13 C -0.513713 1.396827 -0.481561 0
M  V30 14 C -1.326619 2.291641 0.325547 0
M  V30 15 C -2.015706 3.372336 -0.238633 0
M  V30 16 C -2.710314 4.056851 0.747692 0
M  V30 17 O -2.459339 3.428547 1.851369 0
M  V30 18 C -1.667913 2.401043 1.679555 0
M  V30 19 C -0.391279 0.052507 -0.115730 0
M  V30 20 C 0.410385 -0.679882 -0.966146 0
M  V30 21 C 1.586156 -2.075815 2.155475 0
M  V30 22 C 2.081101 -2.120498 3.424434 0
M  V30 23 H 1.806100 -2.962195 5.370567 0
M  V30 24 H -0.215393 -4.260764 4.709052 0
M  V30 25 H -1.092216 -4.177437 2.451400 0
M  V30 26 H -0.888781 -3.171339 0.157318 0
M  V30 27 H 2.597527 -2.904045 -3.179390 0
M  V30 28 H 1.393319 1.532617 -3.259955 0
M  V30 29 H -0.030690 3.002861 -1.819747 0
M  V30 30 H -2.009601 3.642728 -1.299394 0
M  V30 31 H -3.310727 4.929975 0.525146 0
M  V30 32 H -1.253060 1.661908 2.358164 0
M  V30 33 H -0.876734 -0.374969 0.749462 0
M  V30 34 H 2.062237 -1.472052 1.405311 0
M  V30 35 H 2.973612 -1.527985 3.658508 0
M  V30 END ATOM
M  V30 BEGIN BOND
M  V30 1 2 1 2
M  V30 2 1 2 3
M  V30 3 2 3 4
M  V30 4 1 4 5
M  V30 5 1 5 6
M  V30 6 2 6 7
M  V30 7 1 7 8
M  V30 8 2 8 9
M  V30 9 1 9 10
M  V30 10 2 10 11
M  V30 11 1 11 12
M  V30 12 2 12 13
M  V30 13 1 13 14
M  V30 14 1 14 15
M  V30 15 2 15 16
M  V30 16 1 16 17
M  V30 17 1 17 18
M  V30 18 1 13 19
M  V30 19 2 19 20
M  V30 20 1 4 21
M  V30 21 2 21 22
M  V30 22 1 22 1
M  V30 23 1 20 6
M  V30 24 1 20 10
M  V30 25 2 18 14
M  V30 26 1 1 23
M  V30 27 1 2 24
M  V30 28 1 3 25
M  V30 29 1 5 26
M  V30 30 1 8 27
M  V30 31 1 11 28
M  V30 32 1 12 29
M  V30 33 1 15 30
M  V30 34 1 16 31
M  V30 35 1 18 32
M  V30 36 1 19 33
M  V30 37 1 21 34
M  V30 38 1 22 35
M  V30 END BOND
M  V30 END CTAB
M  END
>  <Dataset>  (936) 
ChEMBL_Kinases

>  <Ligand_Instance>  (936) 
nan

>  <PDB_ID>  (936) 
nan

>  <Standardized_SMILES>  (936) 
c1ccc(Nc2ncnc3ccc(-c4ccoc4)cc23)cc1

>  <Name>  (936) 
nan

>  <Pocket>  (936) 
nan

>  <ATP_Site>  (936) 
nan

>  <Peripheral>  (936) 
nan

>  <Num_H_Atoms_ProtBoundConf>  (936) 
nan

>  <Num_Resolved_Atoms>  (936) 
nan

>  <Num_Not_Resolved_Atoms>  (936) 
nan

$$$$
CHEMBL1322743
     RDKit          3D

  0  0  0  0  0  0  0  0  0  0999 V3000
M  V30 BEGIN CTAB
M  V30 COUNTS 52 56 0 0 0
M  V30 BEGIN ATOM
M  V30 1 N 3.368674 -6.129335 -4.960148 0
M  V30 2 C 3.555980 -5.387637 -4.074299 0
M  V30 3 C 3.766720 -4.461580 -2.973462 0
M  V30 4 C 4.967082 -4.528974 -2.296664 0
M  V30 5 C 5.107749 -3.612735 -1.249694 0
M  V30 6 C 4.123086 -2.696208 -0.903022 0
M  V30 7 C 2.926175 -2.680938 -1.632252 0
M  V30 8 C 1.976211 -1.673378 -1.168256 0
M  V30 9 N 2.418997 -0.412888 -0.896196 0
M  V30 10 C 1.561320 0.549610 -0.462359 0
M  V30 11 C 2.046945 1.816792 -0.196472 0
M  V30 12 N 1.151344 2.726176 0.229488 0
M  V30 13 C -0.160631 2.415282 0.389733 0
M  V30 14 N -1.165611 3.320401 0.835537 0
M  V30 15 C -1.452485 3.437862 2.224386 0
M  V30 16 C -2.410277 4.289976 2.741313 0
M  V30 17 C -2.673737 4.388583 4.093217 0
M  V30 18 C -1.960429 3.609147 4.998650 0
M  V30 19 C -0.988199 2.739167 4.518735 0
M  V30 20 C -0.761716 2.677101 3.154344 0
M  V30 21 N -0.609843 1.174617 0.124481 0
M  V30 22 C 0.229427 0.200141 -0.309201 0
M  V30 23 N -0.222129 -1.052067 -0.577239 0
M  V30 24 C -1.638948 -1.254349 -0.366249 0
M  V30 25 C -1.957779 -1.707419 1.039973 0 CFG=1
M  V30 26 C -3.435620 -1.905319 1.216995 0
M  V30 27 C -3.502262 -3.266981 1.867450 0
M  V30 28 C -2.088321 -3.385779 2.432947 0
M  V30 29 O -1.309639 -2.866361 1.397246 0
M  V30 30 C 0.629332 -1.991272 -1.003315 0
M  V30 31 O 0.191305 -3.124373 -1.240336 0
M  V30 32 C 2.764555 -3.565639 -2.659289 0
M  V30 33 H 5.737746 -5.227127 -2.547817 0
M  V30 34 H 6.047178 -3.644593 -0.698215 0
M  V30 35 H 4.357159 -2.036819 -0.066854 0
M  V30 36 H 3.086104 2.086082 -0.316820 0
M  V30 37 H -1.732388 3.931532 0.187021 0
M  V30 38 H -2.964684 4.896711 2.029148 0
M  V30 39 H -3.432754 5.066819 4.476478 0
M  V30 40 H -2.108498 3.630033 6.066588 0
M  V30 41 H -0.380096 2.088928 5.163256 0
M  V30 42 H -0.005046 2.004313 2.741939 0
M  V30 43 H -2.206418 -0.355731 -0.600100 0
M  V30 44 H -1.952071 -2.050474 -1.073539 0
M  V30 45 H -1.647261 -0.907198 1.766142 0
M  V30 46 H -3.912033 -1.898298 0.215905 0
M  V30 47 H -3.909913 -1.108544 1.824365 0
M  V30 48 H -4.260414 -3.290026 2.666805 0
M  V30 49 H -3.690407 -4.049601 1.098103 0
M  V30 50 H -2.057883 -2.721855 3.303449 0
M  V30 51 H -1.868700 -4.448996 2.635584 0
M  V30 52 H 1.817445 -3.503324 -3.183790 0
M  V30 END ATOM
M  V30 BEGIN BOND
M  V30 1 3 1 2
M  V30 2 1 2 3
M  V30 3 2 3 4
M  V30 4 1 4 5
M  V30 5 2 5 6
M  V30 6 1 6 7
M  V30 7 1 7 8
M  V30 8 2 8 9
M  V30 9 1 9 10
M  V30 10 2 10 11
M  V30 11 1 11 12
M  V30 12 2 12 13
M  V30 13 1 13 14
M  V30 14 1 14 15
M  V30 15 2 15 16
M  V30 16 1 16 17
M  V30 17 2 17 18
M  V30 18 1 18 19
M  V30 19 2 19 20
M  V30 20 1 13 21
M  V30 21 2 21 22
M  V30 22 1 22 23
M  V30 23 1 23 24
M  V30 24 1 24 25
M  V30 25 1 25 26
M  V30 26 1 26 27
M  V30 27 1 27 28
M  V30 28 1 28 29
M  V30 29 1 23 30
M  V30 30 2 30 31
M  V30 31 2 7 32
M  V30 32 1 32 3
M  V30 33 1 30 8
M  V30 34 1 22 10
M  V30 35 1 29 25
M  V30 36 1 20 15
M  V30 37 1 4 33
M  V30 38 1 5 34
M  V30 39 1 6 35
M  V30 40 1 11 36
M  V30 41 1 14 37
M  V30 42 1 16 38
M  V30 43 1 17 39
M  V30 44 1 18 40
M  V30 45 1 19 41
M  V30 46 1 20 42
M  V30 47 1 24 43
M  V30 48 1 24 44
M  V30 49 1 25 45 CFG=1
M  V30 50 1 26 46
M  V30 51 1 26 47
M  V30 52 1 27 48
M  V30 53 1 27 49
M  V30 54 1 28 50
M  V30 55 1 28 51
M  V30 56 1 32 52
M  V30 END BOND
M  V30 END CTAB
M  END
>  <Dataset>  (937) 
ChEMBL_Kinases

>  <Ligand_Instance>  (937) 
nan

>  <PDB_ID>  (937) 
nan

>  <Standardized_SMILES>  (937) 
N#Cc1cccc(-c2nc3cnc(Nc4ccccc4)nc3n(C[C@H]3CCCO3)c2=O)c1

>  <Name>  (937) 
nan

>  <Pocket>  (937) 
nan

>  <ATP_Site>  (937) 
nan

>  <Peripheral>  (937) 
nan

>  <Num_H_Atoms_ProtBoundConf>  (937) 
nan

>  <Num_Resolved_Atoms>  (937) 
nan

>  <Num_Not_Resolved_Atoms>  (937) 
nan

$$$$
CHEMBL1322651
     RDKit          3D

  0  0  0  0  0  0  0  0  0  0999 V3000
M  V30 BEGIN CTAB
M  V30 COUNTS 46 48 0 0 0
M  V30 BEGIN ATOM
M  V30 1 C 1.795626 -6.831397 2.789596 0
M  V30 2 O 0.792435 -6.271960 1.938442 0
M  V30 3 C 1.028311 -5.073929 1.294012 0
M  V30 4 C 2.189487 -4.337266 1.399937 0
M  V30 5 C 2.372525 -3.143128 0.731864 0
M  V30 6 C 1.356563 -2.647070 -0.085333 0
M  V30 7 C 1.460891 -1.394527 -0.829405 0
M  V30 8 N 2.103150 -0.950980 -1.930480 0
M  V30 9 O 1.809053 0.301208 -2.123060 0
M  V30 10 C 0.988807 0.734292 -1.195407 0
M  V30 11 C 0.389647 2.092313 -1.016515 0
M  V30 12 N 1.215351 2.924895 -0.205601 0
M  V30 13 C 2.598403 2.727914 -0.490787 0
M  V30 14 S 0.854171 2.820479 1.475605 0
M  V30 15 O 1.800647 3.679486 2.242817 0
M  V30 16 O 1.049262 1.391285 1.897877 0
M  V30 17 C -0.774621 3.330949 1.822862 0
M  V30 18 C -1.118133 4.640668 2.122953 0
M  V30 19 C -2.415114 5.031758 2.396500 0
M  V30 20 C -3.435827 4.085630 2.375122 0
M  V30 21 C -3.157144 2.766042 2.083153 0
M  V30 22 C -1.836154 2.428533 1.816021 0
M  V30 23 N 0.757516 -0.317926 -0.371581 0
M  V30 24 C 0.166004 -3.366544 -0.216695 0
M  V30 25 C 0.045793 -4.550653 0.476053 0
M  V30 26 O -1.140385 -5.255532 0.337567 0
M  V30 27 C -2.175622 -4.751833 -0.494093 0
M  V30 28 H 2.781777 -6.746206 2.283415 0
M  V30 29 H 1.560770 -7.877337 3.043405 0
M  V30 30 H 1.859295 -6.162813 3.672878 0
M  V30 31 H 2.976395 -4.723915 2.034438 0
M  V30 32 H 3.281460 -2.562912 0.812511 0
M  V30 33 H 0.219459 2.533423 -2.019681 0
M  V30 34 H -0.615297 2.031886 -0.549011 0
M  V30 35 H 3.221617 3.199019 0.299810 0
M  V30 36 H 2.909195 3.183540 -1.448542 0
M  V30 37 H 2.870887 1.642042 -0.529896 0
M  V30 38 H -0.306850 5.359799 2.133742 0
M  V30 39 H -2.612091 6.075985 2.623921 0
M  V30 40 H -4.457738 4.382394 2.588501 0
M  V30 41 H -3.916796 1.998135 2.055209 0
M  V30 42 H -1.596488 1.395941 1.584227 0
M  V30 43 H -0.635567 -2.994835 -0.848925 0
M  V30 44 H -1.886028 -4.738763 -1.551769 0
M  V30 45 H -2.432248 -3.708149 -0.195049 0
M  V30 46 H -3.054096 -5.396415 -0.342706 0
M  V30 END ATOM
M  V30 BEGIN BOND
M  V30 1 1 1 2
M  V30 2 1 2 3
M  V30 3 2 3 4
M  V30 4 1 4 5
M  V30 5 2 5 6
M  V30 6 1 6 7
M  V30 7 2 7 8
M  V30 8 1 8 9
M  V30 9 1 9 10
M  V30 10 1 10 11
M  V30 11 1 11 12
M  V30 12 1 12 13
M  V30 13 1 12 14
M  V30 14 2 14 15
M  V30 15 2 14 16
M  V30 16 1 14 17
M  V30 17 2 17 18
M  V30 18 1 18 19
M  V30 19 2 19 20
M  V30 20 1 20 21
M  V30 21 2 21 22
M  V30 22 2 10 23
M  V30 23 1 6 24
M  V30 24 2 24 25
M  V30 25 1 25 26
M  V30 26 1 26 27
M  V30 27 1 25 3
M  V30 28 1 23 7
M  V30 29 1 22 17
M  V30 30 1 1 28
M  V30 31 1 1 29
M  V30 32 1 1 30
M  V30 33 1 4 31
M  V30 34 1 5 32
M  V30 35 1 11 33
M  V30 36 1 11 34
M  V30 37 1 13 35
M  V30 38 1 13 36
M  V30 39 1 13 37
M  V30 40 1 18 38
M  V30 41 1 19 39
M  V30 42 1 20 40
M  V30 43 1 21 41
M  V30 44 1 22 42
M  V30 45 1 24 43
M  V30 46 1 27 44
M  V30 47 1 27 45
M  V30 48 1 27 46
M  V30 END BOND
M  V30 END CTAB
M  END
>  <Dataset>  (938) 
ChEMBL_Kinases

>  <Ligand_Instance>  (938) 
nan

>  <PDB_ID>  (938) 
nan

>  <Standardized_SMILES>  (938) 
COc1ccc(-c2noc(CN(C)S(=O)(=O)c3ccccc3)n2)cc1OC

>  <Name>  (938) 
nan

>  <Pocket>  (938) 
nan

>  <ATP_Site>  (938) 
nan

>  <Peripheral>  (938) 
nan

>  <Num_H_Atoms_ProtBoundConf>  (938) 
nan

>  <Num_Resolved_Atoms>  (938) 
nan

>  <Num_Not_Resolved_Atoms>  (938) 
nan

$$$$
CHEMBL1322584
     RDKit          3D

  0  0  0  0  0  0  0  0  0  0999 V3000
M  V30 BEGIN CTAB
M  V30 COUNTS 44 47 0 0 0
M  V30 BEGIN ATOM
M  V30 1 C -2.829863 -6.424175 -0.323088 0
M  V30 2 C -2.285085 -5.118265 -0.747659 0
M  V30 3 C -0.960149 -5.066252 -1.139551 0
M  V30 4 N -0.392724 -3.928812 -1.536064 0
M  V30 5 C -1.136320 -2.803715 -1.552818 0
M  V30 6 C -0.607687 -1.502310 -1.971781 0
M  V30 7 N -0.033805 -0.721696 -0.884410 0
M  V30 8 C 0.509908 0.558743 -1.173356 0
M  V30 9 N 0.494710 1.037786 -2.421151 0
M  V30 10 C 0.988680 2.234927 -2.766292 0
M  V30 11 N 1.534602 3.015159 -1.823620 0
M  V30 12 C 1.602877 2.627801 -0.522794 0
M  V30 13 C 2.163540 3.425529 0.454041 0
M  V30 14 C 2.228350 3.023613 1.772329 0
M  V30 15 C 1.696204 1.767799 2.061587 0
M  V30 16 C 1.745128 1.299513 3.459004 0
M  V30 17 C 0.737452 1.538061 4.387960 0
M  V30 18 C -0.537667 2.275717 4.186886 0
M  V30 19 N 1.165519 0.952510 5.522787 0
M  V30 20 O 2.326922 0.398114 5.334803 0
M  V30 21 C 2.735132 0.573589 4.098981 0
M  V30 22 C 3.962795 0.153026 3.377620 0
M  V30 23 C 1.140581 0.985789 1.072670 0
M  V30 24 C 1.078192 1.386029 -0.228892 0
M  V30 25 C -2.468649 -2.815936 -1.166956 0
M  V30 26 N -3.025470 -3.989686 -0.766052 0
M  V30 27 H -2.154301 -6.981750 0.362302 0
M  V30 28 H -3.065854 -7.049080 -1.224963 0
M  V30 29 H -3.807673 -6.309291 0.218940 0
M  V30 30 H -0.332829 -5.946309 -1.139586 0
M  V30 31 H -1.372692 -0.909169 -2.484290 0
M  V30 32 H 0.224156 -1.633087 -2.714828 0
M  V30 33 H -0.077324 -1.191379 0.034295 0
M  V30 34 H 0.931245 2.539456 -3.808539 0
M  V30 35 H 2.559476 4.391065 0.162767 0
M  V30 36 H 2.661458 3.632621 2.544541 0
M  V30 37 H -1.420133 1.721469 4.563570 0
M  V30 38 H -0.644817 2.551292 3.132061 0
M  V30 39 H -0.487953 3.208254 4.792020 0
M  V30 40 H 4.494132 1.085550 3.079484 0
M  V30 41 H 3.732306 -0.363513 2.422250 0
M  V30 42 H 4.673224 -0.402624 4.015180 0
M  V30 43 H 0.759195 0.044445 1.380791 0
M  V30 44 H -3.106903 -1.941624 -1.162590 0
M  V30 END ATOM
M  V30 BEGIN BOND
M  V30 1 1 1 2
M  V30 2 2 2 3
M  V30 3 1 3 4
M  V30 4 2 4 5
M  V30 5 1 5 6
M  V30 6 1 6 7
M  V30 7 1 7 8
M  V30 8 2 8 9
M  V30 9 1 9 10
M  V30 10 2 10 11
M  V30 11 1 11 12
M  V30 12 2 12 13
M  V30 13 1 13 14
M  V30 14 2 14 15
M  V30 15 1 15 16
M  V30 16 1 16 17
M  V30 17 1 17 18
M  V30 18 2 17 19
M  V30 19 1 19 20
M  V30 20 1 20 21
M  V30 21 1 21 22
M  V30 22 1 15 23
M  V30 23 2 23 24
M  V30 24 1 5 25
M  V30 25 2 25 26
M  V30 26 1 26 2
M  V30 27 1 24 8
M  V30 28 1 24 12
M  V30 29 2 21 16
M  V30 30 1 1 27
M  V30 31 1 1 28
M  V30 32 1 1 29
M  V30 33 1 3 30
M  V30 34 1 6 31
M  V30 35 1 6 32
M  V30 36 1 7 33
M  V30 37 1 10 34
M  V30 38 1 13 35
M  V30 39 1 14 36
M  V30 40 1 18 37
M  V30 41 1 18 38
M  V30 42 1 18 39
M  V30 43 1 22 40
M  V30 44 1 22 41
M  V30 45 1 22 42
M  V30 46 1 23 43
M  V30 47 1 25 44
M  V30 END BOND
M  V30 END CTAB
M  END
>  <Dataset>  (939) 
ChEMBL_Kinases

>  <Ligand_Instance>  (939) 
nan

>  <PDB_ID>  (939) 
nan

>  <Standardized_SMILES>  (939) 
Cc1cnc(CNc2ncnc3ccc(-c4c(C)noc4C)cc23)cn1

>  <Name>  (939) 
nan

>  <Pocket>  (939) 
nan

>  <ATP_Site>  (939) 
nan

>  <Peripheral>  (939) 
nan

>  <Num_H_Atoms_ProtBoundConf>  (939) 
nan

>  <Num_Resolved_Atoms>  (939) 
nan

>  <Num_Not_Resolved_Atoms>  (939) 
nan

$$$$
CHEMBL1322532
     RDKit          3D

  0  0  0  0  0  0  0  0  0  0999 V3000
M  V30 BEGIN CTAB
M  V30 COUNTS 67 70 0 0 0
M  V30 BEGIN ATOM
M  V30 1 C 4.326946 6.374345 0.224726 0
M  V30 2 O 5.416670 5.475494 0.372129 0
M  V30 3 C 5.102645 4.147420 0.727287 0
M  V30 4 C 6.217238 3.313851 0.864276 0
M  V30 5 C 5.978002 1.974435 1.217877 0
M  V30 6 O 7.140679 1.212631 1.333283 0
M  V30 7 C 6.920149 -0.153123 1.698463 0
M  V30 8 C 4.685019 1.518130 1.418536 0
M  V30 9 C 3.659246 2.438596 1.253523 0
M  V30 10 C 2.327152 1.850829 1.489542 0
M  V30 11 C 1.100447 2.472610 1.399478 0
M  V30 12 C 0.127145 1.542461 1.692302 0
M  V30 13 N -1.196471 1.514985 1.772770 0
M  V30 14 C -1.907667 0.421796 2.091478 0
M  V30 15 C -3.386113 0.543684 2.147713 0
M  V30 16 C -1.271237 -0.765981 2.359256 0
M  V30 17 C -1.956165 -2.007011 2.742759 0
M  V30 18 C -2.778663 -2.666828 1.696383 0
M  V30 19 C -2.086843 -3.011524 0.439712 0
M  V30 20 O -0.957696 -2.555539 0.058318 0
M  V30 21 N -2.644587 -3.927909 -0.499551 0
M  V30 22 C -1.884839 -4.178811 -1.708035 0
M  V30 23 C -0.991332 -5.435863 -1.474043 0
M  V30 24 C -2.714002 -4.452480 -2.908234 0
M  V30 25 C -3.668944 -3.384786 -3.326711 0
M  V30 26 C -4.677911 -3.021739 -2.313261 0
M  V30 27 C -5.928105 -3.602335 -2.149219 0
M  V30 28 C -6.579013 -2.994822 -1.095916 0
M  V30 29 C -5.677844 -2.055045 -0.660747 0
M  V30 30 O -4.570837 -2.092929 -1.394807 0
M  V30 31 C 0.123062 -0.814695 2.296918 0
M  V30 32 C 0.956363 -2.004223 2.606533 0
M  V30 33 N 0.744274 0.363282 1.960949 0
M  V30 34 N 2.031911 0.590207 1.830428 0
M  V30 35 C 3.799847 3.764384 0.909613 0
M  V30 36 H 4.719745 7.410356 0.069803 0
M  V30 37 H 3.692198 6.156102 -0.665538 0
M  V30 38 H 3.647661 6.327465 1.107676 0
M  V30 39 H 7.232274 3.690248 0.699253 0
M  V30 40 H 6.376896 -0.676668 0.882380 0
M  V30 41 H 7.852247 -0.674100 1.921496 0
M  V30 42 H 6.243927 -0.193874 2.596727 0
M  V30 43 H 4.552693 0.487996 1.686035 0
M  V30 44 H 0.918686 3.513127 1.143805 0
M  V30 45 H -3.869411 0.317271 1.183405 0
M  V30 46 H -3.785417 -0.029179 3.012239 0
M  V30 47 H -3.644636 1.609599 2.353381 0
M  V30 48 H -2.675930 -1.728409 3.570643 0
M  V30 49 H -1.271220 -2.732715 3.241566 0
M  V30 50 H -3.250910 -3.616070 2.084181 0
M  V30 51 H -3.675541 -2.047594 1.410718 0
M  V30 52 H -3.568680 -4.404473 -0.316571 0
M  V30 53 H -1.161901 -3.380638 -1.893896 0
M  V30 54 H -1.473224 -6.029462 -0.678749 0
M  V30 55 H 0.042444 -5.131755 -1.236122 0
M  V30 56 H -0.956568 -6.050886 -2.392876 0
M  V30 57 H -1.989156 -4.569674 -3.770831 0
M  V30 58 H -3.229729 -5.442464 -2.872362 0
M  V30 59 H -4.221511 -3.784365 -4.224975 0
M  V30 60 H -3.107136 -2.508722 -3.730982 0
M  V30 61 H -6.372822 -4.411966 -2.735932 0
M  V30 62 H -7.550985 -3.149938 -0.661663 0
M  V30 63 H -5.767911 -1.336829 0.156554 0
M  V30 64 H 2.019714 -1.752029 2.460254 0
M  V30 65 H 0.880056 -2.244085 3.716966 0
M  V30 66 H 0.656092 -2.933502 2.113484 0
M  V30 67 H 2.970291 4.423524 0.800977 0
M  V30 END ATOM
M  V30 BEGIN BOND
M  V30 1 1 1 2
M  V30 2 1 2 3
M  V30 3 2 3 4
M  V30 4 1 4 5
M  V30 5 1 5 6
M  V30 6 1 6 7
M  V30 7 2 5 8
M  V30 8 1 8 9
M  V30 9 1 9 10
M  V30 10 1 10 11
M  V30 11 2 11 12
M  V30 12 1 12 13
M  V30 13 2 13 14
M  V30 14 1 14 15
M  V30 15 1 14 16
M  V30 16 1 16 17
M  V30 17 1 17 18
M  V30 18 1 18 19
M  V30 19 2 19 20
M  V30 20 1 19 21
M  V30 21 1 21 22
M  V30 22 1 22 23
M  V30 23 1 22 24
M  V30 24 1 24 25
M  V30 25 1 25 26
M  V30 26 2 26 27
M  V30 27 1 27 28
M  V30 28 2 28 29
M  V30 29 1 29 30
M  V30 30 2 16 31
M  V30 31 1 31 32
M  V30 32 1 31 33
M  V30 33 1 33 34
M  V30 34 2 9 35
M  V30 35 1 35 3
M  V30 36 2 34 10
M  V30 37 1 33 12
M  V30 38 1 30 26
M  V30 39 1 1 36
M  V30 40 1 1 37
M  V30 41 1 1 38
M  V30 42 1 4 39
M  V30 43 1 7 40
M  V30 44 1 7 41
M  V30 45 1 7 42
M  V30 46 1 8 43
M  V30 47 1 11 44
M  V30 48 1 15 45
M  V30 49 1 15 46
M  V30 50 1 15 47
M  V30 51 1 17 48
M  V30 52 1 17 49
M  V30 53 1 18 50
M  V30 54 1 18 51
M  V30 55 1 21 52
M  V30 56 1 22 53
M  V30 57 1 23 54
M  V30 58 1 23 55
M  V30 59 1 23 56
M  V30 60 1 24 57
M  V30 61 1 24 58
M  V30 62 1 25 59
M  V30 63 1 25 60
M  V30 64 1 27 61
M  V30 65 1 28 62
M  V30 66 1 29 63
M  V30 67 1 32 64
M  V30 68 1 32 65
M  V30 69 1 32 66
M  V30 70 1 35 67
M  V30 END BOND
M  V30 END CTAB
M  END
>  <Dataset>  (940) 
ChEMBL_Kinases

>  <Ligand_Instance>  (940) 
nan

>  <PDB_ID>  (940) 
nan

>  <Standardized_SMILES>  (940) 
COc1cc(OC)cc(-c2cc3nc(C)c(CCC(=O)NC(C)CCc4ccco4)c(C)n3n2)c1

>  <Name>  (940) 
nan

>  <Pocket>  (940) 
nan

>  <ATP_Site>  (940) 
nan

>  <Peripheral>  (940) 
nan

>  <Num_H_Atoms_ProtBoundConf>  (940) 
nan

>  <Num_Resolved_Atoms>  (940) 
nan

>  <Num_Not_Resolved_Atoms>  (940) 
nan

$$$$
CHEMBL1322453
     RDKit          3D

  0  0  0  0  0  0  0  0  0  0999 V3000
M  V30 BEGIN CTAB
M  V30 COUNTS 32 35 0 0 0
M  V30 BEGIN ATOM
M  V30 1 C -2.430174 -2.823532 3.344155 0
M  V30 2 C -1.885398 -3.117193 4.581867 0
M  V30 3 N -0.615135 -2.826223 4.923301 0
M  V30 4 C 0.219256 -2.211220 4.042148 0
M  V30 5 C -0.310325 -1.912274 2.803819 0
M  V30 6 C 0.506761 -1.232394 1.738447 0
M  V30 7 N 0.318158 -1.874818 0.457822 0
M  V30 8 C 0.623355 -1.114708 -0.708757 0
M  V30 9 C 0.836210 -1.799389 -1.910105 0
M  V30 10 C 1.128874 -1.034612 -3.017343 0
M  V30 11 C 1.221546 0.352745 -3.002444 0
M  V30 12 C 1.004585 0.976970 -1.801431 0
M  V30 13 C 1.077516 2.353255 -1.698949 0
M  V30 14 C 0.873762 3.072839 -0.528507 0
M  V30 15 C 0.582370 2.319191 0.576406 0
M  V30 16 C 0.488532 0.937814 0.568824 0
M  V30 17 C 0.705808 0.278865 -0.644695 0
M  V30 18 N 0.187568 0.182373 1.717351 0
M  V30 19 C -1.603037 -2.190840 2.410587 0
M  V30 20 H -3.450932 -3.058636 3.073141 0
M  V30 21 H -2.496761 -3.600225 5.312043 0
M  V30 22 H 1.245085 -1.935799 4.212421 0
M  V30 23 H 1.575197 -1.298111 2.016539 0
M  V30 24 H -0.031127 -2.865573 0.392337 0
M  V30 25 H 0.774419 -2.880678 -1.969941 0
M  V30 26 H 1.294472 -1.555552 -3.948281 0
M  V30 27 H 1.453993 0.914639 -3.896406 0
M  V30 28 H 1.311522 2.885032 -2.609683 0
M  V30 29 H 0.945010 4.150509 -0.513553 0
M  V30 30 H 0.407731 2.810756 1.539632 0
M  V30 31 H -0.259705 0.704212 2.504579 0
M  V30 32 H -2.001254 -1.951721 1.442052 0
M  V30 END ATOM
M  V30 BEGIN BOND
M  V30 1 2 1 2
M  V30 2 1 2 3
M  V30 3 2 3 4
M  V30 4 1 4 5
M  V30 5 1 5 6
M  V30 6 1 6 7
M  V30 7 1 7 8
M  V30 8 2 8 9
M  V30 9 1 9 10
M  V30 10 2 10 11
M  V30 11 1 11 12
M  V30 12 2 12 13
M  V30 13 1 13 14
M  V30 14 2 14 15
M  V30 15 1 15 16
M  V30 16 2 16 17
M  V30 17 1 16 18
M  V30 18 2 5 19
M  V30 19 1 19 1
M  V30 20 1 18 6
M  V30 21 1 17 8
M  V30 22 1 17 12
M  V30 23 1 1 20
M  V30 24 1 2 21
M  V30 25 1 4 22
M  V30 26 1 6 23
M  V30 27 1 7 24
M  V30 28 1 9 25
M  V30 29 1 10 26
M  V30 30 1 11 27
M  V30 31 1 13 28
M  V30 32 1 14 29
M  V30 33 1 15 30
M  V30 34 1 18 31
M  V30 35 1 19 32
M  V30 END BOND
M  V30 END CTAB
M  END
>  <Dataset>  (941) 
ChEMBL_Kinases

>  <Ligand_Instance>  (941) 
nan

>  <PDB_ID>  (941) 
nan

>  <Standardized_SMILES>  (941) 
c1cncc(C2Nc3cccc4cccc(c34)N2)c1

>  <Name>  (941) 
nan

>  <Pocket>  (941) 
nan

>  <ATP_Site>  (941) 
nan

>  <Peripheral>  (941) 
nan

>  <Num_H_Atoms_ProtBoundConf>  (941) 
nan

>  <Num_Resolved_Atoms>  (941) 
nan

>  <Num_Not_Resolved_Atoms>  (941) 
nan

$$$$
CHEMBL1322377
     RDKit          3D

  0  0  0  0  0  0  0  0  0  0999 V3000
M  V30 BEGIN CTAB
M  V30 COUNTS 41 43 0 0 0
M  V30 BEGIN ATOM
M  V30 1 C -0.718341 -5.313437 2.991532 0
M  V30 2 O -0.396210 -4.442189 1.968196 0
M  V30 3 C 0.428464 -4.993238 0.999857 0
M  V30 4 C 0.763667 -4.050267 -0.086417 0
M  V30 5 O 1.520450 -4.695287 -0.890218 0
M  V30 6 N 0.289491 -2.688973 -0.151669 0
M  V30 7 C -0.545953 -1.790937 0.624942 0
M  V30 8 C 0.329681 -0.568334 0.932042 0
M  V30 9 C 0.516772 0.153498 -0.377953 0
M  V30 10 C 0.196365 -0.682564 -1.565554 0
M  V30 11 C 0.814838 -2.048906 -1.355910 0
M  V30 12 C -0.025619 1.540141 -0.309995 0
M  V30 13 N 1.263966 2.102908 -0.119365 0
M  V30 14 C 1.677078 2.450567 1.196616 0
M  V30 15 C 0.841966 3.448435 1.885885 0
M  V30 16 N 0.742090 4.601681 2.039293 0
M  V30 17 C -0.174958 5.218755 2.763367 0
M  V30 18 C -1.138119 4.485603 3.429052 0
M  V30 19 S -0.601721 2.749943 2.911178 0
M  V30 20 C 1.850807 0.844000 -0.542221 0
M  V30 21 H -1.380515 -4.750112 3.697497 0
M  V30 22 H 0.189538 -5.620264 3.580264 0
M  V30 23 H -1.303338 -6.202518 2.663645 0
M  V30 24 H 1.389737 -5.239796 1.530859 0
M  V30 25 H 0.050933 -5.976956 0.646988 0
M  V30 26 H -1.406366 -1.427535 0.011427 0
M  V30 27 H -0.965302 -2.219581 1.531399 0
M  V30 28 H 1.308038 -0.865574 1.314668 0
M  V30 29 H -0.287862 0.023485 1.658386 0
M  V30 30 H 0.728181 -0.253471 -2.457238 0
M  V30 31 H -0.872337 -0.746622 -1.835112 0
M  V30 32 H 0.484728 -2.684912 -2.207498 0
M  V30 33 H 1.901622 -1.995330 -1.379981 0
M  V30 34 H -0.434949 1.849089 -1.310885 0
M  V30 35 H -0.792177 1.687860 0.465956 0
M  V30 36 H 1.836357 1.530425 1.833391 0
M  V30 37 H 2.694087 2.892620 1.135474 0
M  V30 38 H -0.119562 6.318569 2.797644 0
M  V30 39 H -1.894766 4.881139 4.018684 0
M  V30 40 H 2.639245 0.444886 0.115916 0
M  V30 41 H 2.152830 0.937149 -1.599061 0
M  V30 END ATOM
M  V30 BEGIN BOND
M  V30 1 1 1 2
M  V30 2 1 2 3
M  V30 3 1 3 4
M  V30 4 2 4 5
M  V30 5 1 4 6
M  V30 6 1 6 7
M  V30 7 1 7 8
M  V30 8 1 8 9
M  V30 9 1 9 10
M  V30 10 1 10 11
M  V30 11 1 9 12
M  V30 12 1 12 13
M  V30 13 1 13 14
M  V30 14 1 14 15
M  V30 15 2 15 16
M  V30 16 1 16 17
M  V30 17 2 17 18
M  V30 18 1 18 19
M  V30 19 1 13 20
M  V30 20 1 11 6
M  V30 21 1 19 15
M  V30 22 1 20 9
M  V30 23 1 1 21
M  V30 24 1 1 22
M  V30 25 1 1 23
M  V30 26 1 3 24
M  V30 27 1 3 25
M  V30 28 1 7 26
M  V30 29 1 7 27
M  V30 30 1 8 28
M  V30 31 1 8 29
M  V30 32 1 10 30
M  V30 33 1 10 31
M  V30 34 1 11 32
M  V30 35 1 11 33
M  V30 36 1 12 34
M  V30 37 1 12 35
M  V30 38 1 14 36
M  V30 39 1 14 37
M  V30 40 1 17 38
M  V30 41 1 18 39
M  V30 42 1 20 40
M  V30 43 1 20 41
M  V30 END BOND
M  V30 END CTAB
M  END
>  <Dataset>  (942) 
ChEMBL_Kinases

>  <Ligand_Instance>  (942) 
nan

>  <PDB_ID>  (942) 
nan

>  <Standardized_SMILES>  (942) 
COCC(=O)N1CCC2(CC1)CN(Cc1nccs1)C2

>  <Name>  (942) 
nan

>  <Pocket>  (942) 
nan

>  <ATP_Site>  (942) 
nan

>  <Peripheral>  (942) 
nan

>  <Num_H_Atoms_ProtBoundConf>  (942) 
nan

>  <Num_Resolved_Atoms>  (942) 
nan

>  <Num_Not_Resolved_Atoms>  (942) 
nan

$$$$
CHEMBL1322362
     RDKit          3D

  0  0  0  0  0  0  0  0  0  0999 V3000
M  V30 BEGIN CTAB
M  V30 COUNTS 66 69 0 0 0
M  V30 BEGIN ATOM
M  V30 1 C 1.032977 -2.144883 6.202002 0
M  V30 2 O 1.229445 -2.490915 4.847054 0
M  V30 3 C 1.310294 -1.572945 3.816271 0
M  V30 4 C 1.504113 -2.189832 2.571806 0
M  V30 5 C 1.607237 -1.407104 1.413702 0
M  V30 6 C 1.516259 -0.029727 1.515357 0
M  V30 7 S 1.663072 0.802013 -0.015953 0
M  V30 8 O 2.121478 2.219554 0.312656 0
M  V30 9 O 2.679677 0.177919 -0.881659 0
M  V30 10 N 0.144209 0.944199 -0.742122 0
M  V30 11 C -0.830211 1.673163 -0.076435 0
M  V30 12 C -0.879037 3.095139 -0.664301 0
M  V30 13 C -1.944103 3.891555 0.031077 0
M  V30 14 N -1.716796 4.032807 1.443272 0
M  V30 15 C -0.977494 5.181735 1.985411 0
M  V30 16 C -0.278296 4.546026 3.170340 0
M  V30 17 C -1.393245 3.731270 3.787048 0
M  V30 18 C -2.100067 3.226947 2.562218 0
M  V30 19 O -2.916048 2.285159 2.348922 0
M  V30 20 C -0.024213 0.392665 -2.003170 0
M  V30 21 C -0.495487 -0.988742 -2.055395 0
M  V30 22 C 0.390399 -2.040662 -2.196987 0
M  V30 23 C 0.118709 -3.416962 -2.235573 0
M  V30 24 C 1.147923 -4.314848 -2.382805 0
M  V30 25 C 0.757495 -5.662483 -2.407207 0
M  V30 26 C 1.801616 -6.703155 -2.561035 0
M  V30 27 C -0.573272 -6.007009 -2.288573 0
M  V30 28 C -1.027943 -7.408771 -2.319944 0
M  V30 29 C -1.583195 -5.051890 -2.139643 0
M  V30 30 C -1.235222 -3.717190 -2.111117 0
M  V30 31 N -2.144061 -2.722792 -1.969781 0
M  V30 32 C -1.795576 -1.426023 -1.943566 0
M  V30 33 O -2.833450 -0.536529 -1.798629 0
M  V30 34 C 1.326325 0.565386 2.737984 0
M  V30 35 C 1.226649 -0.212711 3.864131 0
M  V30 36 H -0.042177 -2.110934 6.491252 0
M  V30 37 H 1.538558 -2.954970 6.801718 0
M  V30 38 H 1.508578 -1.191185 6.448622 0
M  V30 39 H 1.583795 -3.281294 2.444113 0
M  V30 40 H 1.760281 -1.945513 0.465970 0
M  V30 41 H -1.806547 1.195285 -0.062437 0
M  V30 42 H -0.552049 1.844570 1.012294 0
M  V30 43 H 0.090721 3.589378 -0.557045 0
M  V30 44 H -1.115188 3.082702 -1.751034 0
M  V30 45 H -1.997332 4.900247 -0.462469 0
M  V30 46 H -2.947424 3.435001 -0.113121 0
M  V30 47 H -0.302155 5.639748 1.266448 0
M  V30 48 H -1.729753 5.900635 2.400926 0
M  V30 49 H 0.141804 5.314069 3.856877 0
M  V30 50 H 0.488059 3.874075 2.769837 0
M  V30 51 H -1.013814 2.880976 4.392699 0
M  V30 52 H -2.110414 4.378938 4.331096 0
M  V30 53 H -0.791472 1.014827 -2.557949 0
M  V30 54 H 0.910235 0.448270 -2.605007 0
M  V30 55 H 1.455726 -1.788487 -2.296164 0
M  V30 56 H 2.177928 -4.014442 -2.471245 0
M  V30 57 H 1.446912 -7.691306 -2.207735 0
M  V30 58 H 2.687313 -6.423972 -1.937278 0
M  V30 59 H 2.113185 -6.721043 -3.615339 0
M  V30 60 H -0.394532 -7.956573 -3.067094 0
M  V30 61 H -2.097596 -7.498931 -2.628987 0
M  V30 62 H -0.889063 -7.927355 -1.364957 0
M  V30 63 H -2.632870 -5.287397 -2.043604 0
M  V30 64 H -3.098021 0.161916 -2.454965 0
M  V30 65 H 1.265861 1.632340 2.767004 0
M  V30 66 H 1.078071 0.205762 4.849454 0
M  V30 END ATOM
M  V30 BEGIN BOND
M  V30 1 1 1 2
M  V30 2 1 2 3
M  V30 3 2 3 4
M  V30 4 1 4 5
M  V30 5 2 5 6
M  V30 6 1 6 7
M  V30 7 2 7 8
M  V30 8 2 7 9
M  V30 9 1 7 10
M  V30 10 1 10 11
M  V30 11 1 11 12
M  V30 12 1 12 13
M  V30 13 1 13 14
M  V30 14 1 14 15
M  V30 15 1 15 16
M  V30 16 1 16 17
M  V30 17 1 17 18
M  V30 18 2 18 19
M  V30 19 1 10 20
M  V30 20 1 20 21
M  V30 21 2 21 22
M  V30 22 1 22 23
M  V30 23 2 23 24
M  V30 24 1 24 25
M  V30 25 1 25 26
M  V30 26 2 25 27
M  V30 27 1 27 28
M  V30 28 1 27 29
M  V30 29 2 29 30
M  V30 30 1 30 31
M  V30 31 2 31 32
M  V30 32 1 32 33
M  V30 33 1 6 34
M  V30 34 2 34 35
M  V30 35 1 35 3
M  V30 36 1 18 14
M  V30 37 1 32 21
M  V30 38 1 30 23
M  V30 39 1 1 36
M  V30 40 1 1 37
M  V30 41 1 1 38
M  V30 42 1 4 39
M  V30 43 1 5 40
M  V30 44 1 11 41
M  V30 45 1 11 42
M  V30 46 1 12 43
M  V30 47 1 12 44
M  V30 48 1 13 45
M  V30 49 1 13 46
M  V30 50 1 15 47
M  V30 51 1 15 48
M  V30 52 1 16 49
M  V30 53 1 16 50
M  V30 54 1 17 51
M  V30 55 1 17 52
M  V30 56 1 20 53
M  V30 57 1 20 54
M  V30 58 1 22 55
M  V30 59 1 24 56
M  V30 60 1 26 57
M  V30 61 1 26 58
M  V30 62 1 26 59
M  V30 63 1 28 60
M  V30 64 1 28 61
M  V30 65 1 28 62
M  V30 66 1 29 63
M  V30 67 1 33 64
M  V30 68 1 34 65
M  V30 69 1 35 66
M  V30 END BOND
M  V30 END CTAB
M  END
>  <Dataset>  (943) 
ChEMBL_Kinases

>  <Ligand_Instance>  (943) 
nan

>  <PDB_ID>  (943) 
nan

>  <Standardized_SMILES>  (943) 
COc1ccc(S(=O)(=O)N(CCCN2CCCC2=O)Cc2cc3cc(C)c(C)cc3nc2O)cc1

>  <Name>  (943) 
nan

>  <Pocket>  (943) 
nan

>  <ATP_Site>  (943) 
nan

>  <Peripheral>  (943) 
nan

>  <Num_H_Atoms_ProtBoundConf>  (943) 
nan

>  <Num_Resolved_Atoms>  (943) 
nan

>  <Num_Not_Resolved_Atoms>  (943) 
nan

$$$$
CHEMBL1322233
     RDKit          3D

  0  0  0  0  0  0  0  0  0  0999 V3000
M  V30 BEGIN CTAB
M  V30 COUNTS 39 41 0 0 0
M  V30 BEGIN ATOM
M  V30 1 C -0.233254 -4.005810 3.529703 0
M  V30 2 O 1.058589 -4.293686 3.092500 0
M  V30 3 C 1.825773 -3.469858 2.298942 0
M  V30 4 C 3.068993 -4.002984 2.015262 0
M  V30 5 C 3.942865 -3.258004 1.215170 0
M  V30 6 C 3.522747 -2.031432 0.749605 0
M  V30 7 C 2.307854 -1.480161 1.010422 0
M  V30 8 C 1.937251 -0.177873 0.480042 0
M  V30 9 N 2.841642 0.481020 -0.266451 0
M  V30 10 C 2.620581 1.675266 -0.800973 0
M  V30 11 C 1.370041 2.256480 -0.558346 0
M  V30 12 C 0.411576 1.601170 0.209730 0
M  V30 13 N -0.817219 2.276345 0.404670 0
M  V30 14 C -0.939485 3.609443 -0.163127 0
M  V30 15 C -1.970974 1.759269 1.104791 0
M  V30 16 C -2.453715 0.568529 0.326120 0
M  V30 17 C -2.226690 -0.769914 0.341162 0
M  V30 18 C -2.992498 -1.350161 -0.653338 0
M  V30 19 C -3.668788 -0.285566 -1.239297 0
M  V30 20 O -3.315585 0.814625 -0.626353 0
M  V30 21 N 0.743872 0.397996 0.700023 0
M  V30 22 C 1.479992 -2.244303 1.799845 0
M  V30 23 H -0.984507 -4.473137 2.861726 0
M  V30 24 H -0.410562 -2.916527 3.559745 0
M  V30 25 H -0.347715 -4.430867 4.548133 0
M  V30 26 H 3.464773 -4.964579 2.349600 0
M  V30 27 H 4.928231 -3.646940 0.972385 0
M  V30 28 H 4.242172 -1.503337 0.136579 0
M  V30 29 H 3.373166 2.167993 -1.392653 0
M  V30 30 H 1.241195 3.230096 -1.016907 0
M  V30 31 H -0.087994 4.227865 0.233133 0
M  V30 32 H -1.853861 4.120250 0.144356 0
M  V30 33 H -0.858578 3.602410 -1.258768 0
M  V30 34 H -1.610960 1.381028 2.102328 0
M  V30 35 H -2.722140 2.529934 1.243417 0
M  V30 36 H -1.539807 -1.177882 1.063333 0
M  V30 37 H -2.921456 -2.425907 -0.770257 0
M  V30 38 H -4.335990 -0.546757 -2.060257 0
M  V30 39 H 0.497427 -1.884838 2.060120 0
M  V30 END ATOM
M  V30 BEGIN BOND
M  V30 1 1 1 2
M  V30 2 1 2 3
M  V30 3 2 3 4
M  V30 4 1 4 5
M  V30 5 2 5 6
M  V30 6 1 6 7
M  V30 7 1 7 8
M  V30 8 2 8 9
M  V30 9 1 9 10
M  V30 10 2 10 11
M  V30 11 1 11 12
M  V30 12 1 12 13
M  V30 13 1 13 14
M  V30 14 1 13 15
M  V30 15 1 15 16
M  V30 16 2 16 17
M  V30 17 1 17 18
M  V30 18 2 18 19
M  V30 19 1 19 20
M  V30 20 2 12 21
M  V30 21 2 7 22
M  V30 22 1 22 3
M  V30 23 1 21 8
M  V30 24 1 20 16
M  V30 25 1 1 23
M  V30 26 1 1 24
M  V30 27 1 1 25
M  V30 28 1 4 26
M  V30 29 1 5 27
M  V30 30 1 6 28
M  V30 31 1 10 29
M  V30 32 1 11 30
M  V30 33 1 14 31
M  V30 34 1 14 32
M  V30 35 1 14 33
M  V30 36 1 15 34
M  V30 37 1 15 35
M  V30 38 1 17 36
M  V30 39 1 18 37
M  V30 40 1 19 38
M  V30 41 1 22 39
M  V30 END BOND
M  V30 END CTAB
M  END
>  <Dataset>  (944) 
ChEMBL_Kinases

>  <Ligand_Instance>  (944) 
nan

>  <PDB_ID>  (944) 
nan

>  <Standardized_SMILES>  (944) 
COc1cccc(-c2nccc(N(C)Cc3ccco3)n2)c1

>  <Name>  (944) 
nan

>  <Pocket>  (944) 
nan

>  <ATP_Site>  (944) 
nan

>  <Peripheral>  (944) 
nan

>  <Num_H_Atoms_ProtBoundConf>  (944) 
nan

>  <Num_Resolved_Atoms>  (944) 
nan

>  <Num_Not_Resolved_Atoms>  (944) 
nan

$$$$
CHEMBL1322220
     RDKit          3D

  0  0  0  0  0  0  0  0  0  0999 V3000
M  V30 BEGIN CTAB
M  V30 COUNTS 32 33 0 0 0
M  V30 BEGIN ATOM
M  V30 1 C -2.750365 -3.428181 1.365565 0
M  V30 2 C -1.298974 -2.922246 1.334445 0
M  V30 3 C -0.426135 -4.012896 0.856363 0
M  V30 4 C 1.032535 -3.757292 0.739376 0
M  V30 5 S 1.609518 -2.569043 -0.434822 0
M  V30 6 C 1.154299 -0.907558 -0.199219 0
M  V30 7 N 1.871071 -0.139089 0.642417 0
M  V30 8 C 1.593255 1.163574 0.818135 0
M  V30 9 C 0.577179 1.841834 0.179831 0
M  V30 10 C -0.199857 1.120022 -0.697974 0
M  V30 11 C 0.124589 -0.208578 -0.843922 0
M  V30 12 C -0.667183 -0.971408 -1.794969 0
M  V30 13 N -1.287980 -1.593249 -2.543317 0
M  V30 14 C 0.469131 3.272264 0.542651 0
M  V30 15 C 1.568266 3.445022 1.544533 0
M  V30 16 C 2.275435 2.143333 1.694991 0
M  V30 17 H -2.792734 -4.209872 2.127050 0
M  V30 18 H -3.419317 -2.573617 1.642936 0
M  V30 19 H -2.985385 -3.738509 0.334304 0
M  V30 20 H -1.047456 -2.633737 2.388983 0
M  V30 21 H -1.265244 -2.020344 0.732043 0
M  V30 22 H -0.572314 -4.881565 1.568768 0
M  V30 23 H -0.813597 -4.409980 -0.121745 0
M  V30 24 H 1.422911 -3.465360 1.772961 0
M  V30 25 H 1.530595 -4.754334 0.514887 0
M  V30 26 H -1.014142 1.543679 -1.248791 0
M  V30 27 H 0.520213 3.961811 -0.320885 0
M  V30 28 H -0.548528 3.435460 1.000840 0
M  V30 29 H 1.164652 3.746006 2.551260 0
M  V30 30 H 2.279133 4.234690 1.181317 0
M  V30 31 H 3.334257 2.207671 1.353512 0
M  V30 32 H 2.260059 1.737192 2.725850 0
M  V30 END ATOM
M  V30 BEGIN BOND
M  V30 1 1 1 2
M  V30 2 1 2 3
M  V30 3 1 3 4
M  V30 4 1 4 5
M  V30 5 1 5 6
M  V30 6 2 6 7
M  V30 7 1 7 8
M  V30 8 2 8 9
M  V30 9 1 9 10
M  V30 10 2 10 11
M  V30 11 1 11 12
M  V30 12 3 12 13
M  V30 13 1 9 14
M  V30 14 1 14 15
M  V30 15 1 15 16
M  V30 16 1 11 6
M  V30 17 1 16 8
M  V30 18 1 1 17
M  V30 19 1 1 18
M  V30 20 1 1 19
M  V30 21 1 2 20
M  V30 22 1 2 21
M  V30 23 1 3 22
M  V30 24 1 3 23
M  V30 25 1 4 24
M  V30 26 1 4 25
M  V30 27 1 10 26
M  V30 28 1 14 27
M  V30 29 1 14 28
M  V30 30 1 15 29
M  V30 31 1 15 30
M  V30 32 1 16 31
M  V30 33 1 16 32
M  V30 END BOND
M  V30 END CTAB
M  END
>  <Dataset>  (945) 
ChEMBL_Kinases

>  <Ligand_Instance>  (945) 
nan

>  <PDB_ID>  (945) 
nan

>  <Standardized_SMILES>  (945) 
CCCCSc1nc2c(cc1C#N)CCC2

>  <Name>  (945) 
nan

>  <Pocket>  (945) 
nan

>  <ATP_Site>  (945) 
nan

>  <Peripheral>  (945) 
nan

>  <Num_H_Atoms_ProtBoundConf>  (945) 
nan

>  <Num_Resolved_Atoms>  (945) 
nan

>  <Num_Not_Resolved_Atoms>  (945) 
nan

$$$$
CHEMBL1319919
     RDKit          3D

  0  0  0  0  0  0  0  0  0  0999 V3000
M  V30 BEGIN CTAB
M  V30 COUNTS 43 45 0 0 0
M  V30 BEGIN ATOM
M  V30 1 C -1.626031 -2.369483 3.024628 0
M  V30 2 C -0.129361 -2.524004 2.979469 0
M  V30 3 C 0.203979 -3.903924 3.535530 0
M  V30 4 C 0.294910 -2.434135 1.557150 0
M  V30 5 N 1.216815 -1.563789 1.049939 0
M  V30 6 C 1.508589 -1.590980 -0.265402 0
M  V30 7 S 2.720146 -0.398956 -0.745032 0
M  V30 8 C 1.940863 1.186749 -1.213692 0
M  V30 9 C 1.306280 1.800329 -0.045585 0
M  V30 10 O 0.819159 2.881126 -0.458406 0
M  V30 11 N 0.637810 2.556945 0.948169 0
M  V30 12 C -0.062918 3.817177 1.000782 0
M  V30 13 C 0.662821 4.461603 2.194781 0
M  V30 14 C 1.140897 3.285039 3.045392 0
M  V30 15 C 0.542687 2.079367 2.315501 0
M  V30 16 C 0.866529 -2.502028 -1.075802 0
M  V30 17 C 1.223200 -2.462910 -2.409833 0
M  V30 18 C 0.584429 -3.373847 -3.233784 0
M  V30 19 C -0.357688 -4.277382 -2.768297 0
M  V30 20 C -0.692321 -4.286805 -1.413405 0
M  V30 21 C -0.067414 -3.387129 -0.574672 0
M  V30 22 N -0.327622 -3.323068 0.750304 0
M  V30 23 H -2.029007 -2.766181 2.069443 0
M  V30 24 H -1.939509 -1.315572 3.140341 0
M  V30 25 H -2.040558 -3.029234 3.823439 0
M  V30 26 H 0.413554 -1.777721 3.593046 0
M  V30 27 H -0.651827 -4.295614 4.123177 0
M  V30 28 H 0.353685 -4.624659 2.690798 0
M  V30 29 H 1.084253 -3.878322 4.216105 0
M  V30 30 H 2.707743 1.851808 -1.665419 0
M  V30 31 H 1.139846 1.001105 -1.987609 0
M  V30 32 H 0.003039 4.444276 0.117422 0
M  V30 33 H -1.118395 3.678754 1.359923 0
M  V30 34 H -0.016111 5.105524 2.750828 0
M  V30 35 H 1.547571 4.978954 1.760563 0
M  V30 36 H 2.249508 3.167294 2.950858 0
M  V30 37 H 0.819374 3.353864 4.087266 0
M  V30 38 H -0.530932 2.018030 2.584902 0
M  V30 39 H 1.100874 1.168777 2.514282 0
M  V30 40 H 1.956090 -1.763625 -2.786682 0
M  V30 41 H 0.796670 -3.421020 -4.296203 0
M  V30 42 H -0.860409 -4.991874 -3.405625 0
M  V30 43 H -1.416251 -4.953844 -0.949800 0
M  V30 END ATOM
M  V30 BEGIN BOND
M  V30 1 1 1 2
M  V30 2 1 2 3
M  V30 3 1 2 4
M  V30 4 2 4 5
M  V30 5 1 5 6
M  V30 6 1 6 7
M  V30 7 1 7 8
M  V30 8 1 8 9
M  V30 9 2 9 10
M  V30 10 1 9 11
M  V30 11 1 11 12
M  V30 12 1 12 13
M  V30 13 1 13 14
M  V30 14 1 14 15
M  V30 15 2 6 16
M  V30 16 1 16 17
M  V30 17 2 17 18
M  V30 18 1 18 19
M  V30 19 2 19 20
M  V30 20 1 20 21
M  V30 21 2 21 22
M  V30 22 1 22 4
M  V30 23 1 15 11
M  V30 24 1 21 16
M  V30 25 1 1 23
M  V30 26 1 1 24
M  V30 27 1 1 25
M  V30 28 1 2 26
M  V30 29 1 3 27
M  V30 30 1 3 28
M  V30 31 1 3 29
M  V30 32 1 8 30
M  V30 33 1 8 31
M  V30 34 1 12 32
M  V30 35 1 12 33
M  V30 36 1 13 34
M  V30 37 1 13 35
M  V30 38 1 14 36
M  V30 39 1 14 37
M  V30 40 1 15 38
M  V30 41 1 15 39
M  V30 42 1 17 40
M  V30 43 1 18 41
M  V30 44 1 19 42
M  V30 45 1 20 43
M  V30 END BOND
M  V30 END CTAB
M  END
>  <Dataset>  (946) 
ChEMBL_Kinases

>  <Ligand_Instance>  (946) 
nan

>  <PDB_ID>  (946) 
nan

>  <Standardized_SMILES>  (946) 
CC(C)c1nc(SCC(=O)N2CCCC2)c2ccccc2n1

>  <Name>  (946) 
nan

>  <Pocket>  (946) 
nan

>  <ATP_Site>  (946) 
nan

>  <Peripheral>  (946) 
nan

>  <Num_H_Atoms_ProtBoundConf>  (946) 
nan

>  <Num_Resolved_Atoms>  (946) 
nan

>  <Num_Not_Resolved_Atoms>  (946) 
nan

$$$$
CHEMBL1320469
     RDKit          3D

  0  0  0  0  0  0  0  0  0  0999 V3000
M  V30 BEGIN CTAB
M  V30 COUNTS 37 40 0 0 0
M  V30 BEGIN ATOM
M  V30 1 Cl 1.823757 -3.367142 3.447130 0
M  V30 2 C 1.030536 -4.248441 2.156783 0
M  V30 3 C 0.821031 -5.608842 2.245844 0
M  V30 4 C 0.196661 -6.273047 1.217952 0
M  V30 5 C -0.228014 -5.597121 0.088697 0
M  V30 6 C 0.005551 -4.240092 0.050240 0
M  V30 7 C 0.626171 -3.529781 1.052943 0
M  V30 8 C 0.859299 -2.094138 0.984833 0
M  V30 9 N 0.483363 -1.354720 -0.073295 0
M  V30 10 C 0.705520 -0.017750 -0.123352 0
M  V30 11 N 0.341207 0.821340 -1.192646 0
M  V30 12 C -0.893558 1.523943 -1.279657 0
M  V30 13 C -1.218289 2.315824 -2.362192 0
M  V30 14 C -2.420580 3.007927 -2.453098 0
M  V30 15 N -3.269139 2.862472 -1.408760 0
M  V30 16 C -2.957915 2.092239 -0.351860 0
M  V30 17 C -1.769540 1.385461 -0.222278 0
M  V30 18 C 1.332128 0.612208 0.931705 0
M  V30 19 C 1.589965 1.965825 0.951656 0
M  V30 20 C 2.222077 2.605029 2.017198 0
M  V30 21 C 2.567916 1.762386 3.052354 0
M  V30 22 C 2.346679 0.402563 3.110235 0
M  V30 23 C 1.716326 -0.149625 2.015630 0
M  V30 24 N 1.469260 -1.471168 2.008283 0
M  V30 25 H 1.154912 -6.141290 3.134011 0
M  V30 26 H 0.046073 -7.355690 1.322683 0
M  V30 27 H -0.719666 -6.144141 -0.711001 0
M  V30 28 H -0.323749 -3.688549 -0.835640 0
M  V30 29 H 1.060899 0.905746 -1.957743 0
M  V30 30 H -0.440876 2.342349 -3.132253 0
M  V30 31 H -2.606694 3.609417 -3.331964 0
M  V30 32 H -3.764852 2.108494 0.371472 0
M  V30 33 H -1.628800 0.802917 0.665470 0
M  V30 34 H 1.286940 2.558704 0.099619 0
M  V30 35 H 2.431956 3.653829 2.054492 0
M  V30 36 H 3.071841 2.174501 3.938735 0
M  V30 37 H 2.649247 -0.188061 3.960742 0
M  V30 END ATOM
M  V30 BEGIN BOND
M  V30 1 1 1 2
M  V30 2 2 2 3
M  V30 3 1 3 4
M  V30 4 2 4 5
M  V30 5 1 5 6
M  V30 6 2 6 7
M  V30 7 1 7 8
M  V30 8 2 8 9
M  V30 9 1 9 10
M  V30 10 1 10 11
M  V30 11 1 11 12
M  V30 12 2 12 13
M  V30 13 1 13 14
M  V30 14 2 14 15
M  V30 15 1 15 16
M  V30 16 2 16 17
M  V30 17 2 10 18
M  V30 18 1 18 19
M  V30 19 2 19 20
M  V30 20 1 20 21
M  V30 21 2 21 22
M  V30 22 1 22 23
M  V30 23 2 23 24
M  V30 24 1 7 2
M  V30 25 1 24 8
M  V30 26 1 17 12
M  V30 27 1 23 18
M  V30 28 1 3 25
M  V30 29 1 4 26
M  V30 30 1 5 27
M  V30 31 1 6 28
M  V30 32 1 11 29
M  V30 33 1 13 30
M  V30 34 1 14 31
M  V30 35 1 16 32
M  V30 36 1 17 33
M  V30 37 1 19 34
M  V30 38 1 20 35
M  V30 39 1 21 36
M  V30 40 1 22 37
M  V30 END BOND
M  V30 END CTAB
M  END
>  <Dataset>  (947) 
ChEMBL_Kinases

>  <Ligand_Instance>  (947) 
nan

>  <PDB_ID>  (947) 
nan

>  <Standardized_SMILES>  (947) 
Clc1ccccc1-c1nc(Nc2ccncc2)c2ccccc2n1

>  <Name>  (947) 
nan

>  <Pocket>  (947) 
nan

>  <ATP_Site>  (947) 
nan

>  <Peripheral>  (947) 
nan

>  <Num_H_Atoms_ProtBoundConf>  (947) 
nan

>  <Num_Resolved_Atoms>  (947) 
nan

>  <Num_Not_Resolved_Atoms>  (947) 
nan

$$$$
CHEMBL1320485
     RDKit          3D

  0  0  0  0  0  0  0  0  0  0999 V3000
M  V30 BEGIN CTAB
M  V30 COUNTS 47 48 0 0 0
M  V30 BEGIN ATOM
M  V30 1 C 2.256221 -3.010765 0.499269 0
M  V30 2 C 1.017144 -2.569667 1.202019 0 CFG=2
M  V30 3 N -0.144904 -2.325292 0.494016 0
M  V30 4 C -0.284777 -1.509932 -0.615119 0 CFG=1
M  V30 5 C -1.782108 -1.513759 -0.975554 0
M  V30 6 C 0.146347 -0.067131 -0.502336 0
M  V30 7 C -0.099961 0.674578 -1.824854 0
M  V30 8 C 0.313549 2.079777 -1.734348 0
M  V30 9 C 1.627980 2.401311 -2.076637 0
M  V30 10 C 1.991054 3.731187 -1.982512 0
M  V30 11 C 1.165787 4.765407 -1.579682 0
M  V30 12 C -0.141661 4.399341 -1.246245 0
M  V30 13 C -0.544286 3.075930 -1.327622 0
M  V30 14 C 1.225051 -1.554905 2.297726 0 CFG=2
M  V30 15 O 2.424960 -1.866734 2.974035 0
M  V30 16 C 0.082214 -1.725919 3.270278 0
M  V30 17 C -0.948428 -0.817532 3.409946 0
M  V30 18 C -1.951230 -1.067389 4.332515 0
M  V30 19 C -1.849148 -2.240446 5.070235 0
M  V30 20 O -2.890243 -2.452542 5.995203 0
M  V30 21 C -0.826348 -3.160870 4.944781 0
M  V30 22 C 0.178343 -2.891057 4.006946 0
M  V30 23 H 2.145583 -3.313543 -0.529395 0
M  V30 24 H 2.943988 -2.114267 0.500595 0
M  V30 25 H 2.840146 -3.788160 1.032644 0
M  V30 26 H 0.761028 -3.513372 1.826157 0
M  V30 27 H -1.024502 -2.750384 0.860647 0
M  V30 28 H 0.204573 -1.867341 -1.555613 0
M  V30 29 H -2.224409 -2.483181 -0.674003 0
M  V30 30 H -1.929349 -1.313344 -2.052636 0
M  V30 31 H -2.254013 -0.737109 -0.340432 0
M  V30 32 H -0.383629 0.511153 0.271664 0
M  V30 33 H 1.232949 0.006261 -0.277331 0
M  V30 34 H 0.508892 0.147827 -2.581633 0
M  V30 35 H -1.150344 0.569983 -2.139828 0
M  V30 36 H 2.336545 1.648768 -2.401902 0
M  V30 37 H 3.017563 3.977133 -2.250627 0
M  V30 38 H 1.547086 5.779196 -1.539004 0
M  V30 39 H -0.816461 5.207337 -0.922602 0
M  V30 40 H -1.563748 2.851737 -1.058362 0
M  V30 41 H 1.265270 -0.519629 1.995329 0
M  V30 42 H 3.127256 -1.249538 2.629525 0
M  V30 43 H -0.937413 0.054362 2.796739 0
M  V30 44 H -2.771001 -0.377881 4.466543 0
M  V30 45 H -3.391942 -3.351203 5.945754 0
M  V30 46 H -0.833687 -4.060793 5.574723 0
M  V30 47 H 0.974147 -3.611875 3.912585 0
M  V30 END ATOM
M  V30 BEGIN BOND
M  V30 1 1 1 2
M  V30 2 1 2 3
M  V30 3 1 3 4
M  V30 4 1 4 5
M  V30 5 1 4 6
M  V30 6 1 6 7
M  V30 7 1 7 8
M  V30 8 2 8 9
M  V30 9 1 9 10
M  V30 10 2 10 11
M  V30 11 1 11 12
M  V30 12 2 12 13
M  V30 13 1 2 14
M  V30 14 1 14 15
M  V30 15 1 14 16
M  V30 16 2 16 17
M  V30 17 1 17 18
M  V30 18 2 18 19
M  V30 19 1 19 20
M  V30 20 1 19 21
M  V30 21 2 21 22
M  V30 22 1 13 8
M  V30 23 1 22 16
M  V30 24 1 1 23
M  V30 25 1 1 24
M  V30 26 1 1 25
M  V30 27 1 2 26 CFG=1
M  V30 28 1 3 27
M  V30 29 1 4 28 CFG=3
M  V30 30 1 5 29
M  V30 31 1 5 30
M  V30 32 1 5 31
M  V30 33 1 6 32
M  V30 34 1 6 33
M  V30 35 1 7 34
M  V30 36 1 7 35
M  V30 37 1 9 36
M  V30 38 1 10 37
M  V30 39 1 11 38
M  V30 40 1 12 39
M  V30 41 1 13 40
M  V30 42 1 14 41 CFG=3
M  V30 43 1 15 42
M  V30 44 1 17 43
M  V30 45 1 18 44
M  V30 46 1 20 45
M  V30 47 1 21 46
M  V30 48 1 22 47
M  V30 END BOND
M  V30 END CTAB
M  END
>  <Dataset>  (948) 
ChEMBL_Kinases

>  <Ligand_Instance>  (948) 
nan

>  <PDB_ID>  (948) 
nan

>  <Standardized_SMILES>  (948) 
C[C@H](N[C@@H](C)CCc1ccccc1)[C@H](O)c1ccc(O)cc1

>  <Name>  (948) 
nan

>  <Pocket>  (948) 
nan

>  <ATP_Site>  (948) 
nan

>  <Peripheral>  (948) 
nan

>  <Num_H_Atoms_ProtBoundConf>  (948) 
nan

>  <Num_Resolved_Atoms>  (948) 
nan

>  <Num_Not_Resolved_Atoms>  (948) 
nan

$$$$
CHEMBL1320518
     RDKit          3D

  0  0  0  0  0  0  0  0  0  0999 V3000
M  V30 BEGIN CTAB
M  V30 COUNTS 30 32 0 0 0
M  V30 BEGIN ATOM
M  V30 1 O -0.448116 -1.883362 2.139699 0
M  V30 2 N 0.170677 -2.240709 1.118217 0 CHG=1 VAL=4
M  V30 3 O -0.880262 -2.878244 0.494930 0 CHG=-1 VAL=1
M  V30 4 C 1.544576 -1.968406 0.867264 0
M  V30 5 C 2.286656 -1.849584 2.025621 0
M  V30 6 C 3.647780 -1.620480 1.909798 0
M  V30 7 C 4.171103 -1.526380 0.635192 0
M  V30 8 C 3.432351 -1.643604 -0.527076 0
M  V30 9 C 2.057102 -1.874092 -0.407114 0
M  V30 10 C 1.199755 -1.950876 -1.625180 0
M  V30 11 S 0.440368 -0.357314 -2.016056 0
M  V30 12 C -0.646773 0.100246 -0.690013 0
M  V30 13 N 0.040381 0.811654 0.252346 0
M  V30 14 C -0.531348 1.287824 1.367593 0
M  V30 15 O 0.172355 2.019753 2.340625 0
M  V30 16 C -1.871406 1.052792 1.579457 0
M  V30 17 N -2.756801 1.359613 2.541560 0
M  V30 18 C -3.977862 0.848058 2.205477 0
M  V30 19 N -3.859368 0.208557 1.011989 0
M  V30 20 C -2.577171 0.334334 0.633151 0
M  V30 21 N -1.973936 -0.131264 -0.477907 0
M  V30 22 H 1.883949 -1.921678 3.022134 0
M  V30 23 H 4.259375 -1.521711 2.791623 0
M  V30 24 H 5.243438 -1.346537 0.583694 0
M  V30 25 H 3.864303 -1.566434 -1.510329 0
M  V30 26 H 0.359796 -2.655506 -1.466672 0
M  V30 27 H 1.776026 -2.351601 -2.494468 0
M  V30 28 H -0.303649 2.602610 3.000644 0
M  V30 29 H -4.909390 0.920576 2.773684 0
M  V30 30 H -4.611034 -0.275376 0.503021 0
M  V30 END ATOM
M  V30 BEGIN BOND
M  V30 1 2 1 2
M  V30 2 1 2 3
M  V30 3 1 2 4
M  V30 4 2 4 5
M  V30 5 1 5 6
M  V30 6 2 6 7
M  V30 7 1 7 8
M  V30 8 2 8 9
M  V30 9 1 9 10
M  V30 10 1 10 11
M  V30 11 1 11 12
M  V30 12 2 12 13
M  V30 13 1 13 14
M  V30 14 1 14 15
M  V30 15 2 14 16
M  V30 16 1 16 17
M  V30 17 2 17 18
M  V30 18 1 18 19
M  V30 19 1 19 20
M  V30 20 2 20 21
M  V30 21 1 9 4
M  V30 22 1 21 12
M  V30 23 1 20 16
M  V30 24 1 5 22
M  V30 25 1 6 23
M  V30 26 1 7 24
M  V30 27 1 8 25
M  V30 28 1 10 26
M  V30 29 1 10 27
M  V30 30 1 15 28
M  V30 31 1 18 29
M  V30 32 1 19 30
M  V30 END BOND
M  V30 END CTAB
M  END
>  <Dataset>  (949) 
ChEMBL_Kinases

>  <Ligand_Instance>  (949) 
nan

>  <PDB_ID>  (949) 
nan

>  <Standardized_SMILES>  (949) 
O=[N+]([O-])c1ccccc1CSc1nc(O)c2nc[nH]c2n1

>  <Name>  (949) 
nan

>  <Pocket>  (949) 
nan

>  <ATP_Site>  (949) 
nan

>  <Peripheral>  (949) 
nan

>  <Num_H_Atoms_ProtBoundConf>  (949) 
nan

>  <Num_Resolved_Atoms>  (949) 
nan

>  <Num_Not_Resolved_Atoms>  (949) 
nan

$$$$
CHEMBL1320525
     RDKit          3D

  0  0  0  0  0  0  0  0  0  0999 V3000
M  V30 BEGIN CTAB
M  V30 COUNTS 64 67 0 0 0
M  V30 BEGIN ATOM
M  V30 1 C 4.462591 -2.136475 2.255329 0
M  V30 2 O 3.236984 -1.436671 2.090705 0
M  V30 3 C 2.394907 -1.697233 1.020207 0
M  V30 4 O 2.879697 -2.608598 0.270187 0
M  V30 5 C 1.077289 -0.954683 0.824501 0 CFG=1
M  V30 6 C 0.932575 -0.572893 -0.581966 0
M  V30 7 C -0.226318 0.193775 -1.013727 0
M  V30 8 C 0.015961 1.581505 -1.000825 0
M  V30 9 C -0.896159 2.548689 -1.355719 0
M  V30 10 C -2.145346 2.179573 -1.758401 0
M  V30 11 F -3.079290 3.062122 -2.116030 0
M  V30 12 C -2.429297 0.835854 -1.789020 0
M  V30 13 C -1.499241 -0.110772 -1.429020 0
M  V30 14 C 0.057659 -2.011172 1.305829 0 CFG=2
M  V30 15 C 0.705443 -2.155872 2.678321 0
M  V30 16 C 1.258701 -3.336636 2.887390 0
M  V30 17 C 1.036577 -4.091714 1.663704 0
M  V30 18 O 1.545956 -5.240454 1.525801 0
M  V30 19 C 0.167648 -3.331052 0.674893 0 CFG=1
M  V30 20 C -1.147060 -4.082893 0.735390 0
M  V30 21 C -2.285615 -3.457994 0.075789 0
M  V30 22 O -2.918887 -2.604392 0.773151 0
M  V30 23 C -2.510958 -3.930522 -1.310921 0
M  V30 24 O -1.782700 -4.796240 -1.908363 0
M  V30 25 N -3.637314 -3.356887 -2.012405 0
M  V30 26 C -4.685515 -2.379791 -1.705895 0
M  V30 27 C -3.881853 -3.799345 -3.394400 0
M  V30 28 C 0.345699 -0.730899 3.038099 0
M  V30 29 N 0.856341 0.011211 1.850130 0
M  V30 30 C 0.914890 1.352132 2.206058 0
M  V30 31 O 0.491247 1.348503 3.416536 0
M  V30 32 C 1.183219 2.749095 1.984719 0
M  V30 33 C 0.156833 3.659000 1.896347 0
M  V30 34 C 0.441280 4.992938 1.671379 0
M  V30 35 C 1.773527 5.304752 1.551695 0
M  V30 36 C 2.817414 4.434845 1.634489 0
M  V30 37 C 2.512984 3.091310 1.861506 0
M  V30 38 H 4.407132 -2.992179 2.931092 0
M  V30 39 H 4.783981 -2.477543 1.240982 0
M  V30 40 H 5.241868 -1.389751 2.583291 0
M  V30 41 H 1.897652 -0.065092 -0.890380 0
M  V30 42 H 1.021575 -1.551165 -1.171284 0
M  V30 43 H 0.981348 2.019919 -0.717424 0
M  V30 44 H -0.691415 3.599599 -1.339755 0
M  V30 45 H -3.399378 0.505949 -2.100559 0
M  V30 46 H -1.643554 -1.175707 -1.436831 0
M  V30 47 H -0.934559 -1.613293 1.453060 0
M  V30 48 H 1.737912 -3.527941 3.833295 0
M  V30 49 H 0.615212 -3.363979 -0.329928 0
M  V30 50 H -0.921777 -5.108576 0.350654 0
M  V30 51 H -1.366681 -4.230911 1.836955 0
M  V30 52 H -5.693559 -2.852607 -1.868094 0
M  V30 53 H -4.652717 -2.039864 -0.654025 0
M  V30 54 H -4.565613 -1.550555 -2.423874 0
M  V30 55 H -3.829302 -2.891993 -4.034404 0
M  V30 56 H -4.892677 -4.247102 -3.433566 0
M  V30 57 H -3.121466 -4.555895 -3.689678 0
M  V30 58 H 0.840208 -0.434481 3.960339 0
M  V30 59 H -0.753278 -0.711594 3.082288 0
M  V30 60 H -0.862455 3.291503 2.009337 0
M  V30 61 H -0.363525 5.715191 1.600351 0
M  V30 62 H 2.009974 6.351506 1.370429 0
M  V30 63 H 3.859171 4.756001 1.533293 0
M  V30 64 H 3.366522 2.433068 1.922688 0
M  V30 END ATOM
M  V30 BEGIN BOND
M  V30 1 1 1 2
M  V30 2 1 2 3
M  V30 3 2 3 4
M  V30 4 1 3 5
M  V30 5 1 5 6 CFG=3
M  V30 6 1 6 7
M  V30 7 2 7 8
M  V30 8 1 8 9
M  V30 9 2 9 10
M  V30 10 1 10 11
M  V30 11 1 10 12
M  V30 12 2 12 13
M  V30 13 1 5 14
M  V30 14 1 14 15
M  V30 15 2 15 16
M  V30 16 1 16 17
M  V30 17 2 17 18
M  V30 18 1 17 19
M  V30 19 1 19 20
M  V30 20 1 20 21
M  V30 21 2 21 22
M  V30 22 1 21 23
M  V30 23 2 23 24
M  V30 24 1 23 25
M  V30 25 1 25 26
M  V30 26 1 25 27
M  V30 27 1 15 28
M  V30 28 1 28 29
M  V30 29 1 29 30
M  V30 30 2 30 31
M  V30 31 1 30 32
M  V30 32 2 32 33
M  V30 33 1 33 34
M  V30 34 2 34 35
M  V30 35 1 35 36
M  V30 36 2 36 37
M  V30 37 1 29 5
M  V30 38 1 37 32
M  V30 39 1 13 7
M  V30 40 1 19 14
M  V30 41 1 1 38
M  V30 42 1 1 39
M  V30 43 1 1 40
M  V30 44 1 6 41
M  V30 45 1 6 42
M  V30 46 1 8 43
M  V30 47 1 9 44
M  V30 48 1 12 45
M  V30 49 1 13 46
M  V30 50 1 14 47 CFG=1
M  V30 51 1 16 48
M  V30 52 1 19 49 CFG=3
M  V30 53 1 20 50
M  V30 54 1 20 51
M  V30 55 1 26 52
M  V30 56 1 26 53
M  V30 57 1 26 54
M  V30 58 1 27 55
M  V30 59 1 27 56
M  V30 60 1 27 57
M  V30 61 1 28 58
M  V30 62 1 28 59
M  V30 63 1 33 60
M  V30 64 1 34 61
M  V30 65 1 35 62
M  V30 66 1 36 63
M  V30 67 1 37 64
M  V30 END BOND
M  V30 END CTAB
M  END
>  <Dataset>  (950) 
ChEMBL_Kinases

>  <Ligand_Instance>  (950) 
nan

>  <PDB_ID>  (950) 
nan

>  <Standardized_SMILES>  (950) 
COC(=O)[C@@]1(Cc2ccc(F)cc2)[C@@H]2C(=CC(=O)[C@H]2CC(=O)C(=O)N(C)C)CN1C(=O)c1ccccc1

>  <Name>  (950) 
nan

>  <Pocket>  (950) 
nan

>  <ATP_Site>  (950) 
nan

>  <Peripheral>  (950) 
nan

>  <Num_H_Atoms_ProtBoundConf>  (950) 
nan

>  <Num_Resolved_Atoms>  (950) 
nan

>  <Num_Not_Resolved_Atoms>  (950) 
nan

$$$$
CHEMBL1320607
     RDKit          3D

  0  0  0  0  0  0  0  0  0  0999 V3000
M  V30 BEGIN CTAB
M  V30 COUNTS 51 54 0 0 0
M  V30 BEGIN ATOM
M  V30 1 C 0.812440 -5.912764 1.323596 0
M  V30 2 N 0.203361 -4.644772 0.925663 0
M  V30 3 C -1.123124 -4.627755 1.453773 0
M  V30 4 C -2.120574 -3.973409 0.532771 0
M  V30 5 N -1.425060 -2.902106 -0.157503 0
M  V30 6 C -1.601647 -1.486603 -0.092848 0
M  V30 7 N -0.540177 -0.735099 0.313572 0
M  V30 8 C -0.580197 0.601597 0.415438 0
M  V30 9 C 0.593858 1.359285 0.858596 0
M  V30 10 C 0.500834 2.734150 0.946829 0
M  V30 11 C 1.653861 3.364651 1.372290 0
M  V30 12 C 2.832235 2.722275 1.696492 0
M  V30 13 N 3.993957 3.408701 2.129560 0
M  V30 14 C 5.214177 2.690422 2.460686 0
M  V30 15 C 3.907853 4.863644 2.226932 0
M  V30 16 C 2.816088 1.347316 1.573098 0
M  V30 17 C 1.723770 0.624102 1.159216 0
M  V30 18 N -1.732097 1.227994 0.098191 0
M  V30 19 C -2.825149 0.564354 -0.310860 0
M  V30 20 C -4.023064 1.165009 -0.645148 0
M  V30 21 C -5.120537 0.417822 -1.062799 0
M  V30 22 C -5.039570 -0.955374 -1.154615 0
M  V30 23 C -3.836458 -1.554535 -0.818528 0
M  V30 24 C -2.756420 -0.809516 -0.406675 0
M  V30 25 C -0.362288 -3.341182 -1.076167 0
M  V30 26 C 0.301100 -4.551183 -0.502778 0
M  V30 27 H 0.185057 -6.776873 0.972191 0
M  V30 28 H 1.837342 -6.042917 0.953197 0
M  V30 29 H 0.864866 -5.993615 2.435808 0
M  V30 30 H -1.140396 -4.047069 2.407891 0
M  V30 31 H -1.517355 -5.635347 1.700438 0
M  V30 32 H -2.967127 -3.601394 1.139293 0
M  V30 33 H -2.403320 -4.733543 -0.216995 0
M  V30 34 H -0.405599 3.230293 0.697616 0
M  V30 35 H 1.609630 4.459053 1.452125 0
M  V30 36 H 5.996219 3.429728 2.697328 0
M  V30 37 H 5.023501 1.965369 3.282525 0
M  V30 38 H 5.522424 2.090425 1.558268 0
M  V30 39 H 4.903471 5.302674 2.378944 0
M  V30 40 H 3.497096 5.308917 1.310973 0
M  V30 41 H 3.252780 5.133296 3.086442 0
M  V30 42 H 3.754558 0.835726 1.831289 0
M  V30 43 H 1.728924 -0.453093 1.068273 0
M  V30 44 H -4.048182 2.239100 -0.561015 0
M  V30 45 H -6.041240 0.910763 -1.317042 0
M  V30 46 H -5.924362 -1.481313 -1.484772 0
M  V30 47 H -3.790959 -2.633649 -0.896527 0
M  V30 48 H 0.369612 -2.565731 -1.282003 0
M  V30 49 H -0.815639 -3.649308 -2.052156 0
M  V30 50 H 1.379977 -4.509882 -0.750489 0
M  V30 51 H -0.090745 -5.505342 -0.945721 0
M  V30 END ATOM
M  V30 BEGIN BOND
M  V30 1 1 1 2
M  V30 2 1 2 3
M  V30 3 1 3 4
M  V30 4 1 4 5
M  V30 5 1 5 6
M  V30 6 2 6 7
M  V30 7 1 7 8
M  V30 8 1 8 9
M  V30 9 2 9 10
M  V30 10 1 10 11
M  V30 11 2 11 12
M  V30 12 1 12 13
M  V30 13 1 13 14
M  V30 14 1 13 15
M  V30 15 1 12 16
M  V30 16 2 16 17
M  V30 17 2 8 18
M  V30 18 1 18 19
M  V30 19 2 19 20
M  V30 20 1 20 21
M  V30 21 2 21 22
M  V30 22 1 22 23
M  V30 23 2 23 24
M  V30 24 1 5 25
M  V30 25 1 25 26
M  V30 26 1 26 2
M  V30 27 1 24 6
M  V30 28 1 17 9
M  V30 29 1 24 19
M  V30 30 1 1 27
M  V30 31 1 1 28
M  V30 32 1 1 29
M  V30 33 1 3 30
M  V30 34 1 3 31
M  V30 35 1 4 32
M  V30 36 1 4 33
M  V30 37 1 10 34
M  V30 38 1 11 35
M  V30 39 1 14 36
M  V30 40 1 14 37
M  V30 41 1 14 38
M  V30 42 1 15 39
M  V30 43 1 15 40
M  V30 44 1 15 41
M  V30 45 1 16 42
M  V30 46 1 17 43
M  V30 47 1 20 44
M  V30 48 1 21 45
M  V30 49 1 22 46
M  V30 50 1 23 47
M  V30 51 1 25 48
M  V30 52 1 25 49
M  V30 53 1 26 50
M  V30 54 1 26 51
M  V30 END BOND
M  V30 END CTAB
M  END
>  <Dataset>  (951) 
ChEMBL_Kinases

>  <Ligand_Instance>  (951) 
nan

>  <PDB_ID>  (951) 
nan

>  <Standardized_SMILES>  (951) 
CN1CCN(c2nc(-c3ccc(N(C)C)cc3)nc3ccccc23)CC1

>  <Name>  (951) 
nan

>  <Pocket>  (951) 
nan

>  <ATP_Site>  (951) 
nan

>  <Peripheral>  (951) 
nan

>  <Num_H_Atoms_ProtBoundConf>  (951) 
nan

>  <Num_Resolved_Atoms>  (951) 
nan

>  <Num_Not_Resolved_Atoms>  (951) 
nan

$$$$
CHEMBL1321000
     RDKit          3D

  0  0  0  0  0  0  0  0  0  0999 V3000
M  V30 BEGIN CTAB
M  V30 COUNTS 31 33 0 0 0
M  V30 BEGIN ATOM
M  V30 1 O -2.068744 -1.113022 2.054870 0
M  V30 2 C -0.891970 -1.332870 1.649802 0
M  V30 3 C -0.476425 -2.557017 2.356391 0
M  V30 4 N 0.871886 -2.993167 2.060310 0
M  V30 5 C 2.016489 -2.661832 2.691991 0
M  V30 6 C 3.124893 -3.269316 2.151470 0
M  V30 7 C 2.613529 -4.031138 1.107328 0
M  V30 8 C 1.246916 -3.851792 1.066708 0
M  V30 9 N -0.301493 -0.445951 0.707315 0
M  V30 10 C 1.029355 -0.535250 0.130646 0
M  V30 11 C 1.135624 0.719501 -0.717061 0
M  V30 12 C -0.197565 1.360996 -0.602459 0
M  V30 13 C -0.609780 2.514068 -1.235979 0
M  V30 14 C -1.877770 3.027332 -1.060634 0
M  V30 15 C -2.721239 2.351366 -0.231667 0
M  V30 16 C -2.282938 1.205367 0.385885 0
M  V30 17 C -1.036553 0.654858 0.245775 0
M  V30 18 H -0.595091 -2.462545 3.461924 0
M  V30 19 H -1.190984 -3.369627 2.062589 0
M  V30 20 H 2.092142 -1.990021 3.540534 0
M  V30 21 H 4.145975 -3.178588 2.460762 0
M  V30 22 H 3.235370 -4.642635 0.468122 0
M  V30 23 H 0.593855 -4.323943 0.354901 0
M  V30 24 H 1.824734 -0.455817 0.883452 0
M  V30 25 H 1.146883 -1.435041 -0.477509 0
M  V30 26 H 1.320488 0.413241 -1.748291 0
M  V30 27 H 1.880118 1.431797 -0.347305 0
M  V30 28 H 0.054266 3.054430 -1.894206 0
M  V30 29 H -2.211945 3.928216 -1.550440 0
M  V30 30 H -3.714632 2.740389 -0.085077 0
M  V30 31 H -3.000756 0.723699 1.025316 0
M  V30 END ATOM
M  V30 BEGIN BOND
M  V30 1 2 1 2
M  V30 2 1 2 3
M  V30 3 1 3 4
M  V30 4 1 4 5
M  V30 5 2 5 6
M  V30 6 1 6 7
M  V30 7 2 7 8
M  V30 8 1 2 9
M  V30 9 1 9 10
M  V30 10 1 10 11
M  V30 11 1 11 12
M  V30 12 2 12 13
M  V30 13 1 13 14
M  V30 14 2 14 15
M  V30 15 1 15 16
M  V30 16 2 16 17
M  V30 17 1 8 4
M  V30 18 1 17 9
M  V30 19 1 17 12
M  V30 20 1 3 18
M  V30 21 1 3 19
M  V30 22 1 5 20
M  V30 23 1 6 21
M  V30 24 1 7 22
M  V30 25 1 8 23
M  V30 26 1 10 24
M  V30 27 1 10 25
M  V30 28 1 11 26
M  V30 29 1 11 27
M  V30 30 1 13 28
M  V30 31 1 14 29
M  V30 32 1 15 30
M  V30 33 1 16 31
M  V30 END BOND
M  V30 END CTAB
M  END
>  <Dataset>  (952) 
ChEMBL_Kinases

>  <Ligand_Instance>  (952) 
nan

>  <PDB_ID>  (952) 
nan

>  <Standardized_SMILES>  (952) 
O=C(Cn1cccc1)N1CCc2ccccc21

>  <Name>  (952) 
nan

>  <Pocket>  (952) 
nan

>  <ATP_Site>  (952) 
nan

>  <Peripheral>  (952) 
nan

>  <Num_H_Atoms_ProtBoundConf>  (952) 
nan

>  <Num_Resolved_Atoms>  (952) 
nan

>  <Num_Not_Resolved_Atoms>  (952) 
nan

$$$$
CHEMBL1321033
     RDKit          3D

  0  0  0  0  0  0  0  0  0  0999 V3000
M  V30 BEGIN CTAB
M  V30 COUNTS 36 38 0 0 0
M  V30 BEGIN ATOM
M  V30 1 C -1.109375 -1.638173 4.136826 0
M  V30 2 C -0.501209 -2.443021 3.049888 0
M  V30 3 O -0.424074 -3.661616 3.351310 0
M  V30 4 C -0.022851 -1.961144 1.754093 0
M  V30 5 C 0.502461 -2.917258 0.903768 0
M  V30 6 C 0.707123 -4.371466 1.016043 0
M  V30 7 C 0.881256 -2.240618 -0.264835 0
M  V30 8 C 1.499123 -2.706058 -1.535768 0
M  V30 9 C 0.562386 -0.930091 -0.045751 0
M  V30 10 N 0.016616 -0.736612 1.166015 0
M  V30 11 C -0.450915 0.425380 1.865620 0
M  V30 12 C -0.412458 1.641116 1.007244 0
M  V30 13 N 0.201463 1.367345 -0.255882 0
M  V30 14 C 0.383755 2.389113 -1.130942 0
M  V30 15 C 0.097999 3.869413 -1.123346 0
M  V30 16 C 0.970956 1.931823 -2.290552 0
M  V30 17 C 1.156992 0.567867 -2.117957 0
M  V30 18 C 0.674003 0.268196 -0.864286 0
M  V30 19 H -2.176805 -1.380411 3.900681 0
M  V30 20 H -1.153281 -2.209682 5.111382 0
M  V30 21 H -0.534196 -0.727376 4.393383 0
M  V30 22 H -0.294727 -4.868821 1.130032 0
M  V30 23 H 1.232694 -4.825526 0.175154 0
M  V30 24 H 1.224814 -4.577630 1.983471 0
M  V30 25 H 0.877854 -2.426142 -2.418006 0
M  V30 26 H 2.501824 -2.330444 -1.722526 0
M  V30 27 H 1.521561 -3.813087 -1.545092 0
M  V30 28 H -1.451839 0.255763 2.330817 0
M  V30 29 H 0.309755 0.635278 2.693197 0
M  V30 30 H 0.050827 2.519792 1.523628 0
M  V30 31 H -1.502045 1.881905 0.778517 0
M  V30 32 H -0.844452 4.059856 -1.654528 0
M  V30 33 H 0.953919 4.462019 -1.443696 0
M  V30 34 H -0.110286 4.163148 -0.055112 0
M  V30 35 H 1.289882 2.368289 -3.223605 0
M  V30 36 H 1.584915 -0.167997 -2.784200 0
M  V30 END ATOM
M  V30 BEGIN BOND
M  V30 1 1 1 2
M  V30 2 2 2 3
M  V30 3 1 2 4
M  V30 4 2 4 5
M  V30 5 1 5 6
M  V30 6 1 5 7
M  V30 7 1 7 8
M  V30 8 2 7 9
M  V30 9 1 9 10
M  V30 10 1 10 11
M  V30 11 1 11 12
M  V30 12 1 12 13
M  V30 13 1 13 14
M  V30 14 1 14 15
M  V30 15 2 14 16
M  V30 16 1 16 17
M  V30 17 2 17 18
M  V30 18 1 10 4
M  V30 19 1 18 13
M  V30 20 1 18 9
M  V30 21 1 1 19
M  V30 22 1 1 20
M  V30 23 1 1 21
M  V30 24 1 6 22
M  V30 25 1 6 23
M  V30 26 1 6 24
M  V30 27 1 8 25
M  V30 28 1 8 26
M  V30 29 1 8 27
M  V30 30 1 11 28
M  V30 31 1 11 29
M  V30 32 1 12 30
M  V30 33 1 12 31
M  V30 34 1 15 32
M  V30 35 1 15 33
M  V30 36 1 15 34
M  V30 37 1 16 35
M  V30 38 1 17 36
M  V30 END BOND
M  V30 END CTAB
M  END
>  <Dataset>  (953) 
ChEMBL_Kinases

>  <Ligand_Instance>  (953) 
nan

>  <PDB_ID>  (953) 
nan

>  <Standardized_SMILES>  (953) 
CC(=O)c1c(C)c(C)c2n1CCn1c(C)ccc1-2

>  <Name>  (953) 
nan

>  <Pocket>  (953) 
nan

>  <ATP_Site>  (953) 
nan

>  <Peripheral>  (953) 
nan

>  <Num_H_Atoms_ProtBoundConf>  (953) 
nan

>  <Num_Resolved_Atoms>  (953) 
nan

>  <Num_Not_Resolved_Atoms>  (953) 
nan

$$$$
CHEMBL1322216
     RDKit          3D

  0  0  0  0  0  0  0  0  0  0999 V3000
M  V30 BEGIN CTAB
M  V30 COUNTS 51 54 0 0 0
M  V30 BEGIN ATOM
M  V30 1 C -1.088824 -5.495631 -3.191475 0
M  V30 2 O -0.589011 -4.263449 -2.710617 0
M  V30 3 C 0.552180 -4.227057 -1.913556 0
M  V30 4 C 1.166851 -5.435879 -1.617306 0
M  V30 5 C 2.297337 -5.486034 -0.836765 0
M  V30 6 C 2.783948 -4.272428 -0.366927 0
M  V30 7 C 2.181833 -3.044476 -0.652469 0
M  V30 8 C 2.799557 -1.841694 -0.091258 0
M  V30 9 C 4.185036 -1.782828 0.098933 0
M  V30 10 C 4.674893 -0.610029 0.634356 0
M  V30 11 C 3.909657 0.481277 0.986142 0
M  V30 12 N 4.471340 1.592393 1.505901 0
M  V30 13 C 3.640483 2.615134 1.822718 0
M  V30 14 N 2.308554 2.521475 1.624677 0
M  V30 15 C 1.723419 1.428898 1.109568 0
M  V30 16 N 0.311337 1.421449 0.935420 0
M  V30 17 C -0.473001 2.581881 1.315490 0
M  V30 18 C -1.943204 2.430217 1.061306 0
M  V30 19 N -2.564312 1.335904 1.759899 0
M  V30 20 C -3.962538 1.203361 1.513842 0
M  V30 21 C -4.784810 1.899123 2.585668 0
M  V30 22 O -4.659391 1.144600 3.748018 0
M  V30 23 C -3.397165 0.625530 3.918842 0
M  V30 24 C -2.340206 1.441689 3.182360 0
M  V30 25 C 2.549048 0.375903 0.779953 0
M  V30 26 C 2.006842 -0.766409 0.250520 0
M  V30 27 C 1.049428 -3.036901 -1.439012 0
M  V30 28 H -0.491833 -5.950107 -3.984162 0
M  V30 29 H -1.182945 -6.228353 -2.342693 0
M  V30 30 H -2.115371 -5.369674 -3.589588 0
M  V30 31 H 0.821516 -6.406364 -1.961559 0
M  V30 32 H 2.837930 -6.388284 -0.558507 0
M  V30 33 H 3.685760 -4.284927 0.258920 0
M  V30 34 H 4.827719 -2.615689 -0.162397 0
M  V30 35 H 5.747813 -0.495015 0.809873 0
M  V30 36 H 3.986511 3.543856 2.242835 0
M  V30 37 H -0.263749 0.645070 0.547900 0
M  V30 38 H -0.136497 3.409531 0.623196 0
M  V30 39 H -0.237582 2.959075 2.320481 0
M  V30 40 H -2.414377 3.371016 1.455992 0
M  V30 41 H -2.179769 2.444261 -0.018384 0
M  V30 42 H -4.218389 0.123529 1.578779 0
M  V30 43 H -4.271693 1.520597 0.494752 0
M  V30 44 H -4.458823 2.956804 2.713142 0
M  V30 45 H -5.836805 1.931607 2.235352 0
M  V30 46 H -3.152696 0.717499 4.996004 0
M  V30 47 H -3.316099 -0.442438 3.654446 0
M  V30 48 H -1.345554 1.047774 3.480555 0
M  V30 49 H -2.390280 2.491084 3.493539 0
M  V30 50 H 0.965663 -0.864013 0.085442 0
M  V30 51 H 0.577973 -2.079566 -1.663488 0
M  V30 END ATOM
M  V30 BEGIN BOND
M  V30 1 1 1 2
M  V30 2 1 2 3
M  V30 3 2 3 4
M  V30 4 1 4 5
M  V30 5 2 5 6
M  V30 6 1 6 7
M  V30 7 1 7 8
M  V30 8 2 8 9
M  V30 9 1 9 10
M  V30 10 2 10 11
M  V30 11 1 11 12
M  V30 12 2 12 13
M  V30 13 1 13 14
M  V30 14 2 14 15
M  V30 15 1 15 16
M  V30 16 1 16 17
M  V30 17 1 17 18
M  V30 18 1 18 19
M  V30 19 1 19 20
M  V30 20 1 20 21
M  V30 21 1 21 22
M  V30 22 1 22 23
M  V30 23 1 23 24
M  V30 24 1 15 25
M  V30 25 2 25 26
M  V30 26 2 7 27
M  V30 27 1 27 3
M  V30 28 1 26 8
M  V30 29 1 25 11
M  V30 30 1 24 19
M  V30 31 1 1 28
M  V30 32 1 1 29
M  V30 33 1 1 30
M  V30 34 1 4 31
M  V30 35 1 5 32
M  V30 36 1 6 33
M  V30 37 1 9 34
M  V30 38 1 10 35
M  V30 39 1 13 36
M  V30 40 1 16 37
M  V30 41 1 17 38
M  V30 42 1 17 39
M  V30 43 1 18 40
M  V30 44 1 18 41
M  V30 45 1 20 42
M  V30 46 1 20 43
M  V30 47 1 21 44
M  V30 48 1 21 45
M  V30 49 1 23 46
M  V30 50 1 23 47
M  V30 51 1 24 48
M  V30 52 1 24 49
M  V30 53 1 26 50
M  V30 54 1 27 51
M  V30 END BOND
M  V30 END CTAB
M  END
>  <Dataset>  (954) 
ChEMBL_Kinases

>  <Ligand_Instance>  (954) 
nan

>  <PDB_ID>  (954) 
nan

>  <Standardized_SMILES>  (954) 
COc1cccc(-c2ccc3ncnc(NCCN4CCOCC4)c3c2)c1

>  <Name>  (954) 
nan

>  <Pocket>  (954) 
nan

>  <ATP_Site>  (954) 
nan

>  <Peripheral>  (954) 
nan

>  <Num_H_Atoms_ProtBoundConf>  (954) 
nan

>  <Num_Resolved_Atoms>  (954) 
nan

>  <Num_Not_Resolved_Atoms>  (954) 
nan

$$$$
CHEMBL1321118
     RDKit          3D

  0  0  0  0  0  0  0  0  0  0999 V3000
M  V30 BEGIN CTAB
M  V30 COUNTS 35 38 0 0 0
M  V30 BEGIN ATOM
M  V30 1 O -0.924302 -1.516932 0.814624 0
M  V30 2 C 0.034696 -0.705128 0.664686 0
M  V30 3 C 1.276893 -1.268688 0.470500 0
M  V30 4 C 1.482830 -2.715133 0.438341 0
M  V30 5 C 0.898841 -3.563919 1.375158 0
M  V30 6 C 1.148790 -4.934988 1.270430 0
M  V30 7 C 1.948843 -5.443645 0.272503 0
M  V30 8 C 2.534050 -4.613587 -0.662770 0
M  V30 9 C 2.292640 -3.241153 -0.569851 0
M  V30 10 N 2.296794 -0.382204 0.311040 0
M  V30 11 C 2.083784 0.945184 0.344313 0
M  V30 12 C 3.109994 1.851223 0.183870 0
M  V30 13 N 2.879663 3.191145 0.219856 0
M  V30 14 C 1.605080 3.631642 0.419106 0
M  V30 15 N 0.564543 2.773437 0.581786 0
M  V30 16 C 0.789160 1.426620 0.546694 0
M  V30 17 N -0.258941 0.592499 0.710563 0
M  V30 18 C -1.593594 1.044012 0.919210 0
M  V30 19 C -2.446738 0.561929 -0.079612 0
M  V30 20 C -3.796906 0.900443 -0.042272 0
M  V30 21 C -4.205471 1.706229 1.002259 0
M  V30 22 C -3.388691 2.200202 2.006156 0
M  V30 23 C -2.054389 1.836141 1.925887 0
M  V30 24 H 0.282610 -3.092208 2.130137 0
M  V30 25 H 0.650282 -5.492114 2.041534 0
M  V30 26 H 2.092035 -6.526429 0.263285 0
M  V30 27 H 3.161438 -5.026198 -1.442981 0
M  V30 28 H 2.776413 -2.628216 -1.330499 0
M  V30 29 H 4.111022 1.463634 0.027380 0
M  V30 30 H 1.533547 4.711917 0.430272 0
M  V30 31 H -2.165730 -0.073359 -0.917131 0
M  V30 32 H -4.495089 0.553249 -0.790140 0
M  V30 33 H -5.251456 1.983018 1.052560 0
M  V30 34 H -3.752426 2.822863 2.796953 0
M  V30 35 H -1.326054 2.157055 2.645441 0
M  V30 END ATOM
M  V30 BEGIN BOND
M  V30 1 2 1 2
M  V30 2 1 2 3
M  V30 3 1 3 4
M  V30 4 2 4 5
M  V30 5 1 5 6
M  V30 6 2 6 7
M  V30 7 1 7 8
M  V30 8 2 8 9
M  V30 9 2 3 10
M  V30 10 1 10 11
M  V30 11 2 11 12
M  V30 12 1 12 13
M  V30 13 2 13 14
M  V30 14 1 14 15
M  V30 15 2 15 16
M  V30 16 1 16 17
M  V30 17 1 17 18
M  V30 18 2 18 19
M  V30 19 1 19 20
M  V30 20 2 20 21
M  V30 21 1 21 22
M  V30 22 2 22 23
M  V30 23 1 17 2
M  V30 24 1 23 18
M  V30 25 1 9 4
M  V30 26 1 16 11
M  V30 27 1 5 24
M  V30 28 1 6 25
M  V30 29 1 7 26
M  V30 30 1 8 27
M  V30 31 1 9 28
M  V30 32 1 12 29
M  V30 33 1 14 30
M  V30 34 1 19 31
M  V30 35 1 20 32
M  V30 36 1 21 33
M  V30 37 1 22 34
M  V30 38 1 23 35
M  V30 END BOND
M  V30 END CTAB
M  END
>  <Dataset>  (955) 
ChEMBL_Kinases

>  <Ligand_Instance>  (955) 
nan

>  <PDB_ID>  (955) 
nan

>  <Standardized_SMILES>  (955) 
O=c1c(-c2ccccc2)nc2cncnc2n1-c1ccccc1

>  <Name>  (955) 
nan

>  <Pocket>  (955) 
nan

>  <ATP_Site>  (955) 
nan

>  <Peripheral>  (955) 
nan

>  <Num_H_Atoms_ProtBoundConf>  (955) 
nan

>  <Num_Resolved_Atoms>  (955) 
nan

>  <Num_Not_Resolved_Atoms>  (955) 
nan

$$$$
CHEMBL1321142
     RDKit          3D

  0  0  0  0  0  0  0  0  0  0999 V3000
M  V30 BEGIN CTAB
M  V30 COUNTS 59 62 0 0 0
M  V30 BEGIN ATOM
M  V30 1 C 0.761051 0.901573 4.392258 0
M  V30 2 O 1.337443 0.650873 3.119979 0
M  V30 3 C 2.537513 0.002951 2.965572 0
M  V30 4 C 3.353097 -0.492459 3.951460 0
M  V30 5 C 4.544779 -1.131149 3.706297 0
M  V30 6 C 4.941176 -1.281380 2.393775 0
M  V30 7 C 4.128424 -0.785640 1.371150 0
M  V30 8 C 2.921614 -0.141317 1.667493 0
M  V30 9 N 2.288031 0.265003 0.460162 0
M  V30 10 C 2.026888 1.678488 0.274214 0
M  V30 11 C 1.178563 1.998660 -0.909301 0
M  V30 12 N 0.438382 0.882552 -1.305918 0
M  V30 13 C -0.928924 0.828822 -1.228101 0
M  V30 14 C -1.434506 0.966519 0.153492 0
M  V30 15 C -1.325739 1.881783 1.216498 0
M  V30 16 C -1.942010 1.645538 2.375787 0
M  V30 17 C -2.713768 0.458869 2.534363 0
M  V30 18 S -2.516983 -0.346772 0.885222 0
M  V30 19 C -1.634702 -0.284600 -1.910343 0
M  V30 20 C -1.334700 -0.258219 -3.405965 0
M  V30 21 N -1.543658 -1.586084 -1.353236 0
M  V30 22 C -2.715163 -2.394055 -1.246296 0
M  V30 23 O -3.847484 -1.953410 -1.655740 0
M  V30 24 C -2.782366 -3.743351 -0.693316 0
M  V30 25 C -3.991233 -4.399880 -0.656124 0
M  V30 26 C -4.068606 -5.695346 -0.127676 0
M  V30 27 C -2.965335 -6.358094 0.367976 0
M  V30 28 N -1.796178 -5.694789 0.320045 0
M  V30 29 C -1.716100 -4.452519 -0.185511 0
M  V30 30 C 1.232226 -0.210142 -1.704439 0
M  V30 31 C 1.954154 -0.756110 -0.491186 0
M  V30 32 H 0.030629 0.094812 4.594181 0
M  V30 33 H 1.516700 1.004660 5.201667 0
M  V30 34 H 0.197226 1.864591 4.317820 0
M  V30 35 H 3.013238 -0.358353 4.966652 0
M  V30 36 H 5.144735 -1.501221 4.544332 0
M  V30 37 H 5.877290 -1.785431 2.245804 0
M  V30 38 H 4.576739 -0.981255 0.396462 0
M  V30 39 H 3.010512 2.206537 0.145280 0
M  V30 40 H 1.531849 2.051100 1.189017 0
M  V30 41 H 1.889979 2.215754 -1.792044 0
M  V30 42 H 0.589516 2.902279 -0.783741 0
M  V30 43 H -1.300498 1.756667 -1.786383 0
M  V30 44 H -0.742613 2.772625 1.070541 0
M  V30 45 H -1.910805 2.291413 3.236939 0
M  V30 46 H -3.283615 0.148874 3.473654 0
M  V30 47 H -2.739504 -0.032349 -1.881327 0
M  V30 48 H -2.208935 0.053524 -4.013677 0
M  V30 49 H -1.058053 -1.258379 -3.795263 0
M  V30 50 H -0.569747 0.523837 -3.581150 0
M  V30 51 H -0.739838 -2.127229 -0.970452 0
M  V30 52 H -4.921915 -3.984916 -1.013594 0
M  V30 53 H -5.026193 -6.207852 -0.101551 0
M  V30 54 H -3.066556 -7.359295 0.768193 0
M  V30 55 H -0.742801 -3.989809 -0.187827 0
M  V30 56 H 2.065357 0.245419 -2.326488 0
M  V30 57 H 0.811693 -0.971257 -2.336002 0
M  V30 58 H 1.395262 -1.580449 -0.051731 0
M  V30 59 H 2.943329 -1.205553 -0.802353 0
M  V30 END ATOM
M  V30 BEGIN BOND
M  V30 1 1 1 2
M  V30 2 1 2 3
M  V30 3 2 3 4
M  V30 4 1 4 5
M  V30 5 2 5 6
M  V30 6 1 6 7
M  V30 7 2 7 8
M  V30 8 1 8 9
M  V30 9 1 9 10
M  V30 10 1 10 11
M  V30 11 1 11 12
M  V30 12 1 12 13
M  V30 13 1 13 14
M  V30 14 2 14 15
M  V30 15 1 15 16
M  V30 16 2 16 17
M  V30 17 1 17 18
M  V30 18 1 13 19
M  V30 19 1 19 20
M  V30 20 1 19 21
M  V30 21 1 21 22
M  V30 22 2 22 23
M  V30 23 1 22 24
M  V30 24 2 24 25
M  V30 25 1 25 26
M  V30 26 2 26 27
M  V30 27 1 27 28
M  V30 28 2 28 29
M  V30 29 1 12 30
M  V30 30 1 30 31
M  V30 31 1 8 3
M  V30 32 1 31 9
M  V30 33 1 18 14
M  V30 34 1 29 24
M  V30 35 1 1 32
M  V30 36 1 1 33
M  V30 37 1 1 34
M  V30 38 1 4 35
M  V30 39 1 5 36
M  V30 40 1 6 37
M  V30 41 1 7 38
M  V30 42 1 10 39
M  V30 43 1 10 40
M  V30 44 1 11 41
M  V30 45 1 11 42
M  V30 46 1 13 43
M  V30 47 1 15 44
M  V30 48 1 16 45
M  V30 49 1 17 46
M  V30 50 1 19 47
M  V30 51 1 20 48
M  V30 52 1 20 49
M  V30 53 1 20 50
M  V30 54 1 21 51
M  V30 55 1 25 52
M  V30 56 1 26 53
M  V30 57 1 27 54
M  V30 58 1 29 55
M  V30 59 1 30 56
M  V30 60 1 30 57
M  V30 61 1 31 58
M  V30 62 1 31 59
M  V30 END BOND
M  V30 END CTAB
M  END
>  <Dataset>  (956) 
ChEMBL_Kinases

>  <Ligand_Instance>  (956) 
nan

>  <PDB_ID>  (956) 
nan

>  <Standardized_SMILES>  (956) 
COc1ccccc1N1CCN(C(c2cccs2)C(C)NC(=O)c2cccnc2)CC1

>  <Name>  (956) 
nan

>  <Pocket>  (956) 
nan

>  <ATP_Site>  (956) 
nan

>  <Peripheral>  (956) 
nan

>  <Num_H_Atoms_ProtBoundConf>  (956) 
nan

>  <Num_Resolved_Atoms>  (956) 
nan

>  <Num_Not_Resolved_Atoms>  (956) 
nan

$$$$
CHEMBL1321268
     RDKit          3D

  0  0  0  0  0  0  0  0  0  0999 V3000
M  V30 BEGIN CTAB
M  V30 COUNTS 35 36 0 0 0
M  V30 BEGIN ATOM
M  V30 1 C 1.403807 -3.966439 4.619512 0
M  V30 2 C 0.841077 -3.675613 3.275911 0
M  V30 3 C -0.325607 -2.950469 3.175524 0
M  V30 4 C -0.877290 -2.661340 1.946037 0
M  V30 5 C -0.309768 -3.069981 0.757669 0
M  V30 6 C -0.750714 -2.844233 -0.621354 0
M  V30 7 O -0.223043 -1.763313 -1.284668 0
M  V30 8 C -0.235732 -0.435128 -1.077130 0
M  V30 9 C 0.489860 0.198228 -2.101932 0
M  V30 10 C 0.649966 1.591620 -2.150950 0
M  V30 11 C 0.076161 2.360676 -1.161122 0
M  V30 12 C 0.240244 3.809304 -1.208312 0
M  V30 13 O 0.896420 4.339970 -2.140438 0
M  V30 14 N -0.293179 4.715539 -0.261601 0
M  V30 15 N -0.118154 6.098489 -0.334864 0
M  V30 16 C -0.641288 1.774744 -0.142253 0
M  V30 17 C -0.775110 0.406461 -0.130165 0
M  V30 18 C 0.864533 -3.797049 0.924799 0
M  V30 19 C 1.460958 -4.115642 2.125795 0
M  V30 20 H 0.611635 -4.166125 5.381907 0
M  V30 21 H 1.972745 -3.071975 5.002655 0
M  V30 22 H 2.140027 -4.792468 4.593213 0
M  V30 23 H -0.821704 -2.599637 4.066902 0
M  V30 24 H -1.795269 -2.100007 1.838955 0
M  V30 25 H -1.872450 -2.866579 -0.610755 0
M  V30 26 H -0.495744 -3.780068 -1.209625 0
M  V30 27 H 1.000884 -0.273490 -2.953360 0
M  V30 28 H 1.200706 2.106950 -2.923914 0
M  V30 29 H -0.847680 4.337717 0.536066 0
M  V30 30 H -1.046517 6.566044 -0.129081 0
M  V30 31 H 0.127540 6.417870 -1.293942 0
M  V30 32 H -1.110623 2.326381 0.656414 0
M  V30 33 H -1.313909 -0.138216 0.615103 0
M  V30 34 H 1.406398 -4.175575 0.054169 0
M  V30 35 H 2.364983 -4.678096 2.194124 0
M  V30 END ATOM
M  V30 BEGIN BOND
M  V30 1 1 1 2
M  V30 2 2 2 3
M  V30 3 1 3 4
M  V30 4 2 4 5
M  V30 5 1 5 6
M  V30 6 1 6 7
M  V30 7 1 7 8
M  V30 8 2 8 9
M  V30 9 1 9 10
M  V30 10 2 10 11
M  V30 11 1 11 12
M  V30 12 2 12 13
M  V30 13 1 12 14
M  V30 14 1 14 15
M  V30 15 1 11 16
M  V30 16 2 16 17
M  V30 17 1 5 18
M  V30 18 2 18 19
M  V30 19 1 19 2
M  V30 20 1 17 8
M  V30 21 1 1 20
M  V30 22 1 1 21
M  V30 23 1 1 22
M  V30 24 1 3 23
M  V30 25 1 4 24
M  V30 26 1 6 25
M  V30 27 1 6 26
M  V30 28 1 9 27
M  V30 29 1 10 28
M  V30 30 1 14 29
M  V30 31 1 15 30
M  V30 32 1 15 31
M  V30 33 1 16 32
M  V30 34 1 17 33
M  V30 35 1 18 34
M  V30 36 1 19 35
M  V30 END BOND
M  V30 END CTAB
M  END
>  <Dataset>  (957) 
ChEMBL_Kinases

>  <Ligand_Instance>  (957) 
nan

>  <PDB_ID>  (957) 
nan

>  <Standardized_SMILES>  (957) 
Cc1ccc(COc2ccc(C(=O)NN)cc2)cc1

>  <Name>  (957) 
nan

>  <Pocket>  (957) 
nan

>  <ATP_Site>  (957) 
nan

>  <Peripheral>  (957) 
nan

>  <Num_H_Atoms_ProtBoundConf>  (957) 
nan

>  <Num_Resolved_Atoms>  (957) 
nan

>  <Num_Not_Resolved_Atoms>  (957) 
nan

$$$$
CHEMBL1321421
     RDKit          3D

  0  0  0  0  0  0  0  0  0  0999 V3000
M  V30 BEGIN CTAB
M  V30 COUNTS 43 45 0 0 0
M  V30 BEGIN ATOM
M  V30 1 C 0.069904 -6.309145 2.972397 0
M  V30 2 C 0.235251 -4.850315 2.721183 0
M  V30 3 C -0.135300 -4.402108 1.470840 0
M  V30 4 C 0.020613 -3.032127 1.237553 0
M  V30 5 C 0.515406 -2.101744 2.162326 0
M  V30 6 C 0.613669 -0.741524 1.723810 0
M  V30 7 N 1.210656 -0.501286 0.544286 0
M  V30 8 N 1.214300 0.815920 0.279209 0
M  V30 9 C 1.773673 1.446274 -0.904379 0
M  V30 10 C 0.783104 1.578114 -2.031891 0
M  V30 11 C 0.290512 0.228535 -2.439235 0
M  V30 12 C -0.358590 2.506951 -1.691632 0
M  V30 13 C 1.531366 2.230712 -3.176359 0
M  V30 14 C 0.619446 1.496090 1.273208 0
M  V30 15 N 0.332290 2.779616 1.556505 0
M  V30 16 C -0.317314 3.008249 2.731698 0
M  V30 17 N -0.693403 2.062980 3.626932 0
M  V30 18 C -0.407762 0.779100 3.346929 0
M  V30 19 N -0.803413 -0.214573 4.260030 0
M  V30 20 C 0.249711 0.512347 2.166377 0
M  V30 21 C 0.851077 -2.663435 3.369138 0
M  V30 22 C 0.725863 -3.998830 3.671813 0
M  V30 23 H -1.016550 -6.526699 3.033878 0
M  V30 24 H 0.553417 -6.540908 3.922629 0
M  V30 25 H 0.487734 -6.855018 2.103697 0
M  V30 26 H -0.524113 -5.028776 0.693354 0
M  V30 27 H -0.278134 -2.687720 0.237673 0
M  V30 28 H 2.259992 2.419361 -0.664228 0
M  V30 29 H 2.596883 0.813174 -1.300629 0
M  V30 30 H 1.193393 -0.382841 -2.689895 0
M  V30 31 H -0.311132 -0.232283 -1.649585 0
M  V30 32 H -0.312640 0.346896 -3.364078 0
M  V30 33 H -0.833845 2.821061 -2.644350 0
M  V30 34 H -1.124535 1.893020 -1.157862 0
M  V30 35 H -0.045653 3.398960 -1.152122 0
M  V30 36 H 2.151661 3.053166 -2.719708 0
M  V30 37 H 2.266637 1.493502 -3.547303 0
M  V30 38 H 0.856883 2.618231 -3.956059 0
M  V30 39 H -0.517911 4.072666 2.896441 0
M  V30 40 H -0.528848 -0.367125 5.259894 0
M  V30 41 H -1.482205 -0.950793 3.947792 0
M  V30 42 H 1.246741 -2.009663 4.113666 0
M  V30 43 H 1.016134 -4.357394 4.654844 0
M  V30 END ATOM
M  V30 BEGIN BOND
M  V30 1 1 1 2
M  V30 2 2 2 3
M  V30 3 1 3 4
M  V30 4 2 4 5
M  V30 5 1 5 6
M  V30 6 2 6 7
M  V30 7 1 7 8
M  V30 8 1 8 9
M  V30 9 1 9 10
M  V30 10 1 10 11
M  V30 11 1 10 12
M  V30 12 1 10 13
M  V30 13 1 8 14
M  V30 14 2 14 15
M  V30 15 1 15 16
M  V30 16 2 16 17
M  V30 17 1 17 18
M  V30 18 1 18 19
M  V30 19 2 18 20
M  V30 20 1 5 21
M  V30 21 2 21 22
M  V30 22 1 22 2
M  V30 23 1 20 6
M  V30 24 1 20 14
M  V30 25 1 1 23
M  V30 26 1 1 24
M  V30 27 1 1 25
M  V30 28 1 3 26
M  V30 29 1 4 27
M  V30 30 1 9 28
M  V30 31 1 9 29
M  V30 32 1 11 30
M  V30 33 1 11 31
M  V30 34 1 11 32
M  V30 35 1 12 33
M  V30 36 1 12 34
M  V30 37 1 12 35
M  V30 38 1 13 36
M  V30 39 1 13 37
M  V30 40 1 13 38
M  V30 41 1 16 39
M  V30 42 1 19 40
M  V30 43 1 19 41
M  V30 44 1 21 42
M  V30 45 1 22 43
M  V30 END BOND
M  V30 END CTAB
M  END
>  <Dataset>  (958) 
ChEMBL_Kinases

>  <Ligand_Instance>  (958) 
nan

>  <PDB_ID>  (958) 
nan

>  <Standardized_SMILES>  (958) 
Cc1ccc(-c2nn(CC(C)(C)C)c3ncnc(N)c23)cc1

>  <Name>  (958) 
nan

>  <Pocket>  (958) 
nan

>  <ATP_Site>  (958) 
nan

>  <Peripheral>  (958) 
nan

>  <Num_H_Atoms_ProtBoundConf>  (958) 
nan

>  <Num_Resolved_Atoms>  (958) 
nan

>  <Num_Not_Resolved_Atoms>  (958) 
nan

$$$$
CHEMBL1321438
     RDKit          3D

  0  0  0  0  0  0  0  0  0  0999 V3000
M  V30 BEGIN CTAB
M  V30 COUNTS 35 36 0 0 0
M  V30 BEGIN ATOM
M  V30 1 C 3.694866 -3.452765 0.045840 0
M  V30 2 O 2.447949 -2.842118 0.314367 0
M  V30 3 C 2.405944 -1.469991 0.513882 0
M  V30 4 C 3.474546 -0.602789 0.479839 0
M  V30 5 C 3.186858 0.724034 0.708956 0
M  V30 6 C 1.899204 1.221667 0.967543 0
M  V30 7 O 1.781939 2.590255 1.177719 0
M  V30 8 C 2.931762 3.404638 1.123414 0
M  V30 9 C 0.809903 0.319573 0.999748 0
M  V30 10 S -0.661130 1.145068 1.323126 0
M  V30 11 O -0.583034 1.996522 2.566463 0
M  V30 12 O -0.983279 2.130693 0.191909 0
M  V30 13 N -2.001630 0.089355 1.414540 0
M  V30 14 C -2.857057 -0.857611 0.829820 0
M  V30 15 C -3.851505 -0.172526 0.116553 0
M  V30 16 F -4.007497 1.195145 0.037825 0
M  V30 17 C -4.846204 -0.814735 -0.631872 0
M  V30 18 C -4.764553 -2.190990 -0.607861 0
M  V30 19 C -3.810922 -2.884527 0.076275 0
M  V30 20 C -2.850045 -2.227108 0.800926 0
M  V30 21 F -1.890281 -2.820835 1.525020 0
M  V30 22 C 1.150195 -0.990817 0.765023 0
M  V30 23 H 3.938257 -3.454101 -1.037185 0
M  V30 24 H 3.575216 -4.517538 0.363349 0
M  V30 25 H 4.485531 -3.014788 0.676035 0
M  V30 26 H 4.427515 -1.017019 0.281847 0
M  V30 27 H 4.055972 1.393055 0.676409 0
M  V30 28 H 3.431438 3.324928 0.135955 0
M  V30 29 H 3.698380 3.099212 1.889045 0
M  V30 30 H 2.669503 4.454197 1.373464 0
M  V30 31 H -2.504595 0.059183 2.355406 0
M  V30 32 H -5.624293 -0.320582 -1.191181 0
M  V30 33 H -5.475149 -2.798847 -1.147837 0
M  V30 34 H -3.723414 -3.969497 0.112423 0
M  V30 35 H 0.263773 -1.599792 0.802508 0
M  V30 END ATOM
M  V30 BEGIN BOND
M  V30 1 1 1 2
M  V30 2 1 2 3
M  V30 3 2 3 4
M  V30 4 1 4 5
M  V30 5 2 5 6
M  V30 6 1 6 7
M  V30 7 1 7 8
M  V30 8 1 6 9
M  V30 9 1 9 10
M  V30 10 2 10 11
M  V30 11 2 10 12
M  V30 12 1 10 13
M  V30 13 1 13 14
M  V30 14 2 14 15
M  V30 15 1 15 16
M  V30 16 1 15 17
M  V30 17 2 17 18
M  V30 18 1 18 19
M  V30 19 2 19 20
M  V30 20 1 20 21
M  V30 21 2 9 22
M  V30 22 1 22 3
M  V30 23 1 20 14
M  V30 24 1 1 23
M  V30 25 1 1 24
M  V30 26 1 1 25
M  V30 27 1 4 26
M  V30 28 1 5 27
M  V30 29 1 8 28
M  V30 30 1 8 29
M  V30 31 1 8 30
M  V30 32 1 13 31
M  V30 33 1 17 32
M  V30 34 1 18 33
M  V30 35 1 19 34
M  V30 36 1 22 35
M  V30 END BOND
M  V30 END CTAB
M  END
>  <Dataset>  (959) 
ChEMBL_Kinases

>  <Ligand_Instance>  (959) 
nan

>  <PDB_ID>  (959) 
nan

>  <Standardized_SMILES>  (959) 
COc1ccc(OC)c(S(=O)(=O)Nc2c(F)cccc2F)c1

>  <Name>  (959) 
nan

>  <Pocket>  (959) 
nan

>  <ATP_Site>  (959) 
nan

>  <Peripheral>  (959) 
nan

>  <Num_H_Atoms_ProtBoundConf>  (959) 
nan

>  <Num_Resolved_Atoms>  (959) 
nan

>  <Num_Not_Resolved_Atoms>  (959) 
nan

$$$$
CHEMBL1321734
     RDKit          3D

  0  0  0  0  0  0  0  0  0  0999 V3000
M  V30 BEGIN CTAB
M  V30 COUNTS 43 47 0 0 0
M  V30 BEGIN ATOM
M  V30 1 C 1.489031 -7.656669 1.252471 0
M  V30 2 C 0.726453 -6.901120 2.114491 0
M  V30 3 C 0.622788 -5.537143 1.861544 0
M  V30 4 C 1.241281 -4.912662 0.799443 0
M  V30 5 C 1.061912 -3.474734 0.632833 0
M  V30 6 C 1.641042 -2.765488 -0.398290 0
M  V30 7 N 1.397387 -1.441359 -0.440310 0
M  V30 8 N 0.638276 -0.844325 0.463731 0
M  V30 9 C 0.285896 0.449312 0.586018 0
M  V30 10 C 0.697310 1.523334 -0.312581 0
M  V30 11 C -0.201169 2.265396 -1.056139 0
M  V30 12 C 0.160076 3.282659 -1.911934 0
M  V30 13 C 1.506310 3.599586 -2.052031 0
M  V30 14 C 2.446303 2.886852 -1.330040 0
M  V30 15 C 2.027978 1.872407 -0.482446 0
M  V30 16 C -0.523321 0.584095 1.697167 0
M  V30 17 C -1.144942 1.802400 2.224818 0
M  V30 18 C -2.504381 2.006445 2.339143 0
M  V30 19 C -2.947392 3.188018 2.848249 0
M  V30 20 C -2.076036 4.181796 3.250993 0
M  V30 21 C -0.704813 3.997721 3.144925 0
M  V30 22 C -0.260032 2.787220 2.623444 0
M  V30 23 N -0.662648 -0.651607 2.257144 0
M  V30 24 C 0.060092 -1.510202 1.480858 0
M  V30 25 N 0.293534 -2.846514 1.540853 0
M  V30 26 C 1.990243 -5.714327 -0.029618 0
M  V30 27 C 2.131726 -7.077401 0.169265 0
M  V30 28 H 1.563667 -8.728647 1.460924 0
M  V30 29 H 0.224018 -7.371486 2.966464 0
M  V30 30 H 0.008274 -4.997659 2.576378 0
M  V30 31 H 2.259099 -3.264894 -1.130029 0
M  V30 32 H -1.241989 2.054132 -0.977260 0
M  V30 33 H -0.608589 3.830255 -2.471199 0
M  V30 34 H 1.786505 4.401649 -2.727151 0
M  V30 35 H 3.503173 3.105691 -1.414226 0
M  V30 36 H 2.760950 1.321580 0.076869 0
M  V30 37 H -3.135648 1.172982 1.999831 0
M  V30 38 H -4.033539 3.322755 2.927603 0
M  V30 39 H -2.468714 5.113828 3.653320 0
M  V30 40 H -0.078169 4.808889 3.475878 0
M  V30 41 H 0.824846 2.710305 2.568561 0
M  V30 42 H 2.483862 -5.269459 -0.861343 0
M  V30 43 H 2.734320 -7.682995 -0.509829 0
M  V30 END ATOM
M  V30 BEGIN BOND
M  V30 1 2 1 2
M  V30 2 1 2 3
M  V30 3 2 3 4
M  V30 4 1 4 5
M  V30 5 1 5 6
M  V30 6 2 6 7
M  V30 7 1 7 8
M  V30 8 1 8 9
M  V30 9 1 9 10
M  V30 10 2 10 11
M  V30 11 1 11 12
M  V30 12 2 12 13
M  V30 13 1 13 14
M  V30 14 2 14 15
M  V30 15 2 9 16
M  V30 16 1 16 17
M  V30 17 2 17 18
M  V30 18 1 18 19
M  V30 19 2 19 20
M  V30 20 1 20 21
M  V30 21 2 21 22
M  V30 22 1 16 23
M  V30 23 2 23 24
M  V30 24 1 24 25
M  V30 25 1 4 26
M  V30 26 2 26 27
M  V30 27 1 27 1
M  V30 28 2 25 5
M  V30 29 1 24 8
M  V30 30 1 15 10
M  V30 31 1 22 17
M  V30 32 1 1 28
M  V30 33 1 2 29
M  V30 34 1 3 30
M  V30 35 1 6 31
M  V30 36 1 11 32
M  V30 37 1 12 33
M  V30 38 1 13 34
M  V30 39 1 14 35
M  V30 40 1 15 36
M  V30 41 1 18 37
M  V30 42 1 19 38
M  V30 43 1 20 39
M  V30 44 1 21 40
M  V30 45 1 22 41
M  V30 46 1 26 42
M  V30 47 1 27 43
M  V30 END BOND
M  V30 END CTAB
M  END
>  <Dataset>  (960) 
ChEMBL_Kinases

>  <Ligand_Instance>  (960) 
nan

>  <PDB_ID>  (960) 
nan

>  <Standardized_SMILES>  (960) 
c1ccc(-c2cnn3c(-c4ccccc4)c(-c4ccccc4)nc3n2)cc1

>  <Name>  (960) 
nan

>  <Pocket>  (960) 
nan

>  <ATP_Site>  (960) 
nan

>  <Peripheral>  (960) 
nan

>  <Num_H_Atoms_ProtBoundConf>  (960) 
nan

>  <Num_Resolved_Atoms>  (960) 
nan

>  <Num_Not_Resolved_Atoms>  (960) 
nan

$$$$
CHEMBL1322000
     RDKit          3D

  0  0  0  0  0  0  0  0  0  0999 V3000
M  V30 BEGIN CTAB
M  V30 COUNTS 46 48 0 0 0
M  V30 BEGIN ATOM
M  V30 1 C -0.389327 -6.487791 4.237345 0
M  V30 2 O -0.916011 -5.645268 3.257182 0
M  V30 3 C -0.248075 -4.582928 2.664174 0
M  V30 4 C 1.052139 -4.189611 2.953346 0
M  V30 5 C 1.619641 -3.105363 2.292621 0
M  V30 6 C 0.931577 -2.382814 1.336964 0
M  V30 7 C 1.597029 -1.273993 0.701518 0
M  V30 8 C 0.972837 -0.501148 -0.270966 0
M  V30 9 C 1.708211 0.544792 -0.821296 0
M  V30 10 C 3.020472 0.807617 -0.413182 0
M  V30 11 S 3.741228 2.185832 -1.263791 0
M  V30 12 C 3.382406 3.694746 -0.324337 0
M  V30 13 C 1.923678 4.004195 -0.306252 0
M  V30 14 O 1.383568 4.687727 -1.224883 0
M  V30 15 N 1.214856 3.476530 0.805718 0
M  V30 16 C -0.211811 3.716919 0.923018 0
M  V30 17 C -0.973857 3.154100 -0.229592 0
M  V30 18 C -1.462311 1.864586 -0.185267 0
M  V30 19 C -2.123946 1.573919 -1.353787 0
M  V30 20 C -1.996760 2.757744 -2.080980 0
M  V30 21 O -1.323567 3.653810 -1.398454 0
M  V30 22 N 3.536790 0.008566 0.529884 0
M  V30 23 N 2.859295 -0.991302 1.068343 0
M  V30 24 C -0.344250 -2.799066 1.079413 0
M  V30 25 C -0.944920 -3.870214 1.712881 0
M  V30 26 O -2.250188 -4.217063 1.381605 0
M  V30 27 C -2.975453 -3.507793 0.420219 0
M  V30 28 H -0.726912 -7.528238 3.975987 0
M  V30 29 H 0.712551 -6.531787 4.268360 0
M  V30 30 H -0.812137 -6.264229 5.240345 0
M  V30 31 H 1.567633 -4.768885 3.701976 0
M  V30 32 H 2.650133 -2.867988 2.586055 0
M  V30 33 H -0.037208 -0.702969 -0.585465 0
M  V30 34 H 1.157852 1.117342 -1.584593 0
M  V30 35 H 3.897532 4.551026 -0.835280 0
M  V30 36 H 3.778952 3.669059 0.697787 0
M  V30 37 H 1.681732 2.913087 1.556936 0
M  V30 38 H -0.336465 4.818722 0.862868 0
M  V30 39 H -0.604301 3.324849 1.881336 0
M  V30 40 H -1.372759 1.137397 0.619615 0
M  V30 41 H -2.639687 0.696624 -1.715336 0
M  V30 42 H -2.355213 3.023732 -3.071793 0
M  V30 43 H -0.923324 -2.277188 0.349853 0
M  V30 44 H -2.505827 -3.619522 -0.586197 0
M  V30 45 H -4.013674 -3.884011 0.381668 0
M  V30 46 H -3.013832 -2.430216 0.652333 0
M  V30 END ATOM
M  V30 BEGIN BOND
M  V30 1 1 1 2
M  V30 2 1 2 3
M  V30 3 2 3 4
M  V30 4 1 4 5
M  V30 5 2 5 6
M  V30 6 1 6 7
M  V30 7 2 7 8
M  V30 8 1 8 9
M  V30 9 2 9 10
M  V30 10 1 10 11
M  V30 11 1 11 12
M  V30 12 1 12 13
M  V30 13 2 13 14
M  V30 14 1 13 15
M  V30 15 1 15 16
M  V30 16 1 16 17
M  V30 17 2 17 18
M  V30 18 1 18 19
M  V30 19 2 19 20
M  V30 20 1 20 21
M  V30 21 1 10 22
M  V30 22 2 22 23
M  V30 23 1 6 24
M  V30 24 2 24 25
M  V30 25 1 25 26
M  V30 26 1 26 27
M  V30 27 1 25 3
M  V30 28 1 23 7
M  V30 29 1 21 17
M  V30 30 1 1 28
M  V30 31 1 1 29
M  V30 32 1 1 30
M  V30 33 1 4 31
M  V30 34 1 5 32
M  V30 35 1 8 33
M  V30 36 1 9 34
M  V30 37 1 12 35
M  V30 38 1 12 36
M  V30 39 1 15 37
M  V30 40 1 16 38
M  V30 41 1 16 39
M  V30 42 1 18 40
M  V30 43 1 19 41
M  V30 44 1 20 42
M  V30 45 1 24 43
M  V30 46 1 27 44
M  V30 47 1 27 45
M  V30 48 1 27 46
M  V30 END BOND
M  V30 END CTAB
M  END
>  <Dataset>  (961) 
ChEMBL_Kinases

>  <Ligand_Instance>  (961) 
nan

>  <PDB_ID>  (961) 
nan

>  <Standardized_SMILES>  (961) 
COc1ccc(-c2ccc(SCC(=O)NCc3ccco3)nn2)cc1OC

>  <Name>  (961) 
nan

>  <Pocket>  (961) 
nan

>  <ATP_Site>  (961) 
nan

>  <Peripheral>  (961) 
nan

>  <Num_H_Atoms_ProtBoundConf>  (961) 
nan

>  <Num_Resolved_Atoms>  (961) 
nan

>  <Num_Not_Resolved_Atoms>  (961) 
nan

$$$$
CHEMBL1322090
     RDKit          3D

  0  0  0  0  0  0  0  0  0  0999 V3000
M  V30 BEGIN CTAB
M  V30 COUNTS 56 60 0 0 0
M  V30 BEGIN ATOM
M  V30 1 O 2.476878 -1.597917 4.326968 0
M  V30 2 S 3.008430 -1.873162 2.928487 0
M  V30 3 O 2.548089 -3.263375 2.595104 0
M  V30 4 N 4.726077 -1.838425 2.941702 0
M  V30 5 C 5.266933 -0.587550 3.352782 0
M  V30 6 C 6.416817 -0.022228 2.530170 0
M  V30 7 C 6.598543 -0.406605 3.952778 0
M  V30 8 C 2.395065 -0.689599 1.794351 0
M  V30 9 C 2.110204 0.612260 2.159554 0
M  V30 10 C 1.626073 1.511720 1.223185 0
M  V30 11 C 1.417073 1.133081 -0.090471 0
M  V30 12 S 0.812925 2.174776 -1.353926 0
M  V30 13 O 1.205028 3.582060 -0.968821 0
M  V30 14 O 1.459832 1.863290 -2.651249 0
M  V30 15 N -0.900197 2.131220 -1.459955 0
M  V30 16 C -1.478209 2.595647 -0.229199 0
M  V30 17 C -2.944549 2.842241 -0.487096 0
M  V30 18 C -3.647999 1.688507 -1.113024 0
M  V30 19 C -2.810245 0.571389 -1.581815 0
M  V30 20 C -3.107358 -0.700338 -0.829094 0
M  V30 21 N -3.634122 -1.855259 -1.283643 0
M  V30 22 C -3.705825 -2.701913 -0.223987 0
M  V30 23 C -4.252769 -4.027744 -0.489846 0
M  V30 24 C -3.257694 -4.982125 -0.627019 0
M  V30 25 C -3.581619 -6.314736 -0.885365 0
M  V30 26 C -4.932061 -6.634718 -0.997035 0
M  V30 27 N -5.891084 -5.682285 -0.858807 0
M  V30 28 C -5.575242 -4.404409 -0.610865 0
M  V30 29 N -3.218085 -2.016617 0.821675 0
M  V30 30 O -2.865653 -0.827758 0.448797 0
M  V30 31 C -1.344656 0.766908 -1.643644 0
M  V30 32 C 1.699234 -0.166355 -0.463988 0
M  V30 33 C 2.187427 -1.070311 0.483859 0
M  V30 34 H 5.175102 -2.685640 3.296496 0
M  V30 35 H 4.505504 0.191698 3.607790 0
M  V30 36 H 6.890139 -0.677798 1.768091 0
M  V30 37 H 6.372509 1.032721 2.194666 0
M  V30 38 H 7.289956 -1.237880 4.157763 0
M  V30 39 H 6.753230 0.455980 4.637437 0
M  V30 40 H 2.264169 0.933099 3.176977 0
M  V30 41 H 1.386674 2.534865 1.445968 0
M  V30 42 H -1.058046 3.586914 0.098611 0
M  V30 43 H -1.300103 1.829703 0.545723 0
M  V30 44 H -3.398386 3.135306 0.483281 0
M  V30 45 H -2.983121 3.762622 -1.114369 0
M  V30 46 H -4.295899 2.120199 -1.928027 0
M  V30 47 H -4.391455 1.288638 -0.385601 0
M  V30 48 H -3.140234 0.317428 -2.632578 0
M  V30 49 H -2.186633 -4.810639 -0.553651 0
M  V30 50 H -2.831519 -7.087650 -0.998624 0
M  V30 51 H -5.187438 -7.668709 -1.197638 0
M  V30 52 H -6.272629 -3.587515 -0.487415 0
M  V30 53 H -0.888296 0.428808 -2.609659 0
M  V30 54 H -0.868763 0.183003 -0.816448 0
M  V30 55 H 1.571363 -0.557118 -1.456282 0
M  V30 56 H 2.410122 -2.103571 0.179769 0
M  V30 END ATOM
M  V30 BEGIN BOND
M  V30 1 2 1 2
M  V30 2 2 2 3
M  V30 3 1 2 4
M  V30 4 1 4 5
M  V30 5 1 5 6
M  V30 6 1 6 7
M  V30 7 1 2 8
M  V30 8 2 8 9
M  V30 9 1 9 10
M  V30 10 2 10 11
M  V30 11 1 11 12
M  V30 12 2 12 13
M  V30 13 2 12 14
M  V30 14 1 12 15
M  V30 15 1 15 16
M  V30 16 1 16 17
M  V30 17 1 17 18
M  V30 18 1 18 19
M  V30 19 1 19 20
M  V30 20 2 20 21
M  V30 21 1 21 22
M  V30 22 1 22 23
M  V30 23 2 23 24
M  V30 24 1 24 25
M  V30 25 2 25 26
M  V30 26 1 26 27
M  V30 27 2 27 28
M  V30 28 2 22 29
M  V30 29 1 29 30
M  V30 30 1 19 31
M  V30 31 1 11 32
M  V30 32 2 32 33
M  V30 33 1 7 5
M  V30 34 1 33 8
M  V30 35 1 31 15
M  V30 36 1 30 20
M  V30 37 1 28 23
M  V30 38 1 4 34
M  V30 39 1 5 35
M  V30 40 1 6 36
M  V30 41 1 6 37
M  V30 42 1 7 38
M  V30 43 1 7 39
M  V30 44 1 9 40
M  V30 45 1 10 41
M  V30 46 1 16 42
M  V30 47 1 16 43
M  V30 48 1 17 44
M  V30 49 1 17 45
M  V30 50 1 18 46
M  V30 51 1 18 47
M  V30 52 1 19 48
M  V30 53 1 24 49
M  V30 54 1 25 50
M  V30 55 1 26 51
M  V30 56 1 28 52
M  V30 57 1 31 53
M  V30 58 1 31 54
M  V30 59 1 32 55
M  V30 60 1 33 56
M  V30 END BOND
M  V30 END CTAB
M  END
>  <Dataset>  (962) 
ChEMBL_Kinases

>  <Ligand_Instance>  (962) 
nan

>  <PDB_ID>  (962) 
nan

>  <Standardized_SMILES>  (962) 
O=S(=O)(NC1CC1)c1ccc(S(=O)(=O)N2CCCC(c3nc(-c4cccnc4)no3)C2)cc1

>  <Name>  (962) 
nan

>  <Pocket>  (962) 
nan

>  <ATP_Site>  (962) 
nan

>  <Peripheral>  (962) 
nan

>  <Num_H_Atoms_ProtBoundConf>  (962) 
nan

>  <Num_Resolved_Atoms>  (962) 
nan

>  <Num_Not_Resolved_Atoms>  (962) 
nan

$$$$
CHEMBL1321059
     RDKit          3D

  0  0  0  0  0  0  0  0  0  0999 V3000
M  V30 BEGIN CTAB
M  V30 COUNTS 46 47 0 0 0
M  V30 BEGIN ATOM
M  V30 1 C -0.951014 -5.967118 1.036719 0
M  V30 2 O 0.292099 -5.440841 1.327040 0
M  V30 3 C 0.336545 -4.110596 1.037357 0
M  V30 4 C 0.088311 -3.736730 -0.404004 0
M  V30 5 N 0.171419 -2.290666 -0.555362 0
M  V30 6 C -0.022305 -1.660419 -1.816563 0
M  V30 7 O -0.267813 -2.406081 -2.791793 0
M  V30 8 C 0.072342 -0.168104 -1.926674 0
M  V30 9 N 0.363231 0.474664 -0.674631 0
M  V30 10 C 1.722372 0.695794 -0.307347 0
M  V30 11 O 2.497698 -0.204188 -0.783005 0
M  V30 12 C 2.444038 1.718906 0.491944 0
M  V30 13 C 1.960513 1.642100 1.903514 0
M  V30 14 C 2.968590 2.452004 2.731404 0
M  V30 15 C 1.921353 0.267819 2.489988 0
M  V30 16 S 0.397988 2.416967 2.141339 0
M  V30 17 O 0.482414 3.836471 1.659669 0
M  V30 18 O 0.056177 2.435388 3.602796 0
M  V30 19 C -0.894808 1.626585 1.294652 0
M  V30 20 C -2.111733 1.844631 1.902420 0
M  V30 21 C -3.256319 1.305296 1.398492 0
M  V30 22 C -3.142705 0.528653 0.249178 0
M  V30 23 C -1.919911 0.329233 -0.333169 0
M  V30 24 C -0.749919 0.863566 0.156946 0
M  V30 25 H -1.707881 -5.421751 1.640014 0
M  V30 26 H -0.950517 -7.045759 1.377612 0
M  V30 27 H -1.246111 -5.923546 -0.009226 0
M  V30 28 H 1.258467 -3.606787 1.431887 0
M  V30 29 H -0.500679 -3.630107 1.626560 0
M  V30 30 H 0.951580 -4.154928 -0.989864 0
M  V30 31 H -0.826186 -4.149216 -0.823235 0
M  V30 32 H 0.378930 -1.682036 0.277819 0
M  V30 33 H -0.647315 0.303475 -2.582600 0
M  V30 34 H 1.024332 -0.074594 -2.544830 0
M  V30 35 H 2.114198 2.730401 0.113461 0
M  V30 36 H 3.522924 1.628622 0.384466 0
M  V30 37 H 2.976214 2.156551 3.784795 0
M  V30 38 H 2.651330 3.526496 2.654566 0
M  V30 39 H 3.988475 2.358828 2.292067 0
M  V30 40 H 1.076669 0.193366 3.219351 0
M  V30 41 H 1.900990 -0.540534 1.740531 0
M  V30 42 H 2.831088 0.069029 3.128997 0
M  V30 43 H -2.146665 2.454630 2.792184 0
M  V30 44 H -4.206033 1.471184 1.866517 0
M  V30 45 H -4.062550 0.113750 -0.128884 0
M  V30 46 H -1.951528 -0.276877 -1.195198 0
M  V30 END ATOM
M  V30 BEGIN BOND
M  V30 1 1 1 2
M  V30 2 1 2 3
M  V30 3 1 3 4
M  V30 4 1 4 5
M  V30 5 1 5 6
M  V30 6 2 6 7
M  V30 7 1 6 8
M  V30 8 1 8 9
M  V30 9 1 9 10
M  V30 10 2 10 11
M  V30 11 1 10 12
M  V30 12 1 12 13
M  V30 13 1 13 14
M  V30 14 1 13 15
M  V30 15 1 13 16
M  V30 16 2 16 17
M  V30 17 2 16 18
M  V30 18 1 16 19
M  V30 19 2 19 20
M  V30 20 1 20 21
M  V30 21 2 21 22
M  V30 22 1 22 23
M  V30 23 2 23 24
M  V30 24 1 24 9
M  V30 25 1 24 19
M  V30 26 1 1 25
M  V30 27 1 1 26
M  V30 28 1 1 27
M  V30 29 1 3 28
M  V30 30 1 3 29
M  V30 31 1 4 30
M  V30 32 1 4 31
M  V30 33 1 5 32
M  V30 34 1 8 33
M  V30 35 1 8 34
M  V30 36 1 12 35
M  V30 37 1 12 36
M  V30 38 1 14 37
M  V30 39 1 14 38
M  V30 40 1 14 39
M  V30 41 1 15 40
M  V30 42 1 15 41
M  V30 43 1 15 42
M  V30 44 1 20 43
M  V30 45 1 21 44
M  V30 46 1 22 45
M  V30 47 1 23 46
M  V30 END BOND
M  V30 END CTAB
M  END
>  <Dataset>  (963) 
ChEMBL_Kinases

>  <Ligand_Instance>  (963) 
nan

>  <PDB_ID>  (963) 
nan

>  <Standardized_SMILES>  (963) 
COCCNC(=O)CN1C(=O)CC(C)(C)S(=O)(=O)c2ccccc21

>  <Name>  (963) 
nan

>  <Pocket>  (963) 
nan

>  <ATP_Site>  (963) 
nan

>  <Peripheral>  (963) 
nan

>  <Num_H_Atoms_ProtBoundConf>  (963) 
nan

>  <Num_Resolved_Atoms>  (963) 
nan

>  <Num_Not_Resolved_Atoms>  (963) 
nan

$$$$
CHEMBL1258033
     RDKit          3D

  0  0  0  0  0  0  0  0  0  0999 V3000
M  V30 BEGIN CTAB
M  V30 COUNTS 42 45 0 0 0
M  V30 BEGIN ATOM
M  V30 1 C -0.657999 -5.856224 4.157797 0
M  V30 2 O 0.340118 -6.079213 3.157691 0
M  V30 3 C 0.606533 -5.047969 2.246493 0
M  V30 4 C -0.076894 -3.857449 2.327862 0
M  V30 5 C 0.213598 -2.849582 1.398604 0
M  V30 6 C 1.171988 -3.070273 0.429571 0
M  V30 7 N 1.479599 -2.062786 -0.560962 0
M  V30 8 C 0.675240 -0.885974 -0.513389 0
M  V30 9 N 1.105571 0.353856 -0.202797 0
M  V30 10 C 0.284609 1.418198 -0.168164 0
M  V30 11 C 0.769219 2.751902 0.151678 0
M  V30 12 C -0.016730 3.855412 0.204327 0
M  V30 13 C 0.484521 5.110786 0.498570 0
M  V30 14 C 1.815941 5.307824 0.754645 0
M  V30 15 C 2.619393 4.176259 0.699198 0
M  V30 16 N 4.039872 4.209578 0.937462 0
M  V30 17 C 2.124323 2.924598 0.406998 0
M  V30 18 C -1.032193 1.171760 -0.468667 0
M  V30 19 N -1.549243 -0.024377 -0.788491 0
M  V30 20 C -2.747100 -0.535203 -1.115010 0
M  V30 21 C -2.641656 -1.885475 -1.342405 0
M  V30 22 N -1.349806 -2.229035 -1.153807 0
M  V30 23 C -0.685359 -1.084308 -0.814752 0
M  V30 24 C 1.835447 -4.280311 0.383310 0
M  V30 25 C 1.587250 -5.324242 1.285114 0
M  V30 26 H -0.822689 -6.754178 4.766506 0
M  V30 27 H -1.596197 -5.502314 3.680056 0
M  V30 28 H -0.294532 -4.982546 4.744078 0
M  V30 29 H -0.821195 -3.702226 3.089203 0
M  V30 30 H -0.327261 -1.910599 1.468357 0
M  V30 31 H 2.240655 -2.239542 -1.230404 0
M  V30 32 H -1.076265 3.793333 0.017989 0
M  V30 33 H -0.166708 5.985666 0.537160 0
M  V30 34 H 2.287077 6.250868 0.988799 0
M  V30 35 H 4.803984 4.861416 0.594082 0
M  V30 36 H 4.566365 3.515105 1.546720 0
M  V30 37 H 2.758482 2.045248 0.362338 0
M  V30 38 H -1.781734 1.954363 -0.470138 0
M  V30 39 H -3.660531 0.028852 -1.190529 0
M  V30 40 H -3.350874 -2.647798 -1.619489 0
M  V30 41 H 2.589022 -4.434949 -0.387479 0
M  V30 42 H 2.121051 -6.260996 1.223587 0
M  V30 END ATOM
M  V30 BEGIN BOND
M  V30 1 1 1 2
M  V30 2 1 2 3
M  V30 3 2 3 4
M  V30 4 1 4 5
M  V30 5 2 5 6
M  V30 6 1 6 7
M  V30 7 1 7 8
M  V30 8 2 8 9
M  V30 9 1 9 10
M  V30 10 1 10 11
M  V30 11 2 11 12
M  V30 12 1 12 13
M  V30 13 2 13 14
M  V30 14 1 14 15
M  V30 15 1 15 16
M  V30 16 2 15 17
M  V30 17 2 10 18
M  V30 18 1 18 19
M  V30 19 1 19 20
M  V30 20 2 20 21
M  V30 21 1 21 22
M  V30 22 2 22 23
M  V30 23 1 6 24
M  V30 24 2 24 25
M  V30 25 1 25 3
M  V30 26 1 23 8
M  V30 27 1 17 11
M  V30 28 1 23 19
M  V30 29 1 1 26
M  V30 30 1 1 27
M  V30 31 1 1 28
M  V30 32 1 4 29
M  V30 33 1 5 30
M  V30 34 1 7 31
M  V30 35 1 12 32
M  V30 36 1 13 33
M  V30 37 1 14 34
M  V30 38 1 16 35
M  V30 39 1 16 36
M  V30 40 1 17 37
M  V30 41 1 18 38
M  V30 42 1 20 39
M  V30 43 1 21 40
M  V30 44 1 24 41
M  V30 45 1 25 42
M  V30 END BOND
M  V30 END CTAB
M  END
>  <Dataset>  (964) 
ChEMBL_Kinases

>  <Ligand_Instance>  (964) 
nan

>  <PDB_ID>  (964) 
nan

>  <Standardized_SMILES>  (964) 
COc1ccc(Nc2nc(-c3cccc(N)c3)cn3ccnc23)cc1

>  <Name>  (964) 
nan

>  <Pocket>  (964) 
nan

>  <ATP_Site>  (964) 
nan

>  <Peripheral>  (964) 
nan

>  <Num_H_Atoms_ProtBoundConf>  (964) 
nan

>  <Num_Resolved_Atoms>  (964) 
nan

>  <Num_Not_Resolved_Atoms>  (964) 
nan

$$$$
CHEMBL1257923
     RDKit          3D

  0  0  0  0  0  0  0  0  0  0999 V3000
M  V30 BEGIN CTAB
M  V30 COUNTS 40 43 0 0 0
M  V30 BEGIN ATOM
M  V30 1 C 1.301095 -7.451289 2.390372 0
M  V30 2 O 1.778717 -6.260034 2.966471 0
M  V30 3 C 1.541912 -5.011216 2.428648 0
M  V30 4 C 2.144067 -4.028192 3.226033 0
M  V30 5 C 2.061078 -2.689346 2.912556 0
M  V30 6 C 1.379117 -2.255645 1.796203 0
M  V30 7 N 1.243805 -0.917940 1.354082 0
M  V30 8 C 0.191381 -0.121342 0.849968 0
M  V30 9 N 0.512810 1.096148 0.379661 0
M  V30 10 C -0.413364 1.934652 -0.102651 0
M  V30 11 C -0.010466 3.243069 -0.601353 0
M  V30 12 C -0.849774 4.202843 -1.122691 0
M  V30 13 C -0.100172 5.311407 -1.488557 0
M  V30 14 N 1.173406 4.994961 -1.179708 0
M  V30 15 C 2.261022 5.932835 -1.428489 0
M  V30 16 N 1.219008 3.777514 -0.658397 0
M  V30 17 C -1.735490 1.556747 -0.124690 0
M  V30 18 N -2.070903 0.341820 0.342557 0
M  V30 19 C -3.273511 -0.263899 0.440147 0
M  V30 20 C -3.087031 -1.509718 0.997976 0
M  V30 21 N -1.767292 -1.623035 1.222790 0
M  V30 22 C -1.128921 -0.508338 0.831366 0
M  V30 23 C 0.777751 -3.235017 0.999184 0
M  V30 24 C 0.860656 -4.574619 1.312872 0
M  V30 25 H 0.685275 -8.041047 3.123124 0
M  V30 26 H 0.610203 -7.243506 1.552810 0
M  V30 27 H 2.103593 -8.098528 1.975415 0
M  V30 28 H 2.722389 -4.187649 4.144237 0
M  V30 29 H 2.504579 -1.891021 3.493435 0
M  V30 30 H 2.202100 -0.510619 1.464307 0
M  V30 31 H -1.928656 4.078311 -1.218536 0
M  V30 32 H -0.465738 6.229996 -1.928979 0
M  V30 33 H 3.203064 5.407552 -1.132676 0
M  V30 34 H 2.163292 6.841965 -0.781262 0
M  V30 35 H 2.309614 6.180835 -2.493374 0
M  V30 36 H -2.524367 2.203727 -0.507431 0
M  V30 37 H -4.265195 0.084876 0.158436 0
M  V30 38 H -3.776530 -2.332395 1.257459 0
M  V30 39 H 0.215283 -3.111631 0.087803 0
M  V30 40 H 0.435671 -5.401678 0.766710 0
M  V30 END ATOM
M  V30 BEGIN BOND
M  V30 1 1 1 2
M  V30 2 1 2 3
M  V30 3 2 3 4
M  V30 4 1 4 5
M  V30 5 2 5 6
M  V30 6 1 6 7
M  V30 7 1 7 8
M  V30 8 2 8 9
M  V30 9 1 9 10
M  V30 10 1 10 11
M  V30 11 1 11 12
M  V30 12 2 12 13
M  V30 13 1 13 14
M  V30 14 1 14 15
M  V30 15 1 14 16
M  V30 16 2 10 17
M  V30 17 1 17 18
M  V30 18 1 18 19
M  V30 19 2 19 20
M  V30 20 1 20 21
M  V30 21 2 21 22
M  V30 22 1 6 23
M  V30 23 2 23 24
M  V30 24 1 24 3
M  V30 25 1 22 8
M  V30 26 2 16 11
M  V30 27 1 22 18
M  V30 28 1 1 25
M  V30 29 1 1 26
M  V30 30 1 1 27
M  V30 31 1 4 28
M  V30 32 1 5 29
M  V30 33 1 7 30
M  V30 34 1 12 31
M  V30 35 1 13 32
M  V30 36 1 15 33
M  V30 37 1 15 34
M  V30 38 1 15 35
M  V30 39 1 17 36
M  V30 40 1 19 37
M  V30 41 1 20 38
M  V30 42 1 23 39
M  V30 43 1 24 40
M  V30 END BOND
M  V30 END CTAB
M  END
>  <Dataset>  (965) 
ChEMBL_Kinases

>  <Ligand_Instance>  (965) 
nan

>  <PDB_ID>  (965) 
nan

>  <Standardized_SMILES>  (965) 
COc1ccc(Nc2nc(-c3ccn(C)n3)cn3ccnc23)cc1

>  <Name>  (965) 
nan

>  <Pocket>  (965) 
nan

>  <ATP_Site>  (965) 
nan

>  <Peripheral>  (965) 
nan

>  <Num_H_Atoms_ProtBoundConf>  (965) 
nan

>  <Num_Resolved_Atoms>  (965) 
nan

>  <Num_Not_Resolved_Atoms>  (965) 
nan

$$$$
CHEMBL1257445
     RDKit          3D

  0  0  0  0  0  0  0  0  0  0999 V3000
M  V30 BEGIN CTAB
M  V30 COUNTS 49 53 0 0 0
M  V30 BEGIN ATOM
M  V30 1 O -1.470784 -3.662204 1.126724 0
M  V30 2 C -2.026180 -3.735035 2.269383 0
M  V30 3 N -1.245404 -3.076740 3.248992 0
M  V30 4 C -0.084974 -2.558249 2.575752 0
M  V30 5 C 1.123361 -3.220681 2.457883 0
M  V30 6 C 2.147077 -2.606604 1.774857 0
M  V30 7 C 2.018542 -1.365435 1.205503 0
M  V30 8 N 3.068026 -0.674226 0.499773 0
M  V30 9 C 2.678842 0.409325 -0.330877 0
M  V30 10 N 2.356755 1.672299 -0.005387 0
M  V30 11 C 2.014280 2.591480 -0.921719 0
M  V30 12 C 1.677005 3.913663 -0.419138 0
M  V30 13 C 1.700637 4.203794 0.923169 0
M  V30 14 C 1.368219 5.494308 1.312469 0
M  V30 15 C 1.014497 6.504901 0.427419 0
M  V30 16 N 0.995730 6.201268 -0.904293 0
M  V30 17 C 1.324401 4.928795 -1.275614 0
M  V30 18 C 1.987174 2.246060 -2.249312 0
M  V30 19 N 2.308376 0.983904 -2.583065 0
M  V30 20 C 2.343029 0.450285 -3.819079 0
M  V30 21 C 2.721765 -0.862951 -3.697332 0
M  V30 22 N 2.910438 -1.104396 -2.391417 0
M  V30 23 C 2.658233 0.032028 -1.680029 0
M  V30 24 C 0.771848 -0.748691 1.359283 0
M  V30 25 C -0.300551 -1.309227 2.034983 0
M  V30 26 C -3.313250 -4.406454 2.573756 0
M  V30 27 C -3.869892 -4.556197 3.830879 0
M  V30 28 C -5.086751 -5.205204 3.906642 0
M  V30 29 C -5.722879 -5.687585 2.757926 0
M  V30 30 C -5.160426 -5.535177 1.496268 0
M  V30 31 C -3.938901 -4.882119 1.434999 0
M  V30 32 H -1.581496 -3.051741 4.252597 0
M  V30 33 H 1.205814 -4.193022 2.908844 0
M  V30 34 H 3.108313 -3.114790 1.672381 0
M  V30 35 H 4.043135 -1.045434 0.671545 0
M  V30 36 H 1.961527 3.473968 1.661995 0
M  V30 37 H 1.367292 5.782731 2.338472 0
M  V30 38 H 0.761657 7.501117 0.764644 0
M  V30 39 H 1.274594 4.814753 -2.347257 0
M  V30 40 H 1.717923 2.959657 -2.992379 0
M  V30 41 H 2.135444 0.860665 -4.819241 0
M  V30 42 H 2.887322 -1.676812 -4.377135 0
M  V30 43 H 0.668441 0.237103 0.908435 0
M  V30 44 H -1.213614 -0.736760 2.089456 0
M  V30 45 H -3.302882 -4.152033 4.646935 0
M  V30 46 H -5.488607 -5.303088 4.897762 0
M  V30 47 H -6.676133 -6.183444 2.926690 0
M  V30 48 H -5.695527 -5.925672 0.659425 0
M  V30 49 H -3.548546 -4.789585 0.443033 0
M  V30 END ATOM
M  V30 BEGIN BOND
M  V30 1 2 1 2
M  V30 2 1 2 3
M  V30 3 1 3 4
M  V30 4 2 4 5
M  V30 5 1 5 6
M  V30 6 2 6 7
M  V30 7 1 7 8
M  V30 8 1 8 9
M  V30 9 2 9 10
M  V30 10 1 10 11
M  V30 11 1 11 12
M  V30 12 2 12 13
M  V30 13 1 13 14
M  V30 14 2 14 15
M  V30 15 1 15 16
M  V30 16 2 16 17
M  V30 17 2 11 18
M  V30 18 1 18 19
M  V30 19 1 19 20
M  V30 20 2 20 21
M  V30 21 1 21 22
M  V30 22 2 22 23
M  V30 23 1 7 24
M  V30 24 2 24 25
M  V30 25 1 2 26
M  V30 26 2 26 27
M  V30 27 1 27 28
M  V30 28 2 28 29
M  V30 29 1 29 30
M  V30 30 2 30 31
M  V30 31 1 25 4
M  V30 32 1 31 26
M  V30 33 1 23 9
M  V30 34 1 17 12
M  V30 35 1 23 19
M  V30 36 1 3 32
M  V30 37 1 5 33
M  V30 38 1 6 34
M  V30 39 1 8 35
M  V30 40 1 13 36
M  V30 41 1 14 37
M  V30 42 1 15 38
M  V30 43 1 17 39
M  V30 44 1 18 40
M  V30 45 1 20 41
M  V30 46 1 21 42
M  V30 47 1 24 43
M  V30 48 1 25 44
M  V30 49 1 27 45
M  V30 50 1 28 46
M  V30 51 1 29 47
M  V30 52 1 30 48
M  V30 53 1 31 49
M  V30 END BOND
M  V30 END CTAB
M  END
>  <Dataset>  (966) 
ChEMBL_Kinases

>  <Ligand_Instance>  (966) 
nan

>  <PDB_ID>  (966) 
nan

>  <Standardized_SMILES>  (966) 
O=C(Nc1ccc(Nc2nc(-c3cccnc3)cn3ccnc23)cc1)c1ccccc1

>  <Name>  (966) 
nan

>  <Pocket>  (966) 
nan

>  <ATP_Site>  (966) 
nan

>  <Peripheral>  (966) 
nan

>  <Num_H_Atoms_ProtBoundConf>  (966) 
nan

>  <Num_Resolved_Atoms>  (966) 
nan

>  <Num_Not_Resolved_Atoms>  (966) 
nan

$$$$
CHEMBL1257333
     RDKit          3D

  0  0  0  0  0  0  0  0  0  0999 V3000
M  V30 BEGIN CTAB
M  V30 COUNTS 42 45 0 0 0
M  V30 BEGIN ATOM
M  V30 1 C 2.665483 -5.461160 2.816102 0
M  V30 2 C 2.048102 -4.602656 1.767143 0
M  V30 3 O 1.388564 -3.553293 2.083539 0
M  V30 4 N 2.083351 -4.785575 0.359612 0
M  V30 5 C 1.350465 -3.701306 -0.221024 0
M  V30 6 C 2.066080 -2.563597 -0.546349 0
M  V30 7 C 1.342979 -1.525768 -1.101675 0
M  V30 8 C -0.018423 -1.625669 -1.317108 0
M  V30 9 N -0.532435 -0.419541 -1.902174 0
M  V30 10 C -0.903428 0.335810 -0.751052 0
M  V30 11 N 0.069458 1.096884 -0.171491 0
M  V30 12 C -0.206408 1.841536 0.921556 0
M  V30 13 C 0.913751 2.609995 1.442160 0
M  V30 14 C 2.162615 2.592352 0.866751 0
M  V30 15 C 3.267221 3.293185 1.302861 0
M  V30 16 C 3.064119 4.083512 2.435323 0
M  V30 17 N 1.863649 4.149069 3.052815 0
M  V30 18 C 0.841206 3.430375 2.556702 0
M  V30 19 C -1.453101 1.877948 1.503033 0
M  V30 20 N -2.399352 1.113391 0.907061 0
M  V30 21 C -3.710603 0.922151 1.212373 0
M  V30 22 C -4.278379 0.045334 0.304098 0
M  V30 23 N -3.281367 -0.293683 -0.562554 0
M  V30 24 C -2.159490 0.360698 -0.181019 0
M  V30 25 C -0.721490 -2.763837 -0.989179 0
M  V30 26 C -0.016070 -3.814972 -0.431946 0
M  V30 27 H 2.141940 -6.444058 2.928238 0
M  V30 28 H 3.726324 -5.678021 2.533553 0
M  V30 29 H 2.594497 -4.911432 3.767417 0
M  V30 30 H 2.611325 -5.633880 0.034185 0
M  V30 31 H 3.128894 -2.511580 -0.367494 0
M  V30 32 H 1.968855 -0.651169 -1.337553 0
M  V30 33 H -0.620523 -0.149367 -2.912577 0
M  V30 34 H 2.330169 1.981750 -0.011727 0
M  V30 35 H 4.222453 3.256704 0.831766 0
M  V30 36 H 3.936327 4.640479 2.783798 0
M  V30 37 H -0.092440 3.521522 3.091844 0
M  V30 38 H -1.666911 2.471783 2.372068 0
M  V30 39 H -4.197524 1.405688 2.051968 0
M  V30 40 H -5.310138 -0.297304 0.290533 0
M  V30 41 H -1.780550 -2.731955 -1.201377 0
M  V30 42 H -0.574301 -4.702887 -0.178485 0
M  V30 END ATOM
M  V30 BEGIN BOND
M  V30 1 1 1 2
M  V30 2 2 2 3
M  V30 3 1 2 4
M  V30 4 1 4 5
M  V30 5 2 5 6
M  V30 6 1 6 7
M  V30 7 2 7 8
M  V30 8 1 8 9
M  V30 9 1 9 10
M  V30 10 2 10 11
M  V30 11 1 11 12
M  V30 12 1 12 13
M  V30 13 2 13 14
M  V30 14 1 14 15
M  V30 15 2 15 16
M  V30 16 1 16 17
M  V30 17 2 17 18
M  V30 18 2 12 19
M  V30 19 1 19 20
M  V30 20 1 20 21
M  V30 21 2 21 22
M  V30 22 1 22 23
M  V30 23 2 23 24
M  V30 24 1 8 25
M  V30 25 2 25 26
M  V30 26 1 26 5
M  V30 27 1 24 10
M  V30 28 1 18 13
M  V30 29 1 24 20
M  V30 30 1 1 27
M  V30 31 1 1 28
M  V30 32 1 1 29
M  V30 33 1 4 30
M  V30 34 1 6 31
M  V30 35 1 7 32
M  V30 36 1 9 33
M  V30 37 1 14 34
M  V30 38 1 15 35
M  V30 39 1 16 36
M  V30 40 1 18 37
M  V30 41 1 19 38
M  V30 42 1 21 39
M  V30 43 1 22 40
M  V30 44 1 25 41
M  V30 45 1 26 42
M  V30 END BOND
M  V30 END CTAB
M  END
>  <Dataset>  (967) 
ChEMBL_Kinases

>  <Ligand_Instance>  (967) 
nan

>  <PDB_ID>  (967) 
nan

>  <Standardized_SMILES>  (967) 
CC(=O)Nc1ccc(Nc2nc(-c3cccnc3)cn3ccnc23)cc1

>  <Name>  (967) 
nan

>  <Pocket>  (967) 
nan

>  <ATP_Site>  (967) 
nan

>  <Peripheral>  (967) 
nan

>  <Num_H_Atoms_ProtBoundConf>  (967) 
nan

>  <Num_Resolved_Atoms>  (967) 
nan

>  <Num_Not_Resolved_Atoms>  (967) 
nan

$$$$
CHEMBL1257332
     RDKit          3D

  0  0  0  0  0  0  0  0  0  0999 V3000
M  V30 BEGIN CTAB
M  V30 COUNTS 35 38 0 0 0
M  V30 BEGIN ATOM
M  V30 1 Cl 2.305418 -4.742526 5.020254 0
M  V30 2 C 1.423823 -4.038335 3.692710 0
M  V30 3 C 0.528275 -4.815107 3.010060 0
M  V30 4 C -0.187293 -4.305054 1.959995 0
M  V30 5 C -0.070285 -3.003696 1.513717 0
M  V30 6 N -0.820121 -2.493811 0.424372 0
M  V30 7 C -0.823176 -1.201306 -0.155571 0
M  V30 8 N -0.067082 -0.174264 0.255272 0
M  V30 9 C -0.052192 1.054171 -0.275395 0
M  V30 10 C 0.803551 2.114367 0.235179 0
M  V30 11 C 1.669570 1.969350 1.294957 0
M  V30 12 C 2.478545 2.980888 1.773516 0
M  V30 13 C 2.438964 4.223310 1.174083 0
M  V30 14 N 1.593514 4.386941 0.129642 0
M  V30 15 C 0.819269 3.377367 -0.309889 0
M  V30 16 C -0.899126 1.255678 -1.338452 0
M  V30 17 N -1.682250 0.262737 -1.795567 0
M  V30 18 C -2.576758 0.225128 -2.806657 0
M  V30 19 C -3.102942 -1.047506 -2.843798 0
M  V30 20 N -2.517767 -1.745695 -1.860051 0
M  V30 21 C -1.646868 -0.948369 -1.214859 0
M  V30 22 C 0.847268 -2.273008 2.242222 0
M  V30 23 C 1.587487 -2.729126 3.296551 0
M  V30 24 H 0.378489 -5.844165 3.297145 0
M  V30 25 H -0.882165 -4.970116 1.458141 0
M  V30 26 H -1.465267 -3.222832 0.007871 0
M  V30 27 H 1.742069 1.019365 1.801818 0
M  V30 28 H 3.142004 2.790191 2.620907 0
M  V30 29 H 3.077313 4.997636 1.562347 0
M  V30 30 H 0.197843 3.654386 -1.147474 0
M  V30 31 H -0.979597 2.187612 -1.846471 0
M  V30 32 H -2.847403 1.039799 -3.480923 0
M  V30 33 H -3.850396 -1.469427 -3.514541 0
M  V30 34 H 1.039147 -1.244168 2.003615 0
M  V30 35 H 2.292301 -2.141868 3.844563 0
M  V30 END ATOM
M  V30 BEGIN BOND
M  V30 1 1 1 2
M  V30 2 2 2 3
M  V30 3 1 3 4
M  V30 4 2 4 5
M  V30 5 1 5 6
M  V30 6 1 6 7
M  V30 7 2 7 8
M  V30 8 1 8 9
M  V30 9 1 9 10
M  V30 10 2 10 11
M  V30 11 1 11 12
M  V30 12 2 12 13
M  V30 13 1 13 14
M  V30 14 2 14 15
M  V30 15 2 9 16
M  V30 16 1 16 17
M  V30 17 1 17 18
M  V30 18 2 18 19
M  V30 19 1 19 20
M  V30 20 2 20 21
M  V30 21 1 5 22
M  V30 22 2 22 23
M  V30 23 1 23 2
M  V30 24 1 21 7
M  V30 25 1 15 10
M  V30 26 1 21 17
M  V30 27 1 3 24
M  V30 28 1 4 25
M  V30 29 1 6 26
M  V30 30 1 11 27
M  V30 31 1 12 28
M  V30 32 1 13 29
M  V30 33 1 15 30
M  V30 34 1 16 31
M  V30 35 1 18 32
M  V30 36 1 19 33
M  V30 37 1 22 34
M  V30 38 1 23 35
M  V30 END BOND
M  V30 END CTAB
M  END
>  <Dataset>  (968) 
ChEMBL_Kinases

>  <Ligand_Instance>  (968) 
nan

>  <PDB_ID>  (968) 
nan

>  <Standardized_SMILES>  (968) 
Clc1ccc(Nc2nc(-c3cccnc3)cn3ccnc23)cc1

>  <Name>  (968) 
nan

>  <Pocket>  (968) 
nan

>  <ATP_Site>  (968) 
nan

>  <Peripheral>  (968) 
nan

>  <Num_H_Atoms_ProtBoundConf>  (968) 
nan

>  <Num_Resolved_Atoms>  (968) 
nan

>  <Num_Not_Resolved_Atoms>  (968) 
nan

$$$$
CHEMBL1257331
     RDKit          3D

  0  0  0  0  0  0  0  0  0  0999 V3000
M  V30 BEGIN CTAB
M  V30 COUNTS 39 42 0 0 0
M  V30 BEGIN ATOM
M  V30 1 C -0.260669 -6.144213 4.577053 0
M  V30 2 O 0.960303 -5.585524 4.170824 0
M  V30 3 C 0.969467 -4.356199 3.540911 0
M  V30 4 C 2.223170 -3.888525 3.174623 0
M  V30 5 C 2.350717 -2.670203 2.537671 0
M  V30 6 C 1.270323 -1.886335 2.245394 0
M  V30 7 N 1.319794 -0.620222 1.613828 0
M  V30 8 C 0.577211 -0.035936 0.558666 0
M  V30 9 N 0.768480 1.267141 0.296386 0
M  V30 10 C 0.121610 1.891674 -0.702700 0
M  V30 11 C 0.390528 3.302857 -0.925057 0
M  V30 12 C -0.213422 4.040785 -1.918083 0
M  V30 13 C 0.034358 5.387817 -2.148942 0
M  V30 14 C 0.943726 6.027466 -1.330601 0
M  V30 15 N 1.563519 5.326631 -0.332451 0
M  V30 16 C 1.283888 4.005522 -0.149176 0
M  V30 17 C -0.759490 1.169161 -1.473657 0
M  V30 18 N -0.951755 -0.157992 -1.204183 0
M  V30 19 C -1.769054 -0.994234 -1.870036 0
M  V30 20 C -1.602852 -2.219619 -1.224541 0
M  V30 21 N -0.716677 -2.048136 -0.233324 0
M  V30 22 C -0.301189 -0.773130 -0.204471 0
M  V30 23 C -0.012845 -2.322162 2.598769 0
M  V30 24 C -0.109999 -3.552032 3.238187 0
M  V30 25 H -0.556125 -5.727548 5.553219 0
M  V30 26 H -1.077703 -5.965132 3.824693 0
M  V30 27 H -0.135451 -7.252019 4.652453 0
M  V30 28 H 3.157846 -4.442224 3.363610 0
M  V30 29 H 3.318162 -2.264771 2.233553 0
M  V30 30 H 2.079187 -0.092620 2.086235 0
M  V30 31 H -0.923091 3.594021 -2.574236 0
M  V30 32 H -0.484616 5.917416 -2.965128 0
M  V30 33 H 1.135287 7.087107 -1.517068 0
M  V30 34 H 1.824293 3.547668 0.662678 0
M  V30 35 H -1.304954 1.640469 -2.294194 0
M  V30 36 H -2.435465 -0.858938 -2.711691 0
M  V30 37 H -2.057896 -3.191935 -1.410822 0
M  V30 38 H -0.972405 -1.839597 2.466302 0
M  V30 39 H -1.059247 -3.957291 3.541423 0
M  V30 END ATOM
M  V30 BEGIN BOND
M  V30 1 1 1 2
M  V30 2 1 2 3
M  V30 3 2 3 4
M  V30 4 1 4 5
M  V30 5 2 5 6
M  V30 6 1 6 7
M  V30 7 1 7 8
M  V30 8 2 8 9
M  V30 9 1 9 10
M  V30 10 1 10 11
M  V30 11 2 11 12
M  V30 12 1 12 13
M  V30 13 2 13 14
M  V30 14 1 14 15
M  V30 15 2 15 16
M  V30 16 2 10 17
M  V30 17 1 17 18
M  V30 18 1 18 19
M  V30 19 2 19 20
M  V30 20 1 20 21
M  V30 21 2 21 22
M  V30 22 1 6 23
M  V30 23 2 23 24
M  V30 24 1 24 3
M  V30 25 1 22 8
M  V30 26 1 16 11
M  V30 27 1 22 18
M  V30 28 1 1 25
M  V30 29 1 1 26
M  V30 30 1 1 27
M  V30 31 1 4 28
M  V30 32 1 5 29
M  V30 33 1 7 30
M  V30 34 1 12 31
M  V30 35 1 13 32
M  V30 36 1 14 33
M  V30 37 1 16 34
M  V30 38 1 17 35
M  V30 39 1 19 36
M  V30 40 1 20 37
M  V30 41 1 23 38
M  V30 42 1 24 39
M  V30 END BOND
M  V30 END CTAB
M  END
>  <Dataset>  (969) 
ChEMBL_Kinases

>  <Ligand_Instance>  (969) 
nan

>  <PDB_ID>  (969) 
nan

>  <Standardized_SMILES>  (969) 
COc1ccc(Nc2nc(-c3cccnc3)cn3ccnc23)cc1

>  <Name>  (969) 
nan

>  <Pocket>  (969) 
nan

>  <ATP_Site>  (969) 
nan

>  <Peripheral>  (969) 
nan

>  <Num_H_Atoms_ProtBoundConf>  (969) 
nan

>  <Num_Resolved_Atoms>  (969) 
nan

>  <Num_Not_Resolved_Atoms>  (969) 
nan

$$$$
CHEMBL1257295
     RDKit          3D

  0  0  0  0  0  0  0  0  0  0999 V3000
M  V30 BEGIN CTAB
M  V30 COUNTS 49 52 0 0 0
M  V30 BEGIN ATOM
M  V30 1 C 2.112688 -7.325719 1.659233 0
M  V30 2 C 1.909888 -5.881521 1.290012 0
M  V30 3 C 0.644285 -5.436527 0.967909 0
M  V30 4 C 0.484369 -4.106041 0.632427 0
M  V30 5 C 1.558087 -3.222506 0.613963 0
M  V30 6 C 1.260704 -1.828228 0.239917 0
M  V30 7 N 1.988041 -1.075117 -0.622997 0
M  V30 8 C 1.562042 0.198084 -0.849623 0
M  V30 9 C 2.318539 0.957609 -1.736981 0
M  V30 10 C 3.542350 0.433125 -2.423829 0
M  V30 11 N 1.902724 2.235992 -1.973403 0
M  V30 12 C 0.827403 2.759405 -1.396595 0
M  V30 13 N 0.483142 4.104150 -1.714613 0
M  V30 14 N 0.089845 2.031642 -0.536896 0
M  V30 15 C 0.436637 0.760006 -0.251986 0
M  V30 16 N -0.277271 -0.018829 0.611918 0
M  V30 17 C -1.416045 0.623013 1.185353 0 CFG=1
M  V30 18 C -2.451420 -0.276824 1.763353 0
M  V30 19 C -3.737676 0.544016 1.928084 0
M  V30 20 C -3.463380 1.939650 2.368585 0 CFG=2
M  V30 21 O -3.580419 2.822825 1.290779 0
M  V30 22 C -2.158643 2.082762 3.085450 0
M  V30 23 C -1.014537 1.651638 2.226698 0
M  V30 24 C 0.143820 -1.277367 0.835936 0
M  V30 25 O -0.604358 -1.883256 1.651491 0
M  V30 26 C 2.817978 -3.717826 0.946721 0
M  V30 27 N 2.939040 -5.014400 1.267631 0
M  V30 28 H 3.032566 -7.725332 1.191995 0
M  V30 29 H 2.187551 -7.364297 2.783518 0
M  V30 30 H 1.213731 -7.888592 1.378932 0
M  V30 31 H -0.164735 -6.155740 0.994194 0
M  V30 32 H -0.550535 -3.857331 0.395688 0
M  V30 33 H 4.290574 1.238244 -2.502734 0
M  V30 34 H 3.255353 0.188863 -3.468378 0
M  V30 35 H 3.925006 -0.437947 -1.860270 0
M  V30 36 H -0.384682 4.460777 -2.208800 0
M  V30 37 H 1.196221 4.832683 -1.412112 0
M  V30 38 H -1.933841 1.220922 0.384492 0
M  V30 39 H -2.708759 -1.064927 1.040481 0
M  V30 40 H -2.222246 -0.632846 2.785534 0
M  V30 41 H -4.376712 0.041452 2.691321 0
M  V30 42 H -4.330204 0.508707 0.972639 0
M  V30 43 H -4.259603 2.266514 3.089785 0
M  V30 44 H -4.531536 2.931346 1.037572 0
M  V30 45 H -2.009979 3.129189 3.396837 0
M  V30 46 H -2.197938 1.398227 3.963857 0
M  V30 47 H -0.219807 1.180666 2.839306 0
M  V30 48 H -0.559401 2.546847 1.771882 0
M  V30 49 H 3.624041 -3.004633 0.921325 0
M  V30 END ATOM
M  V30 BEGIN BOND
M  V30 1 1 1 2
M  V30 2 2 2 3
M  V30 3 1 3 4
M  V30 4 2 4 5
M  V30 5 1 5 6
M  V30 6 2 6 7
M  V30 7 1 7 8
M  V30 8 2 8 9
M  V30 9 1 9 10
M  V30 10 1 9 11
M  V30 11 2 11 12
M  V30 12 1 12 13
M  V30 13 1 12 14
M  V30 14 2 14 15
M  V30 15 1 15 16
M  V30 16 1 16 17
M  V30 17 1 17 18
M  V30 18 1 18 19
M  V30 19 1 19 20
M  V30 20 1 20 21
M  V30 21 1 20 22
M  V30 22 1 22 23
M  V30 23 1 16 24
M  V30 24 2 24 25
M  V30 25 1 5 26
M  V30 26 2 26 27
M  V30 27 1 27 2
M  V30 28 1 24 6
M  V30 29 1 15 8
M  V30 30 1 23 17
M  V30 31 1 1 28
M  V30 32 1 1 29
M  V30 33 1 1 30
M  V30 34 1 3 31
M  V30 35 1 4 32
M  V30 36 1 10 33
M  V30 37 1 10 34
M  V30 38 1 10 35
M  V30 39 1 13 36
M  V30 40 1 13 37
M  V30 41 1 17 38 CFG=3
M  V30 42 1 18 39
M  V30 43 1 18 40
M  V30 44 1 19 41
M  V30 45 1 19 42
M  V30 46 1 20 43 CFG=1
M  V30 47 1 21 44
M  V30 48 1 22 45
M  V30 49 1 22 46
M  V30 50 1 23 47
M  V30 51 1 23 48
M  V30 52 1 26 49
M  V30 END BOND
M  V30 END CTAB
M  END
>  <Dataset>  (970) 
ChEMBL_Kinases

>  <Ligand_Instance>  (970) 
nan

>  <PDB_ID>  (970) 
nan

>  <Standardized_SMILES>  (970) 
Cc1ccc(-c2nc3c(C)nc(N)nc3n([C@H]3CC[C@H](O)CC3)c2=O)cn1

>  <Name>  (970) 
nan

>  <Pocket>  (970) 
nan

>  <ATP_Site>  (970) 
nan

>  <Peripheral>  (970) 
nan

>  <Num_H_Atoms_ProtBoundConf>  (970) 
nan

>  <Num_Resolved_Atoms>  (970) 
nan

>  <Num_Not_Resolved_Atoms>  (970) 
nan

$$$$
CHEMBL1257211
     RDKit          3D

  0  0  0  0  0  0  0  0  0  0999 V3000
M  V30 BEGIN CTAB
M  V30 COUNTS 48 52 0 0 0
M  V30 BEGIN ATOM
M  V30 1 C 3.534047 -4.058319 0.694579 0
M  V30 2 C 3.940601 -5.077486 -0.178654 0
M  V30 3 N 3.901268 -4.841049 -1.485308 0
M  V30 4 C 3.495433 -3.682885 -2.026500 0
M  V30 5 C 3.083247 -2.639269 -1.250182 0
M  V30 6 C 2.603187 -1.329086 -1.676378 0
M  V30 7 C 2.483978 -0.966632 -3.001772 0
M  V30 8 N 2.028833 0.240171 -3.381412 0
M  V30 9 C 1.783893 0.927720 -4.508055 0
M  V30 10 C 1.298208 2.194338 -4.279149 0
M  V30 11 N 1.237908 2.296184 -2.914717 0
M  V30 12 C 1.686362 1.102538 -2.415342 0
M  V30 13 C 1.775131 0.820905 -1.081089 0
M  V30 14 N 1.466865 1.550807 0.089985 0
M  V30 15 C 0.316852 1.216324 0.847014 0
M  V30 16 C 0.167518 1.793931 2.116361 0
M  V30 17 C -0.899193 1.526784 2.942651 0
M  V30 18 C -1.862704 0.651238 2.497507 0
M  V30 19 N -2.963866 0.343164 3.342023 0
M  V30 20 C -3.009074 0.556504 4.788151 0
M  V30 21 C -3.521342 -0.637568 5.519909 0
M  V30 22 O -4.147139 -1.609768 4.867595 0
M  V30 23 C -4.325009 -1.573692 3.532109 0
M  V30 24 C -4.226467 -0.220047 2.889423 0
M  V30 25 C -1.720101 0.092959 1.269354 0
M  V30 26 C -0.664034 0.344409 0.427965 0
M  V30 27 N 2.237810 -0.402867 -0.787653 0
M  V30 28 C 3.120792 -2.877455 0.121600 0
M  V30 29 H 3.530002 -4.156384 1.771558 0
M  V30 30 H 4.250685 -5.973864 0.311765 0
M  V30 31 H 3.467360 -3.501501 -3.102601 0
M  V30 32 H 2.759700 -1.653281 -3.788460 0
M  V30 33 H 1.964719 0.490147 -5.500480 0
M  V30 34 H 1.014678 2.967208 -4.974655 0
M  V30 35 H 2.087942 2.322598 0.375762 0
M  V30 36 H 0.933227 2.477295 2.438292 0
M  V30 37 H -0.906915 2.037743 3.910176 0
M  V30 38 H -3.719859 1.407229 4.919915 0
M  V30 39 H -2.033732 0.907994 5.158879 0
M  V30 40 H -2.643137 -1.055003 6.087061 0
M  V30 41 H -4.187507 -0.268158 6.345549 0
M  V30 42 H -5.347414 -1.953017 3.326509 0
M  V30 43 H -3.635844 -2.241568 2.955489 0
M  V30 44 H -4.298855 -0.312965 1.806470 0
M  V30 45 H -5.065732 0.402610 3.318361 0
M  V30 46 H -2.489015 -0.602341 0.926843 0
M  V30 47 H -0.565817 -0.112308 -0.555288 0
M  V30 48 H 2.806535 -2.091498 0.803566 0
M  V30 END ATOM
M  V30 BEGIN BOND
M  V30 1 2 1 2
M  V30 2 1 2 3
M  V30 3 2 3 4
M  V30 4 1 4 5
M  V30 5 1 5 6
M  V30 6 2 6 7
M  V30 7 1 7 8
M  V30 8 1 8 9
M  V30 9 2 9 10
M  V30 10 1 10 11
M  V30 11 2 11 12
M  V30 12 1 12 13
M  V30 13 1 13 14
M  V30 14 1 14 15
M  V30 15 2 15 16
M  V30 16 1 16 17
M  V30 17 2 17 18
M  V30 18 1 18 19
M  V30 19 1 19 20
M  V30 20 1 20 21
M  V30 21 1 21 22
M  V30 22 1 22 23
M  V30 23 1 23 24
M  V30 24 1 18 25
M  V30 25 2 25 26
M  V30 26 2 13 27
M  V30 27 2 5 28
M  V30 28 1 28 1
M  V30 29 1 27 6
M  V30 30 1 12 8
M  V30 31 1 26 15
M  V30 32 1 24 19
M  V30 33 1 1 29
M  V30 34 1 2 30
M  V30 35 1 4 31
M  V30 36 1 7 32
M  V30 37 1 9 33
M  V30 38 1 10 34
M  V30 39 1 14 35
M  V30 40 1 16 36
M  V30 41 1 17 37
M  V30 42 1 20 38
M  V30 43 1 20 39
M  V30 44 1 21 40
M  V30 45 1 21 41
M  V30 46 1 23 42
M  V30 47 1 23 43
M  V30 48 1 24 44
M  V30 49 1 24 45
M  V30 50 1 25 46
M  V30 51 1 26 47
M  V30 52 1 28 48
M  V30 END BOND
M  V30 END CTAB
M  END
>  <Dataset>  (971) 
ChEMBL_Kinases

>  <Ligand_Instance>  (971) 
nan

>  <PDB_ID>  (971) 
nan

>  <Standardized_SMILES>  (971) 
c1cncc(-c2cn3ccnc3c(Nc3ccc(N4CCOCC4)cc3)n2)c1

>  <Name>  (971) 
nan

>  <Pocket>  (971) 
nan

>  <ATP_Site>  (971) 
nan

>  <Peripheral>  (971) 
nan

>  <Num_H_Atoms_ProtBoundConf>  (971) 
nan

>  <Num_Resolved_Atoms>  (971) 
nan

>  <Num_Not_Resolved_Atoms>  (971) 
nan

$$$$
CHEMBL1257210
     RDKit          3D

  0  0  0  0  0  0  0  0  0  0999 V3000
M  V30 BEGIN CTAB
M  V30 COUNTS 35 38 0 0 0
M  V30 BEGIN ATOM
M  V30 1 C 0.862366 -3.594999 4.325528 0
M  V30 2 C -0.050059 -4.409904 3.693102 0
M  V30 3 C -0.636857 -4.021771 2.518710 0
M  V30 4 C -0.363468 -2.804272 1.889098 0
M  V30 5 N -0.984137 -2.424983 0.673199 0
M  V30 6 C -0.818868 -1.239815 -0.085573 0
M  V30 7 N -0.012086 -0.225456 0.226230 0
M  V30 8 C 0.156526 0.902030 -0.479172 0
M  V30 9 C 1.062543 1.959572 -0.060344 0
M  V30 10 C 1.828302 1.916640 1.082122 0
M  V30 11 C 2.686997 2.927308 1.472034 0
M  V30 12 C 2.801484 4.057491 0.686158 0
M  V30 13 N 2.059231 4.116424 -0.435816 0
M  V30 14 C 1.223010 3.109671 -0.796553 0
M  V30 15 C -0.588654 0.990790 -1.630469 0
M  V30 16 N -1.422346 0.002857 -2.003393 0
M  V30 17 C -2.235818 -0.118827 -3.076221 0
M  V30 18 C -2.867988 -1.338084 -2.963295 0
M  V30 19 N -2.426131 -1.918158 -1.836684 0
M  V30 20 C -1.536553 -1.092103 -1.246768 0
M  V30 21 C 0.557159 -2.052193 2.586243 0
M  V30 22 C 1.168987 -2.397466 3.760734 0
M  V30 23 H 1.287662 -3.956804 5.244451 0
M  V30 24 H -0.320859 -5.369411 4.109344 0
M  V30 25 H -1.353212 -4.699198 2.053850 0
M  V30 26 H -1.652929 -3.153084 0.319857 0
M  V30 27 H 1.774650 1.055634 1.729326 0
M  V30 28 H 3.269375 2.848386 2.379856 0
M  V30 29 H 3.463268 4.869699 0.958621 0
M  V30 30 H 0.707222 3.302638 -1.704158 0
M  V30 31 H -0.542319 1.834846 -2.273965 0
M  V30 32 H -2.364330 0.617608 -3.881741 0
M  V30 33 H -3.578083 -1.715200 -3.671776 0
M  V30 34 H 0.854452 -1.088324 2.204611 0
M  V30 35 H 1.885625 -1.762995 4.262145 0
M  V30 END ATOM
M  V30 BEGIN BOND
M  V30 1 2 1 2
M  V30 2 1 2 3
M  V30 3 2 3 4
M  V30 4 1 4 5
M  V30 5 1 5 6
M  V30 6 2 6 7
M  V30 7 1 7 8
M  V30 8 1 8 9
M  V30 9 2 9 10
M  V30 10 1 10 11
M  V30 11 2 11 12
M  V30 12 1 12 13
M  V30 13 2 13 14
M  V30 14 2 8 15
M  V30 15 1 15 16
M  V30 16 1 16 17
M  V30 17 2 17 18
M  V30 18 1 18 19
M  V30 19 2 19 20
M  V30 20 1 4 21
M  V30 21 2 21 22
M  V30 22 1 22 1
M  V30 23 1 20 6
M  V30 24 1 14 9
M  V30 25 1 20 16
M  V30 26 1 1 23
M  V30 27 1 2 24
M  V30 28 1 3 25
M  V30 29 1 5 26
M  V30 30 1 10 27
M  V30 31 1 11 28
M  V30 32 1 12 29
M  V30 33 1 14 30
M  V30 34 1 15 31
M  V30 35 1 17 32
M  V30 36 1 18 33
M  V30 37 1 21 34
M  V30 38 1 22 35
M  V30 END BOND
M  V30 END CTAB
M  END
>  <Dataset>  (972) 
ChEMBL_Kinases

>  <Ligand_Instance>  (972) 
nan

>  <PDB_ID>  (972) 
nan

>  <Standardized_SMILES>  (972) 
c1ccc(Nc2nc(-c3cccnc3)cn3ccnc23)cc1

>  <Name>  (972) 
nan

>  <Pocket>  (972) 
nan

>  <ATP_Site>  (972) 
nan

>  <Peripheral>  (972) 
nan

>  <Num_H_Atoms_ProtBoundConf>  (972) 
nan

>  <Num_Resolved_Atoms>  (972) 
nan

>  <Num_Not_Resolved_Atoms>  (972) 
nan

$$$$
CHEMBL1257178
     RDKit          3D

  0  0  0  0  0  0  0  0  0  0999 V3000
M  V30 BEGIN CTAB
M  V30 COUNTS 46 49 0 0 0
M  V30 BEGIN ATOM
M  V30 1 C -1.672270 -6.918886 0.685435 0
M  V30 2 C -1.317503 -5.463655 0.555591 0
M  V30 3 C -2.192812 -4.522930 0.047869 0
M  V30 4 C -1.710516 -3.227293 -0.003902 0
M  V30 5 C -0.429353 -2.931796 0.433586 0
M  V30 6 C 0.098444 -1.572705 0.387600 0
M  V30 7 N -0.176300 -0.963853 -0.804994 0
M  V30 8 C 0.267527 0.314513 -0.969400 0
M  V30 9 C -0.000602 0.933717 -2.169047 0
M  V30 10 C -0.755380 0.202413 -3.221756 0
M  V30 11 N 0.454769 2.189192 -2.298845 0
M  V30 12 C 1.137072 2.804424 -1.304173 0
M  V30 13 N 1.567762 4.141124 -1.567619 0
M  V30 14 N 1.366293 2.152499 -0.163032 0
M  V30 15 C 0.956115 0.902483 0.066246 0
M  V30 16 N 1.265482 0.377158 1.262036 0
M  V30 17 C 1.962033 0.927039 2.349564 0
M  V30 18 C 1.548443 0.422680 3.714676 0
M  V30 19 C 0.101971 0.731765 3.881371 0
M  V30 20 O -0.007733 2.132278 4.057005 0
M  V30 21 C 0.394452 2.794283 2.894138 0
M  V30 22 C 1.818664 2.425824 2.519222 0
M  V30 23 C 0.807442 -0.899516 1.390956 0
M  V30 24 O 0.907521 -1.683713 2.342296 0
M  V30 25 C 0.419073 -3.908281 0.937535 0
M  V30 26 N -0.072030 -5.175229 0.980681 0
M  V30 27 H -1.065415 -7.525020 0.003521 0
M  V30 28 H -2.752894 -7.004799 0.540338 0
M  V30 29 H -1.460303 -7.269674 1.738044 0
M  V30 30 H -3.176578 -4.831323 -0.273163 0
M  V30 31 H -2.353648 -2.451763 -0.392344 0
M  V30 32 H -0.645417 -0.882023 -3.092338 0
M  V30 33 H -1.846050 0.447505 -3.120766 0
M  V30 34 H -0.397794 0.529013 -4.216517 0
M  V30 35 H 0.901836 4.923899 -1.701194 0
M  V30 36 H 2.593619 4.373765 -1.634915 0
M  V30 37 H 3.039667 0.692417 2.251146 0
M  V30 38 H 1.904223 -0.552814 4.004205 0
M  V30 39 H 2.076922 1.114823 4.450389 0
M  V30 40 H -0.520649 0.559522 2.954964 0
M  V30 41 H -0.369767 0.248057 4.749757 0
M  V30 42 H -0.264717 2.526783 2.070401 0
M  V30 43 H 0.394367 3.878583 3.126172 0
M  V30 44 H 2.507884 2.656844 3.403847 0
M  V30 45 H 2.158639 3.059660 1.733348 0
M  V30 46 H 1.425809 -3.723462 1.289967 0
M  V30 END ATOM
M  V30 BEGIN BOND
M  V30 1 1 1 2
M  V30 2 2 2 3
M  V30 3 1 3 4
M  V30 4 2 4 5
M  V30 5 1 5 6
M  V30 6 2 6 7
M  V30 7 1 7 8
M  V30 8 2 8 9
M  V30 9 1 9 10
M  V30 10 1 9 11
M  V30 11 2 11 12
M  V30 12 1 12 13
M  V30 13 1 12 14
M  V30 14 2 14 15
M  V30 15 1 15 16
M  V30 16 1 16 17
M  V30 17 1 17 18
M  V30 18 1 18 19
M  V30 19 1 19 20
M  V30 20 1 20 21
M  V30 21 1 21 22
M  V30 22 1 16 23
M  V30 23 2 23 24
M  V30 24 1 5 25
M  V30 25 2 25 26
M  V30 26 1 26 2
M  V30 27 1 23 6
M  V30 28 1 15 8
M  V30 29 1 22 17
M  V30 30 1 1 27
M  V30 31 1 1 28
M  V30 32 1 1 29
M  V30 33 1 3 30
M  V30 34 1 4 31
M  V30 35 1 10 32
M  V30 36 1 10 33
M  V30 37 1 10 34
M  V30 38 1 13 35
M  V30 39 1 13 36
M  V30 40 1 17 37
M  V30 41 1 18 38
M  V30 42 1 18 39
M  V30 43 1 19 40
M  V30 44 1 19 41
M  V30 45 1 21 42
M  V30 46 1 21 43
M  V30 47 1 22 44
M  V30 48 1 22 45
M  V30 49 1 25 46
M  V30 END BOND
M  V30 END CTAB
M  END
>  <Dataset>  (973) 
ChEMBL_Kinases

>  <Ligand_Instance>  (973) 
nan

>  <PDB_ID>  (973) 
nan

>  <Standardized_SMILES>  (973) 
Cc1ccc(-c2nc3c(C)nc(N)nc3n(C3CCOCC3)c2=O)cn1

>  <Name>  (973) 
nan

>  <Pocket>  (973) 
nan

>  <ATP_Site>  (973) 
nan

>  <Peripheral>  (973) 
nan

>  <Num_H_Atoms_ProtBoundConf>  (973) 
nan

>  <Num_Resolved_Atoms>  (973) 
nan

>  <Num_Not_Resolved_Atoms>  (973) 
nan

$$$$
CHEMBL1257177
     RDKit          3D

  0  0  0  0  0  0  0  0  0  0999 V3000
M  V30 BEGIN CTAB
M  V30 COUNTS 50 53 0 0 0
M  V30 BEGIN ATOM
M  V30 1 C 5.843781 -5.977374 1.603375 0
M  V30 2 O 5.765385 -4.627839 2.092306 0
M  V30 3 C 4.702086 -3.808896 1.735773 0
M  V30 4 C 4.667553 -2.506357 2.234133 0
M  V30 5 C 3.600834 -1.689590 1.874537 0
M  V30 6 C 2.590366 -2.136630 1.046028 0
M  V30 7 C 1.543064 -1.162427 0.761853 0
M  V30 8 N 1.913760 0.095656 0.447995 0
M  V30 9 C 0.981895 1.052853 0.171794 0
M  V30 10 C 1.334391 2.350750 -0.152907 0
M  V30 11 C 2.783143 2.620905 -0.178121 0
M  V30 12 N 0.378051 3.260007 -0.417447 0
M  V30 13 C -0.928546 2.928336 -0.371946 0
M  V30 14 N -1.951279 3.869611 -0.646825 0
M  V30 15 N -1.225790 1.676815 -0.057536 0
M  V30 16 C -0.355468 0.695407 0.223006 0
M  V30 17 N -0.760826 -0.568619 0.537337 0
M  V30 18 C -2.182317 -0.879720 0.573981 0 CFG=1
M  V30 19 C -2.753770 -0.117259 1.718390 0
M  V30 20 C -4.075403 0.530880 1.509109 0
M  V30 21 C -4.882382 -0.003948 0.370937 0 CFG=2
M  V30 22 O -5.367334 -1.275598 0.548304 0
M  V30 23 C -4.011391 0.156801 -0.849335 0
M  V30 24 C -2.736159 -0.605465 -0.773546 0
M  V30 25 C 0.195136 -1.459318 0.797082 0
M  V30 26 O -0.135772 -2.637922 1.091606 0
M  V30 27 C 2.671728 -3.433375 0.580099 0
M  V30 28 N 3.705466 -4.222979 0.929341 0
M  V30 29 H 6.753483 -6.469993 1.940926 0
M  V30 30 H 4.973847 -6.502799 2.051408 0
M  V30 31 H 5.677564 -6.000055 0.499949 0
M  V30 32 H 5.441497 -2.129949 2.882314 0
M  V30 33 H 3.620436 -0.680295 2.290503 0
M  V30 34 H 3.355370 1.848333 -0.737454 0
M  V30 35 H 3.134393 2.683802 0.868045 0
M  V30 36 H 2.929820 3.637113 -0.615515 0
M  V30 37 H -2.605735 4.364797 -0.001697 0
M  V30 38 H -1.895459 3.955138 -1.680845 0
M  V30 39 H -2.246727 -1.978174 0.786527 0
M  V30 40 H -2.864982 -0.788733 2.599474 0
M  V30 41 H -2.068641 0.688208 2.096229 0
M  V30 42 H -3.966821 1.639932 1.335790 0
M  V30 43 H -4.725025 0.472248 2.417601 0
M  V30 44 H -5.733415 0.720744 0.228575 0
M  V30 45 H -4.640027 -1.929460 0.333947 0
M  V30 46 H -4.640514 -0.141301 -1.714482 0
M  V30 47 H -3.835452 1.243979 -0.975377 0
M  V30 48 H -2.930046 -1.568329 -1.322662 0
M  V30 49 H -2.002674 -0.090730 -1.448854 0
M  V30 50 H 1.860428 -3.740622 -0.064459 0
M  V30 END ATOM
M  V30 BEGIN BOND
M  V30 1 1 1 2
M  V30 2 1 2 3
M  V30 3 2 3 4
M  V30 4 1 4 5
M  V30 5 2 5 6
M  V30 6 1 6 7
M  V30 7 2 7 8
M  V30 8 1 8 9
M  V30 9 2 9 10
M  V30 10 1 10 11
M  V30 11 1 10 12
M  V30 12 2 12 13
M  V30 13 1 13 14
M  V30 14 1 13 15
M  V30 15 2 15 16
M  V30 16 1 16 17
M  V30 17 1 17 18
M  V30 18 1 18 19
M  V30 19 1 19 20
M  V30 20 1 20 21
M  V30 21 1 21 22
M  V30 22 1 21 23
M  V30 23 1 23 24
M  V30 24 1 17 25
M  V30 25 2 25 26
M  V30 26 1 6 27
M  V30 27 2 27 28
M  V30 28 1 28 3
M  V30 29 1 25 7
M  V30 30 1 16 9
M  V30 31 1 24 18
M  V30 32 1 1 29
M  V30 33 1 1 30
M  V30 34 1 1 31
M  V30 35 1 4 32
M  V30 36 1 5 33
M  V30 37 1 11 34
M  V30 38 1 11 35
M  V30 39 1 11 36
M  V30 40 1 14 37
M  V30 41 1 14 38
M  V30 42 1 18 39 CFG=1
M  V30 43 1 19 40
M  V30 44 1 19 41
M  V30 45 1 20 42
M  V30 46 1 20 43
M  V30 47 1 21 44 CFG=3
M  V30 48 1 22 45
M  V30 49 1 23 46
M  V30 50 1 23 47
M  V30 51 1 24 48
M  V30 52 1 24 49
M  V30 53 1 27 50
M  V30 END BOND
M  V30 END CTAB
M  END
>  <Dataset>  (974) 
ChEMBL_Kinases

>  <Ligand_Instance>  (974) 
nan

>  <PDB_ID>  (974) 
nan

>  <Standardized_SMILES>  (974) 
COc1ccc(-c2nc3c(C)nc(N)nc3n([C@H]3CC[C@H](O)CC3)c2=O)cn1

>  <Name>  (974) 
nan

>  <Pocket>  (974) 
nan

>  <ATP_Site>  (974) 
nan

>  <Peripheral>  (974) 
nan

>  <Num_H_Atoms_ProtBoundConf>  (974) 
nan

>  <Num_Resolved_Atoms>  (974) 
nan

>  <Num_Not_Resolved_Atoms>  (974) 
nan

$$$$
CHEMBL1257089
     RDKit          3D

  0  0  0  0  0  0  0  0  0  0999 V3000
M  V30 BEGIN CTAB
M  V30 COUNTS 49 53 0 0 0
M  V30 BEGIN ATOM
M  V30 1 C 2.881277 -5.243699 3.150756 0
M  V30 2 C 2.925515 -3.814251 2.763038 0
M  V30 3 C 2.890488 -2.694940 3.566798 0
M  V30 4 C 2.915738 -1.407943 3.139192 0
M  V30 5 C 2.982773 -1.132243 1.761640 0
M  V30 6 N 2.995796 0.046358 1.163566 0
M  V30 7 C 3.036670 0.187773 -0.059669 0
M  V30 8 N 3.017071 1.536576 -0.649586 0
M  V30 9 C 1.604003 1.766968 -0.801286 0
M  V30 10 O 1.118308 0.700396 -0.385653 0
M  V30 11 C 0.818418 2.892527 -1.291053 0
M  V30 12 S -0.946345 2.429183 -1.400242 0
M  V30 13 C -1.476060 1.589093 0.074651 0
M  V30 14 N -1.717934 2.110697 1.271099 0
M  V30 15 C -2.180249 1.390387 2.318149 0
M  V30 16 C -2.407528 0.029287 2.102786 0
M  V30 17 C -2.152555 -0.516987 0.841300 0
M  V30 18 O -2.427900 -1.748180 0.867731 0
M  V30 19 N -1.691448 0.263920 -0.159183 0
M  V30 20 C -1.635425 -0.579057 -1.317519 0
M  V30 21 C -0.754959 -1.421614 -1.914770 0
M  V30 22 C -1.047527 -2.077269 -3.074892 0
M  V30 23 C -2.271389 -1.940176 -3.744118 0
M  V30 24 F -2.439538 -2.650101 -4.890905 0
M  V30 25 C -3.164918 -1.092262 -3.148656 0
M  V30 26 C -2.872332 -0.420567 -1.968121 0
M  V30 27 S -3.020315 -0.555608 3.712258 0
M  V30 28 C -3.583557 1.101517 4.267053 0
M  V30 29 C -2.436156 1.892880 3.653190 0
M  V30 30 S 3.071337 -1.485596 -0.709578 0
M  V30 31 C 3.016588 -2.261277 0.970773 0
M  V30 32 C 2.992817 -3.601629 1.390299 0
M  V30 33 H 3.215591 -5.904722 2.315156 0
M  V30 34 H 3.419842 -5.472032 4.073990 0
M  V30 35 H 1.813902 -5.543673 3.318260 0
M  V30 36 H 2.836176 -2.924104 4.647236 0
M  V30 37 H 2.880249 -0.627188 3.911227 0
M  V30 38 H 3.610257 2.292510 -0.962648 0
M  V30 39 H 0.939040 3.833980 -0.687456 0
M  V30 40 H 1.135611 3.095233 -2.349976 0
M  V30 41 H 0.151875 -1.510866 -1.359142 0
M  V30 42 H -0.235252 -2.723468 -3.445040 0
M  V30 43 H -4.094193 -1.028242 -3.705995 0
M  V30 44 H -3.748157 0.192191 -1.702593 0
M  V30 45 H -3.548294 1.148159 5.359073 0
M  V30 46 H -4.541458 1.340261 3.794711 0
M  V30 47 H -1.551747 1.826240 4.325261 0
M  V30 48 H -2.764384 2.936711 3.613202 0
M  V30 49 H 3.033179 -4.332607 0.601285 0
M  V30 END ATOM
M  V30 BEGIN BOND
M  V30 1 1 1 2
M  V30 2 2 2 3
M  V30 3 1 3 4
M  V30 4 2 4 5
M  V30 5 1 5 6
M  V30 6 2 6 7
M  V30 7 1 7 8
M  V30 8 1 8 9
M  V30 9 2 9 10
M  V30 10 1 9 11
M  V30 11 1 11 12
M  V30 12 1 12 13
M  V30 13 2 13 14
M  V30 14 1 14 15
M  V30 15 2 15 16
M  V30 16 1 16 17
M  V30 17 2 17 18
M  V30 18 1 17 19
M  V30 19 1 19 20
M  V30 20 2 20 21
M  V30 21 1 21 22
M  V30 22 2 22 23
M  V30 23 1 23 24
M  V30 24 1 23 25
M  V30 25 2 25 26
M  V30 26 1 16 27
M  V30 27 1 27 28
M  V30 28 1 28 29
M  V30 29 1 7 30
M  V30 30 1 30 31
M  V30 31 2 31 32
M  V30 32 1 32 2
M  V30 33 1 31 5
M  V30 34 1 19 13
M  V30 35 1 26 20
M  V30 36 1 29 15
M  V30 37 1 1 33
M  V30 38 1 1 34
M  V30 39 1 1 35
M  V30 40 1 3 36
M  V30 41 1 4 37
M  V30 42 1 8 38
M  V30 43 1 11 39
M  V30 44 1 11 40
M  V30 45 1 21 41
M  V30 46 1 22 42
M  V30 47 1 25 43
M  V30 48 1 26 44
M  V30 49 1 28 45
M  V30 50 1 28 46
M  V30 51 1 29 47
M  V30 52 1 29 48
M  V30 53 1 32 49
M  V30 END BOND
M  V30 END CTAB
M  END
>  <Dataset>  (975) 
ChEMBL_Kinases

>  <Ligand_Instance>  (975) 
nan

>  <PDB_ID>  (975) 
nan

>  <Standardized_SMILES>  (975) 
Cc1ccc2nc(NC(=O)CSc3nc4c(c(=O)n3-c3ccc(F)cc3)SCC4)sc2c1

>  <Name>  (975) 
nan

>  <Pocket>  (975) 
nan

>  <ATP_Site>  (975) 
nan

>  <Peripheral>  (975) 
nan

>  <Num_H_Atoms_ProtBoundConf>  (975) 
nan

>  <Num_Resolved_Atoms>  (975) 
nan

>  <Num_Not_Resolved_Atoms>  (975) 
nan

$$$$
CHEMBL1256910
     RDKit          3D

  0  0  0  0  0  0  0  0  0  0999 V3000
M  V30 BEGIN CTAB
M  V30 COUNTS 57 60 0 0 0
M  V30 BEGIN ATOM
M  V30 1 C 4.507022 -4.738972 2.996264 0
M  V30 2 O 3.771218 -3.535844 3.123048 0
M  V30 3 C 2.823253 -3.170779 2.170352 0
M  V30 4 C 2.582430 -3.985419 1.073705 0
M  V30 5 C 1.620763 -3.576730 0.143335 0
M  V30 6 C 0.941080 -2.393195 0.328398 0
M  V30 7 C 1.177718 -1.583111 1.415050 0
M  V30 8 C 2.130875 -1.987495 2.337856 0
M  V30 9 O 2.416347 -1.217335 3.453717 0
M  V30 10 C 1.743981 0.017034 3.696593 0
M  V30 11 C -0.045335 -2.024307 -0.674022 0
M  V30 12 C -0.766082 -0.856329 -0.558788 0
M  V30 13 C -1.700494 -0.531615 -1.530685 0
M  V30 14 N -2.405794 0.549551 -1.476253 0
M  V30 15 C -2.174529 1.400275 -0.358146 0
M  V30 16 C -2.720602 1.279030 0.896297 0
M  V30 17 C -3.641022 0.152064 1.107592 0
M  V30 18 C -2.397527 2.189210 1.883715 0
M  V30 19 C -1.534313 3.239005 1.670946 0
M  V30 20 C -1.207962 4.208784 2.771888 0
M  V30 21 C -0.983342 3.362449 0.407565 0
M  V30 22 C -1.293693 2.457210 -0.604722 0
M  V30 23 C -0.643611 2.682047 -1.931830 0
M  V30 24 N -1.850122 -1.407623 -2.561096 0
M  V30 25 C -2.841492 -1.039255 -3.569709 0
M  V30 26 C -1.122493 -2.555839 -2.648316 0
M  V30 27 O -1.391598 -3.247895 -3.668750 0
M  V30 28 N -0.211085 -2.872362 -1.700181 0
M  V30 29 C 0.444228 -4.112959 -1.974131 0
M  V30 30 C 1.463804 -4.539427 -0.977174 0
M  V30 31 H 3.895740 -5.641938 3.064786 0
M  V30 32 H 5.116036 -4.766620 2.066541 0
M  V30 33 H 5.230827 -4.768897 3.853071 0
M  V30 34 H 3.161039 -4.900265 1.003423 0
M  V30 35 H 0.680586 -0.668704 1.596347 0
M  V30 36 H 1.757190 0.672589 2.783289 0
M  V30 37 H 0.725366 -0.191079 4.068643 0
M  V30 38 H 2.284812 0.598350 4.464854 0
M  V30 39 H -0.658197 -0.167078 0.238476 0
M  V30 40 H -3.094783 -0.772594 1.455961 0
M  V30 41 H -4.214573 -0.122377 0.210756 0
M  V30 42 H -4.376657 0.331564 1.930272 0
M  V30 43 H -2.867243 2.028017 2.845411 0
M  V30 44 H -0.392264 3.847236 3.413430 0
M  V30 45 H -0.840042 5.133058 2.273828 0
M  V30 46 H -2.136971 4.474516 3.329690 0
M  V30 47 H -0.294795 4.181188 0.199435 0
M  V30 48 H -1.069159 3.571237 -2.441952 0
M  V30 49 H 0.449712 2.788472 -1.743538 0
M  V30 50 H -0.785599 1.791081 -2.579530 0
M  V30 51 H -2.397798 -0.458181 -4.399645 0
M  V30 52 H -3.256448 -1.972814 -4.029932 0
M  V30 53 H -3.640896 -0.433138 -3.113336 0
M  V30 54 H 0.883921 -4.116518 -3.017431 0
M  V30 55 H -0.351742 -4.892850 -2.038291 0
M  V30 56 H 2.426810 -4.718039 -1.501646 0
M  V30 57 H 1.135519 -5.500136 -0.484339 0
M  V30 END ATOM
M  V30 BEGIN BOND
M  V30 1 1 1 2
M  V30 2 1 2 3
M  V30 3 2 3 4
M  V30 4 1 4 5
M  V30 5 2 5 6
M  V30 6 1 6 7
M  V30 7 2 7 8
M  V30 8 1 8 9
M  V30 9 1 9 10
M  V30 10 1 6 11
M  V30 11 2 11 12
M  V30 12 1 12 13
M  V30 13 2 13 14
M  V30 14 1 14 15
M  V30 15 2 15 16
M  V30 16 1 16 17
M  V30 17 1 16 18
M  V30 18 2 18 19
M  V30 19 1 19 20
M  V30 20 1 19 21
M  V30 21 2 21 22
M  V30 22 1 22 23
M  V30 23 1 13 24
M  V30 24 1 24 25
M  V30 25 1 24 26
M  V30 26 2 26 27
M  V30 27 1 26 28
M  V30 28 1 28 29
M  V30 29 1 29 30
M  V30 30 1 8 3
M  V30 31 1 28 11
M  V30 32 1 30 5
M  V30 33 1 22 15
M  V30 34 1 1 31
M  V30 35 1 1 32
M  V30 36 1 1 33
M  V30 37 1 4 34
M  V30 38 1 7 35
M  V30 39 1 10 36
M  V30 40 1 10 37
M  V30 41 1 10 38
M  V30 42 1 12 39
M  V30 43 1 17 40
M  V30 44 1 17 41
M  V30 45 1 17 42
M  V30 46 1 18 43
M  V30 47 1 20 44
M  V30 48 1 20 45
M  V30 49 1 20 46
M  V30 50 1 21 47
M  V30 51 1 23 48
M  V30 52 1 23 49
M  V30 53 1 23 50
M  V30 54 1 25 51
M  V30 55 1 25 52
M  V30 56 1 25 53
M  V30 57 1 29 54
M  V30 58 1 29 55
M  V30 59 1 30 56
M  V30 60 1 30 57
M  V30 END BOND
M  V30 END CTAB
M  END
>  <Dataset>  (976) 
ChEMBL_Kinases

>  <Ligand_Instance>  (976) 
nan

>  <PDB_ID>  (976) 
nan

>  <Standardized_SMILES>  (976) 
COc1cc2c(cc1OC)-c1c/c(=N\c3c(C)cc(C)cc3C)n(C)c(=O)n1CC2

>  <Name>  (976) 
TREQUINSIN HYDROCHLORIDE

>  <Pocket>  (976) 
nan

>  <ATP_Site>  (976) 
nan

>  <Peripheral>  (976) 
nan

>  <Num_H_Atoms_ProtBoundConf>  (976) 
nan

>  <Num_Resolved_Atoms>  (976) 
nan

>  <Num_Not_Resolved_Atoms>  (976) 
nan

$$$$
CHEMBL1256865
     RDKit          3D

  0  0  0  0  0  0  0  0  0  0999 V3000
M  V30 BEGIN CTAB
M  V30 COUNTS 52 54 0 0 0
M  V30 BEGIN ATOM
M  V30 1 C 1.755715 -4.845837 3.675765 0
M  V30 2 O 0.671150 -4.428088 2.828933 0
M  V30 3 C 0.903595 -3.820705 1.615136 0
M  V30 4 O 2.144228 -3.890717 1.765890 0
M  V30 5 N 0.994669 -3.195021 0.363538 0
M  V30 6 C 2.195095 -2.845885 -0.319361 0
M  V30 7 C 2.417911 -1.337506 -0.358036 0
M  V30 8 N 1.105170 -0.744673 -0.511994 0
M  V30 9 C 0.847940 0.641566 -0.546005 0
M  V30 10 O 2.058247 0.262274 -0.438664 0
M  V30 11 C 1.062869 2.109282 -0.544892 0
M  V30 12 C 1.603645 2.565778 0.743280 0
M  V30 13 C 0.593805 2.861536 1.663511 0
M  V30 14 C 0.860486 3.306444 2.956253 0
M  V30 15 C 2.173316 3.467621 3.361922 0
M  V30 16 Cl 2.545347 4.023398 4.978637 0
M  V30 17 C 3.192350 3.176021 2.452653 0
M  V30 18 Cl 4.869748 3.356239 2.904212 0
M  V30 19 C 2.885058 2.732038 1.164175 0
M  V30 20 C -0.202767 -1.338155 -0.670770 0
M  V30 21 C -1.309260 -0.654115 0.061152 0
M  V30 22 N -2.582515 -1.273280 -0.116485 0
M  V30 23 C -3.624602 -0.547578 0.548643 0
M  V30 24 C -4.930178 -1.073859 -0.024338 0
M  V30 25 C -4.533140 -1.534849 -1.404350 0
M  V30 26 C -3.014066 -1.483751 -1.460841 0
M  V30 27 C -0.155400 -2.807847 -0.424494 0
M  V30 28 H 2.427925 -5.516749 3.141928 0
M  V30 29 H 2.355754 -3.957622 4.013427 0
M  V30 30 H 1.293921 -5.284100 4.557390 0
M  V30 31 H 2.154506 -3.231127 -1.356249 0
M  V30 32 H 3.075978 -3.332169 0.155145 0
M  V30 33 H 2.951596 -1.009168 0.561030 0
M  V30 34 H 3.000736 -1.137855 -1.270313 0
M  V30 35 H 1.785846 2.455110 -1.337878 0
M  V30 36 H 0.109120 2.631463 -0.819794 0
M  V30 37 H -0.484927 2.772581 1.449914 0
M  V30 38 H 0.046021 3.530220 3.657515 0
M  V30 39 H 3.626947 2.494004 0.412088 0
M  V30 40 H -0.440999 -1.200461 -1.772021 0
M  V30 41 H -1.401554 0.397685 -0.242899 0
M  V30 42 H -1.085242 -0.718811 1.170202 0
M  V30 43 H -3.543229 0.556887 0.359406 0
M  V30 44 H -3.619887 -0.737201 1.616162 0
M  V30 45 H -5.661511 -0.259156 -0.145095 0
M  V30 46 H -5.352660 -1.905707 0.578080 0
M  V30 47 H -4.976594 -0.963027 -2.225753 0
M  V30 48 H -4.880790 -2.574268 -1.517788 0
M  V30 49 H -2.661399 -2.428907 -1.918571 0
M  V30 50 H -2.690423 -0.660626 -2.124444 0
M  V30 51 H -1.085960 -3.074584 0.148848 0
M  V30 52 H -0.107247 -3.423285 -1.370113 0
M  V30 END ATOM
M  V30 BEGIN BOND
M  V30 1 1 1 2
M  V30 2 1 2 3
M  V30 3 2 3 4
M  V30 4 1 3 5
M  V30 5 1 5 6
M  V30 6 1 6 7
M  V30 7 1 7 8
M  V30 8 1 8 9
M  V30 9 2 9 10
M  V30 10 1 9 11
M  V30 11 1 11 12
M  V30 12 2 12 13
M  V30 13 1 13 14
M  V30 14 2 14 15
M  V30 15 1 15 16
M  V30 16 1 15 17
M  V30 17 1 17 18
M  V30 18 2 17 19
M  V30 19 1 8 20
M  V30 20 1 20 21
M  V30 21 1 21 22
M  V30 22 1 22 23
M  V30 23 1 23 24
M  V30 24 1 24 25
M  V30 25 1 25 26
M  V30 26 1 20 27
M  V30 27 1 27 5
M  V30 28 1 19 12
M  V30 29 1 26 22
M  V30 30 1 1 28
M  V30 31 1 1 29
M  V30 32 1 1 30
M  V30 33 1 6 31
M  V30 34 1 6 32
M  V30 35 1 7 33
M  V30 36 1 7 34
M  V30 37 1 11 35
M  V30 38 1 11 36
M  V30 39 1 13 37
M  V30 40 1 14 38
M  V30 41 1 19 39
M  V30 42 1 20 40
M  V30 43 1 21 41
M  V30 44 1 21 42
M  V30 45 1 23 43
M  V30 46 1 23 44
M  V30 47 1 24 45
M  V30 48 1 24 46
M  V30 49 1 25 47
M  V30 50 1 25 48
M  V30 51 1 26 49
M  V30 52 1 26 50
M  V30 53 1 27 51
M  V30 54 1 27 52
M  V30 END BOND
M  V30 END CTAB
M  END
>  <Dataset>  (977) 
ChEMBL_Kinases

>  <Ligand_Instance>  (977) 
nan

>  <PDB_ID>  (977) 
nan

>  <Standardized_SMILES>  (977) 
COC(=O)N1CCN(C(=O)Cc2ccc(Cl)c(Cl)c2)C(CN2CCCC2)C1

>  <Name>  (977) 
nan

>  <Pocket>  (977) 
nan

>  <ATP_Site>  (977) 
nan

>  <Peripheral>  (977) 
nan

>  <Num_H_Atoms_ProtBoundConf>  (977) 
nan

>  <Num_Resolved_Atoms>  (977) 
nan

>  <Num_Not_Resolved_Atoms>  (977) 
nan

$$$$
CHEMBL1256851
     RDKit          3D

  0  0  0  0  0  0  0  0  0  0999 V3000
M  V30 BEGIN CTAB
M  V30 COUNTS 43 46 0 0 0
M  V30 BEGIN ATOM
M  V30 1 O -0.351362 -6.570538 3.916091 0
M  V30 2 C -0.294014 -5.586075 3.143862 0
M  V30 3 C 0.803622 -5.462173 2.319394 0
M  V30 4 C 0.911163 -4.397001 1.453841 0
M  V30 5 C -0.049880 -3.414499 1.363187 0
M  V30 6 C -0.033913 -2.292531 0.515072 0
M  V30 7 O 1.105008 -2.312358 -0.224488 0
M  V30 8 C 2.351145 -1.745715 0.082367 0
M  V30 9 C 2.414440 -0.256503 0.172549 0
M  V30 10 C 2.164107 0.430897 -1.131891 0
M  V30 11 C 2.195989 1.930336 -1.025864 0
M  V30 12 C 1.187654 2.483513 -0.093871 0
M  V30 13 C 1.581763 2.623624 1.239913 0
M  V30 14 C 0.804726 3.115133 2.255767 0
M  V30 15 C -0.476022 3.506461 1.941517 0
M  V30 16 C -0.907288 3.386773 0.641683 0
M  V30 17 C -0.110377 2.889930 -0.365782 0
M  V30 18 C -1.133430 -1.483906 0.641299 0
M  V30 19 C -1.351280 -0.354381 -0.061709 0
M  V30 20 C -2.558915 0.143076 0.368859 0
M  V30 21 O -3.016930 -0.672151 1.285211 0
M  V30 22 C -2.196453 -1.670032 1.487595 0
M  V30 23 C -2.177221 -2.776531 2.302551 0
M  V30 24 C -1.115151 -3.645614 2.245071 0
M  V30 25 O -1.213240 -4.655223 3.062949 0
M  V30 26 H 1.590039 -6.188005 2.335777 0
M  V30 27 H 1.765711 -4.312271 0.809540 0
M  V30 28 H 3.026309 -2.035709 -0.766457 0
M  V30 29 H 2.830662 -2.226022 0.986641 0
M  V30 30 H 3.430630 0.001969 0.554765 0
M  V30 31 H 1.719881 0.147556 0.939619 0
M  V30 32 H 3.072455 0.154353 -1.775600 0
M  V30 33 H 1.294489 0.071302 -1.661771 0
M  V30 34 H 1.996188 2.394007 -2.013275 0
M  V30 35 H 3.202844 2.267495 -0.693674 0
M  V30 36 H 2.594369 2.324964 1.539348 0
M  V30 37 H 1.166452 3.197510 3.260467 0
M  V30 38 H -1.116205 3.898125 2.715403 0
M  V30 39 H -1.917807 3.689787 0.366453 0
M  V30 40 H -0.391912 2.771086 -1.407635 0
M  V30 41 H -0.767722 0.111044 -0.806517 0
M  V30 42 H -3.031059 1.038583 0.011338 0
M  V30 43 H -3.024499 -2.899669 2.959197 0
M  V30 END ATOM
M  V30 BEGIN BOND
M  V30 1 2 1 2
M  V30 2 1 2 3
M  V30 3 2 3 4
M  V30 4 1 4 5
M  V30 5 2 5 6
M  V30 6 1 6 7
M  V30 7 1 7 8
M  V30 8 1 8 9
M  V30 9 1 9 10
M  V30 10 1 10 11
M  V30 11 1 11 12
M  V30 12 2 12 13
M  V30 13 1 13 14
M  V30 14 2 14 15
M  V30 15 1 15 16
M  V30 16 2 16 17
M  V30 17 1 6 18
M  V30 18 1 18 19
M  V30 19 2 19 20
M  V30 20 1 20 21
M  V30 21 1 21 22
M  V30 22 1 22 23
M  V30 23 2 23 24
M  V30 24 1 24 25
M  V30 25 1 25 2
M  V30 26 1 24 5
M  V30 27 1 17 12
M  V30 28 2 22 18
M  V30 29 1 3 26
M  V30 30 1 4 27
M  V30 31 1 8 28
M  V30 32 1 8 29
M  V30 33 1 9 30
M  V30 34 1 9 31
M  V30 35 1 10 32
M  V30 36 1 10 33
M  V30 37 1 11 34
M  V30 38 1 11 35
M  V30 39 1 13 36
M  V30 40 1 14 37
M  V30 41 1 15 38
M  V30 42 1 16 39
M  V30 43 1 17 40
M  V30 44 1 19 41
M  V30 45 1 20 42
M  V30 46 1 23 43
M  V30 END BOND
M  V30 END CTAB
M  END
>  <Dataset>  (978) 
ChEMBL_Kinases

>  <Ligand_Instance>  (978) 
nan

>  <PDB_ID>  (978) 
nan

>  <Standardized_SMILES>  (978) 
O=c1ccc2c(OCCCCc3ccccc3)c3ccoc3cc2o1

>  <Name>  (978) 
nan

>  <Pocket>  (978) 
nan

>  <ATP_Site>  (978) 
nan

>  <Peripheral>  (978) 
nan

>  <Num_H_Atoms_ProtBoundConf>  (978) 
nan

>  <Num_Resolved_Atoms>  (978) 
nan

>  <Num_Not_Resolved_Atoms>  (978) 
nan

$$$$
CHEMBL1305293
     RDKit          3D

  0  0  0  0  0  0  0  0  0  0999 V3000
M  V30 BEGIN CTAB
M  V30 COUNTS 41 43 0 0 0
M  V30 BEGIN ATOM
M  V30 1 C 0.798978 -6.066002 2.113490 0
M  V30 2 O 1.693295 -5.040928 1.734649 0
M  V30 3 C 1.298803 -3.789780 1.281538 0
M  V30 4 C -0.037840 -3.463272 1.166445 0
M  V30 5 C -0.358085 -2.204983 0.711495 0
M  V30 6 C 0.533843 -1.205831 0.348505 0
M  V30 7 C 1.834008 -1.639873 0.501352 0
M  V30 8 C 2.244662 -2.846840 0.937130 0
M  V30 9 S 3.143652 -0.512281 0.103728 0
M  V30 10 C 2.372938 0.929166 -0.558632 0
M  V30 11 C 3.240609 1.853635 -1.020730 0
M  V30 12 C 2.764488 3.036169 -1.578061 0
M  V30 13 C 1.393792 3.191334 -1.623514 0
M  V30 14 C 0.567436 2.204544 -1.132940 0
M  V30 15 C 1.002921 1.001544 -0.563664 0
M  V30 16 N 0.084081 0.020459 -0.141230 0
M  V30 17 C -1.312411 0.413511 -0.189503 0
M  V30 18 C -1.521784 1.419723 0.927793 0
M  V30 19 N -1.291567 0.768950 2.176328 0
M  V30 20 C -2.213792 -0.176532 2.646971 0
M  V30 21 C -0.092831 0.995531 2.861596 0
M  V30 22 H 1.357734 -7.031360 2.106035 0
M  V30 23 H -0.048099 -6.117026 1.396392 0
M  V30 24 H 0.350105 -5.891049 3.123866 0
M  V30 25 H -0.764972 -4.215900 1.441233 0
M  V30 26 H -1.413243 -2.068427 0.650551 0
M  V30 27 H 3.274989 -3.150695 1.043393 0
M  V30 28 H 4.324530 1.755164 -0.995342 0
M  V30 29 H 3.441271 3.789078 -1.953004 0
M  V30 30 H 1.072036 4.123272 -2.065467 0
M  V30 31 H -0.453428 2.480931 -1.277208 0
M  V30 32 H -1.573050 0.851942 -1.187205 0
M  V30 33 H -2.039799 -0.355187 0.035839 0
M  V30 34 H -2.595064 1.759986 0.910059 0
M  V30 35 H -0.834329 2.291029 0.898242 0
M  V30 36 H -1.647825 -1.021670 3.148420 0
M  V30 37 H -2.832895 -0.653554 1.868521 0
M  V30 38 H -2.856047 0.299601 3.440293 0
M  V30 39 H -0.346433 1.346855 3.907425 0
M  V30 40 H 0.499259 1.787652 2.397643 0
M  V30 41 H 0.492898 0.035063 2.962649 0
M  V30 END ATOM
M  V30 BEGIN BOND
M  V30 1 1 1 2
M  V30 2 1 2 3
M  V30 3 2 3 4
M  V30 4 1 4 5
M  V30 5 2 5 6
M  V30 6 1 6 7
M  V30 7 2 7 8
M  V30 8 1 7 9
M  V30 9 1 9 10
M  V30 10 2 10 11
M  V30 11 1 11 12
M  V30 12 2 12 13
M  V30 13 1 13 14
M  V30 14 2 14 15
M  V30 15 1 15 16
M  V30 16 1 16 17
M  V30 17 1 17 18
M  V30 18 1 18 19
M  V30 19 1 19 20
M  V30 20 1 19 21
M  V30 21 1 8 3
M  V30 22 1 15 10
M  V30 23 1 16 6
M  V30 24 1 1 22
M  V30 25 1 1 23
M  V30 26 1 1 24
M  V30 27 1 4 25
M  V30 28 1 5 26
M  V30 29 1 8 27
M  V30 30 1 11 28
M  V30 31 1 12 29
M  V30 32 1 13 30
M  V30 33 1 14 31
M  V30 34 1 17 32
M  V30 35 1 17 33
M  V30 36 1 18 34
M  V30 37 1 18 35
M  V30 38 1 20 36
M  V30 39 1 20 37
M  V30 40 1 20 38
M  V30 41 1 21 39
M  V30 42 1 21 40
M  V30 43 1 21 41
M  V30 END BOND
M  V30 END CTAB
M  END
>  <Dataset>  (979) 
ChEMBL_Kinases

>  <Ligand_Instance>  (979) 
nan

>  <PDB_ID>  (979) 
nan

>  <Standardized_SMILES>  (979) 
COc1ccc2c(c1)Sc1ccccc1N2CCN(C)C

>  <Name>  (979) 
nan

>  <Pocket>  (979) 
nan

>  <ATP_Site>  (979) 
nan

>  <Peripheral>  (979) 
nan

>  <Num_H_Atoms_ProtBoundConf>  (979) 
nan

>  <Num_Resolved_Atoms>  (979) 
nan

>  <Num_Not_Resolved_Atoms>  (979) 
nan

$$$$
CHEMBL1243137
     RDKit          3D

  0  0  0  0  0  0  0  0  0  0999 V3000
M  V30 BEGIN CTAB
M  V30 COUNTS 64 68 0 0 0
M  V30 BEGIN ATOM
M  V30 1 C 1.939877 -1.258192 4.370900 0
M  V30 2 N 0.878277 -0.303952 4.719194 0
M  V30 3 C 1.060356 1.105643 4.744463 0
M  V30 4 N 1.534306 1.574837 5.925371 0
M  V30 5 C 1.740974 2.922402 6.058273 0
M  V30 6 C 1.440191 3.714438 4.943990 0
M  V30 7 C 0.960246 3.194370 3.762709 0
M  V30 8 C 0.711934 4.189326 2.733901 0
M  V30 9 C 0.826407 5.551906 2.876803 0
M  V30 10 C 0.537849 6.391773 1.826091 0
M  V30 11 C 0.134079 5.852550 0.632733 0
M  V30 12 N 0.030647 4.505849 0.519575 0
M  V30 13 C 0.309035 3.642967 1.538706 0
M  V30 14 O 0.098243 2.481292 1.030906 0
M  V30 15 C 0.045786 1.205957 0.942596 0
M  V30 16 C -1.237553 0.712933 0.786030 0
M  V30 17 C -1.553186 -0.649315 0.663122 0
M  V30 18 C -0.483877 -1.519467 0.706730 0
M  V30 19 N -0.764780 -2.914120 0.583003 0
M  V30 20 C -0.742092 -3.387513 -0.755378 0
M  V30 21 O -0.468368 -2.409689 -1.494142 0
M  V30 22 C -1.004369 -4.771486 -1.076677 0
M  V30 23 C -1.230710 -5.669007 -0.061388 0
M  V30 24 C -1.456590 -6.997072 -0.350972 0
M  V30 25 C -1.469520 -7.493224 -1.634756 0
M  V30 26 C -1.237727 -6.550473 -2.611816 0
M  V30 27 C -1.004382 -5.199545 -2.385691 0
M  V30 28 N -0.778078 -4.356052 -3.503270 0
M  V30 29 C -1.411753 -3.232705 -4.101983 0
M  V30 30 C -0.745259 -2.529753 -5.084712 0
M  V30 31 C -1.437207 -1.466702 -5.621019 0
M  V30 32 C -2.694346 -1.054317 -5.276936 0
M  V30 33 C -3.354475 -1.760583 -4.295182 0
M  V30 34 C -2.700830 -2.833488 -3.728597 0
M  V30 35 C 0.834107 -1.147355 0.858418 0
M  V30 36 C 1.027979 0.211503 0.968786 0
M  V30 37 C 2.421483 0.716850 1.116919 0
M  V30 38 N 0.780196 1.877546 3.695076 0
M  V30 39 H 2.263753 -1.840883 5.260524 0
M  V30 40 H 1.630705 -1.910875 3.531422 0
M  V30 41 H 2.831479 -0.694779 4.028272 0
M  V30 42 H 0.028556 -0.886362 4.925286 0
M  V30 43 H 2.113896 3.224983 7.005850 0
M  V30 44 H 1.670539 4.732459 5.249017 0
M  V30 45 H 1.143113 5.960966 3.820275 0
M  V30 46 H 0.652465 7.449402 2.015882 0
M  V30 47 H -0.062782 6.637027 -0.115573 0
M  V30 48 H -2.156410 1.324394 0.738629 0
M  V30 49 H -2.553916 -1.035131 0.541001 0
M  V30 50 H -0.966333 -3.510313 1.417565 0
M  V30 51 H -1.253369 -5.444332 0.991712 0
M  V30 52 H -1.639874 -7.734135 0.436228 0
M  V30 53 H -1.640726 -8.518351 -1.907649 0
M  V30 54 H -1.238266 -6.896820 -3.645677 0
M  V30 55 H 0.107611 -4.725282 -3.948179 0
M  V30 56 H 0.239924 -2.830132 -5.373972 0
M  V30 57 H -0.895843 -0.912998 -6.404062 0
M  V30 58 H -3.134864 -0.195830 -5.775880 0
M  V30 59 H -4.349491 -1.458571 -4.001180 0
M  V30 60 H -3.242443 -3.387129 -2.946571 0
M  V30 61 H 1.668560 -1.829939 0.892299 0
M  V30 62 H 3.041376 0.081624 1.778956 0
M  V30 63 H 2.945076 0.723726 0.117680 0
M  V30 64 H 2.470860 1.743766 1.480079 0
M  V30 END ATOM
M  V30 BEGIN BOND
M  V30 1 1 1 2
M  V30 2 1 2 3
M  V30 3 2 3 4
M  V30 4 1 4 5
M  V30 5 2 5 6
M  V30 6 1 6 7
M  V30 7 1 7 8
M  V30 8 2 8 9
M  V30 9 1 9 10
M  V30 10 2 10 11
M  V30 11 1 11 12
M  V30 12 2 12 13
M  V30 13 1 13 14
M  V30 14 1 14 15
M  V30 15 2 15 16
M  V30 16 1 16 17
M  V30 17 2 17 18
M  V30 18 1 18 19
M  V30 19 1 19 20
M  V30 20 2 20 21
M  V30 21 1 20 22
M  V30 22 2 22 23
M  V30 23 1 23 24
M  V30 24 2 24 25
M  V30 25 1 25 26
M  V30 26 2 26 27
M  V30 27 1 27 28
M  V30 28 1 28 29
M  V30 29 2 29 30
M  V30 30 1 30 31
M  V30 31 2 31 32
M  V30 32 1 32 33
M  V30 33 2 33 34
M  V30 34 1 18 35
M  V30 35 2 35 36
M  V30 36 1 36 37
M  V30 37 2 7 38
M  V30 38 1 38 3
M  V30 39 1 13 8
M  V30 40 1 36 15
M  V30 41 1 27 22
M  V30 42 1 34 29
M  V30 43 1 1 39
M  V30 44 1 1 40
M  V30 45 1 1 41
M  V30 46 1 2 42
M  V30 47 1 5 43
M  V30 48 1 6 44
M  V30 49 1 9 45
M  V30 50 1 10 46
M  V30 51 1 11 47
M  V30 52 1 16 48
M  V30 53 1 17 49
M  V30 54 1 19 50
M  V30 55 1 23 51
M  V30 56 1 24 52
M  V30 57 1 25 53
M  V30 58 1 26 54
M  V30 59 1 28 55
M  V30 60 1 30 56
M  V30 61 1 31 57
M  V30 62 1 32 58
M  V30 63 1 33 59
M  V30 64 1 34 60
M  V30 65 1 35 61
M  V30 66 1 37 62
M  V30 67 1 37 63
M  V30 68 1 37 64
M  V30 END BOND
M  V30 END CTAB
M  END
>  <Dataset>  (980) 
ChEMBL_Kinases

>  <Ligand_Instance>  (980) 
nan

>  <PDB_ID>  (980) 
nan

>  <Standardized_SMILES>  (980) 
CNc1nccc(-c2cccnc2Oc2ccc(NC(=O)c3ccccc3Nc3ccccc3)cc2C)n1

>  <Name>  (980) 
nan

>  <Pocket>  (980) 
nan

>  <ATP_Site>  (980) 
nan

>  <Peripheral>  (980) 
nan

>  <Num_H_Atoms_ProtBoundConf>  (980) 
nan

>  <Num_Resolved_Atoms>  (980) 
nan

>  <Num_Not_Resolved_Atoms>  (980) 
nan

$$$$
CHEMBL1243167
     RDKit          3D

  0  0  0  0  0  0  0  0  0  0999 V3000
M  V30 BEGIN CTAB
M  V30 COUNTS 64 68 0 0 0
M  V30 BEGIN ATOM
M  V30 1 C -1.844566 0.466028 6.112948 0
M  V30 2 N -1.167173 0.820063 4.886461 0
M  V30 3 C -0.958076 2.181597 4.542055 0
M  V30 4 N -1.451033 3.067049 5.454907 0
M  V30 5 C -1.303973 4.400349 5.220267 0
M  V30 6 C -0.661168 4.761420 4.066116 0
M  V30 7 C -0.163417 3.884863 3.145683 0
M  V30 8 C 0.517577 4.222509 1.926297 0
M  V30 9 C 0.664409 5.593958 1.694241 0
M  V30 10 C 1.309872 5.996718 0.542806 0
M  V30 11 C 1.796112 5.077529 -0.353057 0
M  V30 12 N 1.626365 3.777755 -0.077826 0
M  V30 13 C 1.009990 3.313591 1.019946 0
M  V30 14 O 0.773845 2.019611 1.414673 0
M  V30 15 C 1.175401 0.936487 0.674483 0
M  V30 16 C 0.832796 -0.208421 1.405371 0
M  V30 17 C 1.102793 -1.496515 0.931171 0
M  V30 18 C 1.733897 -1.616624 -0.311259 0
M  V30 19 N 2.026505 -2.932606 -0.830448 0
M  V30 20 C 0.867655 -3.345318 -1.545645 0
M  V30 21 O 0.037905 -2.406297 -1.447894 0
M  V30 22 C 0.754077 -4.627334 -2.227829 0
M  V30 23 C 1.831174 -5.459294 -2.305604 0
M  V30 24 C 1.705186 -6.642040 -2.984821 0
M  V30 25 C 0.545745 -7.049141 -3.601294 0
M  V30 26 C -0.506573 -6.156790 -3.481634 0
M  V30 27 C -0.457874 -4.932338 -2.806210 0
M  V30 28 N -1.648654 -4.142058 -2.779664 0
M  V30 29 C -2.431317 -3.718928 -1.693308 0
M  V30 30 C -3.380628 -2.726866 -1.935869 0
M  V30 31 C -4.187451 -2.282628 -0.918528 0
M  V30 32 C -4.121152 -2.764449 0.363503 0
M  V30 33 C -3.186930 -3.748211 0.625442 0
M  V30 34 C -2.384251 -4.185408 -0.401555 0
M  V30 35 C 2.072650 -0.500495 -1.032516 0
M  V30 36 C 2.734246 -0.598714 -2.335490 0
M  V30 37 C 1.791781 0.749895 -0.535083 0
M  V30 38 N -0.333076 2.572481 3.421623 0
M  V30 39 H -2.145448 1.403240 6.643634 0
M  V30 40 H -1.138848 -0.145986 6.717589 0
M  V30 41 H -2.786494 -0.092977 5.938683 0
M  V30 42 H -0.912514 -0.061594 4.395910 0
M  V30 43 H -1.687179 5.118974 5.930161 0
M  V30 44 H -0.563074 5.805884 3.912485 0
M  V30 45 H 0.354774 6.449654 2.270482 0
M  V30 46 H 1.492684 7.039510 0.238868 0
M  V30 47 H 2.316558 5.256912 -1.286185 0
M  V30 48 H 0.345237 -0.296929 2.373031 0
M  V30 49 H 0.874252 -2.426289 1.427549 0
M  V30 50 H 2.882193 -3.561898 -0.761973 0
M  V30 51 H 2.789804 -5.255451 -1.865672 0
M  V30 52 H 2.549879 -7.318729 -3.058268 0
M  V30 53 H 0.430694 -7.966718 -4.134021 0
M  V30 54 H -1.448061 -6.449484 -3.961461 0
M  V30 55 H -1.875562 -3.905612 -3.748941 0
M  V30 56 H -3.470025 -2.312564 -2.940517 0
M  V30 57 H -4.907411 -1.500959 -1.192650 0
M  V30 58 H -4.786046 -2.370398 1.116282 0
M  V30 59 H -3.093154 -4.161825 1.614439 0
M  V30 60 H -1.645023 -4.956347 -0.217277 0
M  V30 61 H 2.096255 -0.933285 -3.165414 0
M  V30 62 H 3.186903 0.377183 -2.647808 0
M  V30 63 H 3.614874 -1.304601 -2.294961 0
M  V30 64 H 2.012530 1.683483 -1.012711 0
M  V30 END ATOM
M  V30 BEGIN BOND
M  V30 1 1 1 2
M  V30 2 1 2 3
M  V30 3 2 3 4
M  V30 4 1 4 5
M  V30 5 2 5 6
M  V30 6 1 6 7
M  V30 7 1 7 8
M  V30 8 2 8 9
M  V30 9 1 9 10
M  V30 10 2 10 11
M  V30 11 1 11 12
M  V30 12 2 12 13
M  V30 13 1 13 14
M  V30 14 1 14 15
M  V30 15 2 15 16
M  V30 16 1 16 17
M  V30 17 2 17 18
M  V30 18 1 18 19
M  V30 19 1 19 20
M  V30 20 2 20 21
M  V30 21 1 20 22
M  V30 22 2 22 23
M  V30 23 1 23 24
M  V30 24 2 24 25
M  V30 25 1 25 26
M  V30 26 2 26 27
M  V30 27 1 27 28
M  V30 28 1 28 29
M  V30 29 2 29 30
M  V30 30 1 30 31
M  V30 31 2 31 32
M  V30 32 1 32 33
M  V30 33 2 33 34
M  V30 34 1 18 35
M  V30 35 1 35 36
M  V30 36 2 35 37
M  V30 37 2 7 38
M  V30 38 1 38 3
M  V30 39 1 13 8
M  V30 40 1 37 15
M  V30 41 1 27 22
M  V30 42 1 34 29
M  V30 43 1 1 39
M  V30 44 1 1 40
M  V30 45 1 1 41
M  V30 46 1 2 42
M  V30 47 1 5 43
M  V30 48 1 6 44
M  V30 49 1 9 45
M  V30 50 1 10 46
M  V30 51 1 11 47
M  V30 52 1 16 48
M  V30 53 1 17 49
M  V30 54 1 19 50
M  V30 55 1 23 51
M  V30 56 1 24 52
M  V30 57 1 25 53
M  V30 58 1 26 54
M  V30 59 1 28 55
M  V30 60 1 30 56
M  V30 61 1 31 57
M  V30 62 1 32 58
M  V30 63 1 33 59
M  V30 64 1 34 60
M  V30 65 1 36 61
M  V30 66 1 36 62
M  V30 67 1 36 63
M  V30 68 1 37 64
M  V30 END BOND
M  V30 END CTAB
M  END
>  <Dataset>  (981) 
ChEMBL_Kinases

>  <Ligand_Instance>  (981) 
nan

>  <PDB_ID>  (981) 
nan

>  <Standardized_SMILES>  (981) 
CNc1nccc(-c2cccnc2Oc2ccc(NC(=O)c3ccccc3Nc3ccccc3)c(C)c2)n1

>  <Name>  (981) 
nan

>  <Pocket>  (981) 
nan

>  <ATP_Site>  (981) 
nan

>  <Peripheral>  (981) 
nan

>  <Num_H_Atoms_ProtBoundConf>  (981) 
nan

>  <Num_Resolved_Atoms>  (981) 
nan

>  <Num_Not_Resolved_Atoms>  (981) 
nan

$$$$
CHEMBL1243200
     RDKit          3D

  0  0  0  0  0  0  0  0  0  0999 V3000
M  V30 BEGIN CTAB
M  V30 COUNTS 61 65 0 0 0
M  V30 BEGIN ATOM
M  V30 1 C 2.049881 -0.256666 5.888836 0
M  V30 2 N 2.975112 0.182443 4.875787 0
M  V30 3 C 3.390403 1.429172 4.315392 0
M  V30 4 N 4.446322 2.025069 4.931689 0
M  V30 5 C 4.913908 3.218528 4.467450 0
M  V30 6 C 4.232139 3.723735 3.363802 0
M  V30 7 C 3.163651 3.111437 2.747552 0
M  V30 8 C 2.480808 3.668303 1.601788 0
M  V30 9 C 2.861683 4.880331 1.033423 0
M  V30 10 C 2.235176 5.436860 -0.054051 0
M  V30 11 C 1.164560 4.728000 -0.596058 0
M  V30 12 N 0.801613 3.558985 -0.043315 0
M  V30 13 C 1.412800 3.011690 1.021032 0
M  V30 14 O 1.057714 1.826691 1.594552 0
M  V30 15 C 0.040306 0.973733 1.221625 0
M  V30 16 C -0.906726 0.989852 0.231862 0
M  V30 17 C -1.812906 -0.041716 0.115377 0
M  V30 18 C -1.812409 -1.117117 0.969015 0
M  V30 19 N -2.812895 -2.104555 0.720193 0
M  V30 20 C -2.425560 -3.143700 -0.169319 0
M  V30 21 O -1.244259 -2.888487 -0.507323 0
M  V30 22 C -3.343284 -4.199512 -0.501570 0
M  V30 23 C -4.566880 -4.251642 0.078841 0
M  V30 24 C -5.425862 -5.286390 -0.225461 0
M  V30 25 C -5.097482 -6.293166 -1.109092 0
M  V30 26 C -3.840974 -6.183247 -1.665642 0
M  V30 27 C -2.931170 -5.153695 -1.391413 0
M  V30 28 N -1.689120 -5.227453 -2.068515 0
M  V30 29 C -1.084450 -4.356558 -3.010367 0
M  V30 30 C -1.700362 -3.295183 -3.637818 0
M  V30 31 C -1.065577 -2.475935 -4.547020 0
M  V30 32 C 0.253771 -2.693200 -4.875264 0
M  V30 33 C 0.858386 -3.750057 -4.247164 0
M  V30 34 C 0.228432 -4.571483 -3.338045 0
M  V30 35 C -0.873524 -1.166756 1.976968 0
M  V30 36 C 0.048966 -0.120123 2.098323 0
M  V30 37 N 2.754127 1.945492 3.249845 0
M  V30 38 H 1.155209 -0.648960 5.396237 0
M  V30 39 H 2.544268 -1.037698 6.502766 0
M  V30 40 H 1.831833 0.624593 6.542762 0
M  V30 41 H 3.575597 -0.459082 4.311605 0
M  V30 42 H 5.748417 3.741319 4.913410 0
M  V30 43 H 4.617275 4.669562 3.010925 0
M  V30 44 H 3.674089 5.458029 1.413154 0
M  V30 45 H 2.528078 6.376130 -0.496823 0
M  V30 46 H 0.643215 5.130347 -1.452797 0
M  V30 47 H -0.813086 1.876898 -0.375236 0
M  V30 48 H -2.513099 0.077401 -0.701469 0
M  V30 49 H -3.746937 -2.011527 1.191480 0
M  V30 50 H -4.965452 -3.557407 0.775265 0
M  V30 51 H -6.423232 -5.366610 0.220797 0
M  V30 52 H -5.743129 -7.118773 -1.371402 0
M  V30 53 H -3.566254 -6.979768 -2.372278 0
M  V30 54 H -1.215228 -6.086533 -1.764538 0
M  V30 55 H -2.739959 -3.110634 -3.390040 0
M  V30 56 H -1.632481 -1.663183 -4.991030 0
M  V30 57 H 0.735330 -2.049359 -5.583166 0
M  V30 58 H 1.907275 -3.930838 -4.501566 0
M  V30 59 H 0.839631 -5.381577 -2.913162 0
M  V30 60 H -0.925356 -2.026193 2.605270 0
M  V30 61 H 0.719866 -0.320433 2.949346 0
M  V30 END ATOM
M  V30 BEGIN BOND
M  V30 1 1 1 2
M  V30 2 1 2 3
M  V30 3 2 3 4
M  V30 4 1 4 5
M  V30 5 2 5 6
M  V30 6 1 6 7
M  V30 7 1 7 8
M  V30 8 2 8 9
M  V30 9 1 9 10
M  V30 10 2 10 11
M  V30 11 1 11 12
M  V30 12 2 12 13
M  V30 13 1 13 14
M  V30 14 1 14 15
M  V30 15 2 15 16
M  V30 16 1 16 17
M  V30 17 2 17 18
M  V30 18 1 18 19
M  V30 19 1 19 20
M  V30 20 2 20 21
M  V30 21 1 20 22
M  V30 22 2 22 23
M  V30 23 1 23 24
M  V30 24 2 24 25
M  V30 25 1 25 26
M  V30 26 2 26 27
M  V30 27 1 27 28
M  V30 28 1 28 29
M  V30 29 2 29 30
M  V30 30 1 30 31
M  V30 31 2 31 32
M  V30 32 1 32 33
M  V30 33 2 33 34
M  V30 34 1 18 35
M  V30 35 2 35 36
M  V30 36 2 7 37
M  V30 37 1 37 3
M  V30 38 1 13 8
M  V30 39 1 36 15
M  V30 40 1 27 22
M  V30 41 1 34 29
M  V30 42 1 1 38
M  V30 43 1 1 39
M  V30 44 1 1 40
M  V30 45 1 2 41
M  V30 46 1 5 42
M  V30 47 1 6 43
M  V30 48 1 9 44
M  V30 49 1 10 45
M  V30 50 1 11 46
M  V30 51 1 16 47
M  V30 52 1 17 48
M  V30 53 1 19 49
M  V30 54 1 23 50
M  V30 55 1 24 51
M  V30 56 1 25 52
M  V30 57 1 26 53
M  V30 58 1 28 54
M  V30 59 1 30 55
M  V30 60 1 31 56
M  V30 61 1 32 57
M  V30 62 1 33 58
M  V30 63 1 34 59
M  V30 64 1 35 60
M  V30 65 1 36 61
M  V30 END BOND
M  V30 END CTAB
M  END
>  <Dataset>  (982) 
ChEMBL_Kinases

>  <Ligand_Instance>  (982) 
nan

>  <PDB_ID>  (982) 
nan

>  <Standardized_SMILES>  (982) 
CNc1nccc(-c2cccnc2Oc2ccc(NC(=O)c3ccccc3Nc3ccccc3)cc2)n1

>  <Name>  (982) 
nan

>  <Pocket>  (982) 
nan

>  <ATP_Site>  (982) 
nan

>  <Peripheral>  (982) 
nan

>  <Num_H_Atoms_ProtBoundConf>  (982) 
nan

>  <Num_Resolved_Atoms>  (982) 
nan

>  <Num_Not_Resolved_Atoms>  (982) 
nan

$$$$
CHEMBL1243231
     RDKit          3D

  0  0  0  0  0  0  0  0  0  0999 V3000
M  V30 BEGIN CTAB
M  V30 COUNTS 61 65 0 0 0
M  V30 BEGIN ATOM
M  V30 1 C 1.766590 -1.532526 2.163411 0
M  V30 2 N 1.460548 -0.506119 1.183092 0
M  V30 3 C 1.829336 0.763671 1.698402 0
M  V30 4 N 3.091749 1.221004 1.484288 0
M  V30 5 C 3.352005 2.450105 2.020930 0
M  V30 6 C 2.360984 3.140764 2.726405 0
M  V30 7 C 1.105472 2.620954 2.905981 0
M  V30 8 C 0.250155 3.515299 3.661494 0
M  V30 9 C 0.562244 4.730288 4.221493 0
M  V30 10 C -0.387317 5.448488 4.908246 0
M  V30 11 C -1.657329 4.934299 5.028345 0
M  V30 12 N -1.938584 3.733706 4.466393 0
M  V30 13 C -1.017303 2.994345 3.776821 0
M  V30 14 O -1.735054 1.948849 3.433968 0
M  V30 15 C -1.776172 0.797910 2.815180 0
M  V30 16 C -2.155685 0.885772 1.467011 0
M  V30 17 C -2.264462 -0.228910 0.628964 0
M  V30 18 C -1.987412 -1.477519 1.143382 0
M  V30 19 N -2.116969 -2.586998 0.265898 0
M  V30 20 C -1.209190 -3.229042 -0.617216 0
M  V30 21 O -0.122355 -2.613760 -0.519733 0
M  V30 22 C -1.630943 -4.369217 -1.407546 0
M  V30 23 C -2.893631 -4.877546 -1.240427 0
M  V30 24 C -3.267180 -5.982803 -1.974153 0
M  V30 25 C -2.414317 -6.591922 -2.868314 0
M  V30 26 C -1.157623 -6.031706 -2.990950 0
M  V30 27 C -0.738176 -4.916309 -2.270695 0
M  V30 28 N 0.569369 -4.499273 -2.531468 0
M  V30 29 C 1.057380 -3.301519 -3.069585 0
M  V30 30 C 0.288684 -2.306382 -3.665201 0
M  V30 31 C 0.798396 -1.138069 -4.183618 0
M  V30 32 C 2.153374 -0.910143 -4.124038 0
M  V30 33 F 2.566070 0.264171 -4.657714 0
M  V30 34 C 2.969369 -1.877883 -3.536105 0
M  V30 35 C 2.403236 -3.024859 -3.035492 0
M  V30 36 C -1.610069 -1.636233 2.453749 0
M  V30 37 C -1.516849 -0.508382 3.240390 0
M  V30 38 N 0.904713 1.436966 2.371041 0
M  V30 39 H 1.283472 -1.270851 3.106967 0
M  V30 40 H 2.879133 -1.565787 2.270588 0
M  V30 41 H 1.473063 -2.533266 1.776897 0
M  V30 42 H 1.087720 -0.228250 0.247376 0
M  V30 43 H 4.363968 2.743307 1.810998 0
M  V30 44 H 2.845446 4.066668 3.027735 0
M  V30 45 H 1.567416 5.089949 4.102331 0
M  V30 46 H -0.038970 6.389834 5.308433 0
M  V30 47 H -2.288905 5.631449 5.604228 0
M  V30 48 H -2.396801 1.830559 0.961688 0
M  V30 49 H -2.559528 -0.129699 -0.406112 0
M  V30 50 H -3.120808 -2.852503 0.426639 0
M  V30 51 H -3.652235 -4.497667 -0.577229 0
M  V30 52 H -4.255071 -6.418304 -1.874017 0
M  V30 53 H -2.699870 -7.460830 -3.448163 0
M  V30 54 H -0.501900 -6.535695 -3.707548 0
M  V30 55 H 1.242168 -5.243399 -2.258968 0
M  V30 56 H -0.784311 -2.479737 -3.716046 0
M  V30 57 H 0.108061 -0.432921 -4.624481 0
M  V30 58 H 4.007410 -1.644007 -3.519671 0
M  V30 59 H 3.134860 -3.699725 -2.604138 0
M  V30 60 H -1.391815 -2.611851 2.861542 0
M  V30 61 H -1.223374 -0.547358 4.293752 0
M  V30 END ATOM
M  V30 BEGIN BOND
M  V30 1 1 1 2
M  V30 2 1 2 3
M  V30 3 2 3 4
M  V30 4 1 4 5
M  V30 5 2 5 6
M  V30 6 1 6 7
M  V30 7 1 7 8
M  V30 8 2 8 9
M  V30 9 1 9 10
M  V30 10 2 10 11
M  V30 11 1 11 12
M  V30 12 2 12 13
M  V30 13 1 13 14
M  V30 14 1 14 15
M  V30 15 2 15 16
M  V30 16 1 16 17
M  V30 17 2 17 18
M  V30 18 1 18 19
M  V30 19 1 19 20
M  V30 20 2 20 21
M  V30 21 1 20 22
M  V30 22 2 22 23
M  V30 23 1 23 24
M  V30 24 2 24 25
M  V30 25 1 25 26
M  V30 26 2 26 27
M  V30 27 1 27 28
M  V30 28 1 28 29
M  V30 29 2 29 30
M  V30 30 1 30 31
M  V30 31 2 31 32
M  V30 32 1 32 33
M  V30 33 1 32 34
M  V30 34 2 34 35
M  V30 35 1 18 36
M  V30 36 2 36 37
M  V30 37 2 7 38
M  V30 38 1 38 3
M  V30 39 1 13 8
M  V30 40 1 37 15
M  V30 41 1 27 22
M  V30 42 1 35 29
M  V30 43 1 1 39
M  V30 44 1 1 40
M  V30 45 1 1 41
M  V30 46 1 2 42
M  V30 47 1 5 43
M  V30 48 1 6 44
M  V30 49 1 9 45
M  V30 50 1 10 46
M  V30 51 1 11 47
M  V30 52 1 16 48
M  V30 53 1 17 49
M  V30 54 1 19 50
M  V30 55 1 23 51
M  V30 56 1 24 52
M  V30 57 1 25 53
M  V30 58 1 26 54
M  V30 59 1 28 55
M  V30 60 1 30 56
M  V30 61 1 31 57
M  V30 62 1 34 58
M  V30 63 1 35 59
M  V30 64 1 36 60
M  V30 65 1 37 61
M  V30 END BOND
M  V30 END CTAB
M  END
>  <Dataset>  (983) 
ChEMBL_Kinases

>  <Ligand_Instance>  (983) 
nan

>  <PDB_ID>  (983) 
nan

>  <Standardized_SMILES>  (983) 
CNc1nccc(-c2cccnc2Oc2ccc(NC(=O)c3ccccc3Nc3ccc(F)cc3)cc2)n1

>  <Name>  (983) 
nan

>  <Pocket>  (983) 
nan

>  <ATP_Site>  (983) 
nan

>  <Peripheral>  (983) 
nan

>  <Num_H_Atoms_ProtBoundConf>  (983) 
nan

>  <Num_Resolved_Atoms>  (983) 
nan

>  <Num_Not_Resolved_Atoms>  (983) 
nan

$$$$
CHEMBL1243265
     RDKit          3D

  0  0  0  0  0  0  0  0  0  0999 V3000
M  V30 BEGIN CTAB
M  V30 COUNTS 61 65 0 0 0
M  V30 BEGIN ATOM
M  V30 1 C 2.094036 -1.474074 1.594188 0
M  V30 2 N 1.530680 -0.372814 0.833401 0
M  V30 3 C 1.919831 0.843973 1.454893 0
M  V30 4 N 3.089186 1.452765 1.116697 0
M  V30 5 C 3.430551 2.617012 1.731279 0
M  V30 6 C 2.557166 3.128652 2.682485 0
M  V30 7 C 1.384145 2.492671 3.003265 0
M  V30 8 C 0.646981 3.223259 4.013109 0
M  V30 9 C 0.992039 4.379229 4.670888 0
M  V30 10 C 0.165951 4.948976 5.610599 0
M  V30 11 C -1.033984 4.336718 5.890749 0
M  V30 12 N -1.361816 3.190644 5.229638 0
M  V30 13 C -0.550840 2.614262 4.294085 0
M  V30 14 O -1.272447 1.571348 3.952407 0
M  V30 15 C -1.380901 0.503496 3.206559 0
M  V30 16 C -2.010043 0.696775 1.967861 0
M  V30 17 C -2.226422 -0.300030 1.035271 0
M  V30 18 C -1.808294 -1.559954 1.319053 0
M  V30 19 N -2.008243 -2.618179 0.410372 0
M  V30 20 C -1.247251 -3.149275 -0.659855 0
M  V30 21 O -0.203414 -2.476082 -0.737577 0
M  V30 22 C -1.743395 -4.277822 -1.425190 0
M  V30 23 C -2.920881 -4.887402 -1.067369 0
M  V30 24 C -3.375537 -5.966586 -1.759310 0
M  V30 25 F -4.531452 -6.598037 -1.440264 0
M  V30 26 C -2.677064 -6.470314 -2.822886 0
M  V30 27 C -1.498427 -5.820415 -3.142955 0
M  V30 28 C -0.996439 -4.723346 -2.472747 0
M  V30 29 N 0.211385 -4.202735 -2.941571 0
M  V30 30 C 0.551412 -2.958574 -3.490183 0
M  V30 31 C -0.359299 -1.976421 -3.882940 0
M  V30 32 C -0.031216 -0.753836 -4.421718 0
M  V30 33 C 1.301087 -0.465644 -4.591523 0
M  V30 34 C 2.234557 -1.409808 -4.215980 0
M  V30 35 C 1.872467 -2.617436 -3.682462 0
M  V30 36 C -1.178030 -1.855527 2.510228 0
M  V30 37 C -0.985443 -0.827240 3.407836 0
M  V30 38 N 1.123100 1.379955 2.372656 0
M  V30 39 H 1.845978 -2.420157 1.092931 0
M  V30 40 H 3.209129 -1.345627 1.632482 0
M  V30 41 H 1.719370 -1.493021 2.626237 0
M  V30 42 H 0.952394 -0.099701 0.011453 0
M  V30 43 H 4.367872 2.967042 1.360359 0
M  V30 44 H 3.052901 4.049380 3.017473 0
M  V30 45 H 1.934750 4.824068 4.424781 0
M  V30 46 H 0.534323 5.857499 6.067626 0
M  V30 47 H -1.582013 4.907443 6.659997 0
M  V30 48 H -2.384992 1.679540 1.642906 0
M  V30 49 H -2.705901 -0.131163 0.101701 0
M  V30 50 H -2.948253 -2.961493 0.738834 0
M  V30 51 H -3.558056 -4.585308 -0.251013 0
M  V30 52 H -3.030438 -7.329273 -3.379838 0
M  V30 53 H -0.957970 -6.245502 -4.000454 0
M  V30 54 H 0.957186 -4.924334 -2.834349 0
M  V30 55 H -1.412974 -2.245611 -3.730592 0
M  V30 56 H -0.863951 -0.102533 -4.674398 0
M  V30 57 H 1.496561 0.515821 -5.021687 0
M  V30 58 H 3.265068 -1.115927 -4.378031 0
M  V30 59 H 2.680581 -3.275131 -3.426281 0
M  V30 60 H -0.810609 -2.837706 2.818994 0
M  V30 61 H -0.492509 -0.967103 4.383310 0
M  V30 END ATOM
M  V30 BEGIN BOND
M  V30 1 1 1 2
M  V30 2 1 2 3
M  V30 3 2 3 4
M  V30 4 1 4 5
M  V30 5 2 5 6
M  V30 6 1 6 7
M  V30 7 1 7 8
M  V30 8 2 8 9
M  V30 9 1 9 10
M  V30 10 2 10 11
M  V30 11 1 11 12
M  V30 12 2 12 13
M  V30 13 1 13 14
M  V30 14 1 14 15
M  V30 15 2 15 16
M  V30 16 1 16 17
M  V30 17 2 17 18
M  V30 18 1 18 19
M  V30 19 1 19 20
M  V30 20 2 20 21
M  V30 21 1 20 22
M  V30 22 2 22 23
M  V30 23 1 23 24
M  V30 24 1 24 25
M  V30 25 2 24 26
M  V30 26 1 26 27
M  V30 27 2 27 28
M  V30 28 1 28 29
M  V30 29 1 29 30
M  V30 30 2 30 31
M  V30 31 1 31 32
M  V30 32 2 32 33
M  V30 33 1 33 34
M  V30 34 2 34 35
M  V30 35 1 18 36
M  V30 36 2 36 37
M  V30 37 2 7 38
M  V30 38 1 38 3
M  V30 39 1 13 8
M  V30 40 1 37 15
M  V30 41 1 28 22
M  V30 42 1 35 30
M  V30 43 1 1 39
M  V30 44 1 1 40
M  V30 45 1 1 41
M  V30 46 1 2 42
M  V30 47 1 5 43
M  V30 48 1 6 44
M  V30 49 1 9 45
M  V30 50 1 10 46
M  V30 51 1 11 47
M  V30 52 1 16 48
M  V30 53 1 17 49
M  V30 54 1 19 50
M  V30 55 1 23 51
M  V30 56 1 26 52
M  V30 57 1 27 53
M  V30 58 1 29 54
M  V30 59 1 31 55
M  V30 60 1 32 56
M  V30 61 1 33 57
M  V30 62 1 34 58
M  V30 63 1 35 59
M  V30 64 1 36 60
M  V30 65 1 37 61
M  V30 END BOND
M  V30 END CTAB
M  END
>  <Dataset>  (984) 
ChEMBL_Kinases

>  <Ligand_Instance>  (984) 
nan

>  <PDB_ID>  (984) 
nan

>  <Standardized_SMILES>  (984) 
CNc1nccc(-c2cccnc2Oc2ccc(NC(=O)c3cc(F)ccc3Nc3ccccc3)cc2)n1

>  <Name>  (984) 
nan

>  <Pocket>  (984) 
nan

>  <ATP_Site>  (984) 
nan

>  <Peripheral>  (984) 
nan

>  <Num_H_Atoms_ProtBoundConf>  (984) 
nan

>  <Num_Resolved_Atoms>  (984) 
nan

>  <Num_Not_Resolved_Atoms>  (984) 
nan

$$$$
CHEMBL1243294
     RDKit          3D

  0  0  0  0  0  0  0  0  0  0999 V3000
M  V30 BEGIN CTAB
M  V30 COUNTS 61 66 0 0 0
M  V30 BEGIN ATOM
M  V30 1 C 4.984564 -0.818116 4.022456 0
M  V30 2 N 4.777504 0.590987 4.293671 0
M  V30 3 C 4.082302 1.563377 5.046181 0
M  V30 4 N 4.671678 2.082721 6.140011 0
M  V30 5 C 4.026583 3.021511 6.890684 0
M  V30 6 C 2.759879 3.369702 6.431754 0
M  V30 7 C 2.167056 2.829659 5.310153 0
M  V30 8 C 0.815284 3.208605 4.900125 0
M  V30 9 C 0.096419 4.207569 5.564974 0
M  V30 10 C -1.199324 4.530671 5.192547 0
M  V30 11 C -1.789577 3.856651 4.148424 0
M  V30 12 N -1.110537 2.884015 3.488069 0
M  V30 13 C 0.155108 2.564781 3.848513 0
M  V30 14 O 0.932279 1.606019 3.249923 0
M  V30 15 C 0.538135 0.792399 2.217883 0
M  V30 16 C -0.651717 0.522238 1.602135 0
M  V30 17 C -0.700651 -0.391728 0.541025 0
M  V30 18 C 0.460178 -1.006484 0.131792 0
M  V30 19 N 0.428070 -1.944939 -0.935135 0
M  V30 20 C -0.562304 -2.576291 -1.698555 0
M  V30 21 N -1.561304 -3.164886 -1.039825 0
M  V30 22 N -2.520356 -3.787055 -1.671129 0
M  V30 23 C -2.619136 -3.906950 -3.000272 0
M  V30 24 C -3.692979 -4.608183 -3.692671 0
M  V30 25 C -5.020272 -4.323758 -3.455225 0
M  V30 26 C -5.953568 -5.084188 -4.137509 0
M  V30 27 C -5.585345 -6.082390 -5.016680 0
M  V30 28 C -4.245386 -6.382567 -5.267652 0
M  V30 29 C -3.324576 -5.605717 -4.570866 0
M  V30 30 C -1.597888 -3.302415 -3.691998 0
M  V30 31 C -1.536443 -3.293681 -5.060910 0
M  V30 32 C -0.519905 -2.669158 -5.754912 0
M  V30 33 C 0.498222 -2.013014 -5.098663 0
M  V30 34 C 0.479827 -1.993439 -3.698232 0
M  V30 35 C -0.559677 -2.633201 -3.083603 0
M  V30 36 C 1.709898 -0.770159 0.723198 0
M  V30 37 C 1.713011 0.156559 1.788077 0
M  V30 38 N 2.848061 1.900811 4.596746 0
M  V30 39 H 4.623211 -0.955244 2.955403 0
M  V30 40 H 4.328278 -1.459591 4.620486 0
M  V30 41 H 6.035756 -1.106336 4.094035 0
M  V30 42 H 5.430500 1.153556 3.689077 0
M  V30 43 H 4.472349 3.455980 7.772548 0
M  V30 44 H 2.278946 4.111542 7.048837 0
M  V30 45 H 0.522684 4.764127 6.383836 0
M  V30 46 H -1.733774 5.295914 5.704874 0
M  V30 47 H -2.791141 4.131080 3.880454 0
M  V30 48 H -1.462777 1.077987 2.033516 0
M  V30 49 H -1.662143 -0.559057 0.106196 0
M  V30 50 H 1.342675 -2.328838 -1.324781 0
M  V30 51 H -5.247860 -3.536817 -2.763694 0
M  V30 52 H -6.981665 -4.868498 -3.958113 0
M  V30 53 H -6.391391 -6.613968 -5.497583 0
M  V30 54 H -4.028013 -7.173509 -5.965518 0
M  V30 55 H -2.319550 -5.929882 -4.825428 0
M  V30 56 H -2.273887 -3.754183 -5.672824 0
M  V30 57 H -0.467327 -2.662940 -6.844174 0
M  V30 58 H 1.323738 -1.504876 -5.582858 0
M  V30 59 H 1.267264 -1.484626 -3.176418 0
M  V30 60 H 2.576086 -1.293179 0.346751 0
M  V30 61 H 2.737111 0.250789 2.156304 0
M  V30 END ATOM
M  V30 BEGIN BOND
M  V30 1 1 1 2
M  V30 2 1 2 3
M  V30 3 2 3 4
M  V30 4 1 4 5
M  V30 5 2 5 6
M  V30 6 1 6 7
M  V30 7 1 7 8
M  V30 8 2 8 9
M  V30 9 1 9 10
M  V30 10 2 10 11
M  V30 11 1 11 12
M  V30 12 2 12 13
M  V30 13 1 13 14
M  V30 14 1 14 15
M  V30 15 2 15 16
M  V30 16 1 16 17
M  V30 17 2 17 18
M  V30 18 1 18 19
M  V30 19 1 19 20
M  V30 20 2 20 21
M  V30 21 1 21 22
M  V30 22 2 22 23
M  V30 23 1 23 24
M  V30 24 2 24 25
M  V30 25 1 25 26
M  V30 26 2 26 27
M  V30 27 1 27 28
M  V30 28 2 28 29
M  V30 29 1 23 30
M  V30 30 2 30 31
M  V30 31 1 31 32
M  V30 32 2 32 33
M  V30 33 1 33 34
M  V30 34 2 34 35
M  V30 35 1 18 36
M  V30 36 2 36 37
M  V30 37 2 7 38
M  V30 38 1 38 3
M  V30 39 1 13 8
M  V30 40 1 37 15
M  V30 41 1 35 20
M  V30 42 1 29 24
M  V30 43 1 35 30
M  V30 44 1 1 39
M  V30 45 1 1 40
M  V30 46 1 1 41
M  V30 47 1 2 42
M  V30 48 1 5 43
M  V30 49 1 6 44
M  V30 50 1 9 45
M  V30 51 1 10 46
M  V30 52 1 11 47
M  V30 53 1 16 48
M  V30 54 1 17 49
M  V30 55 1 19 50
M  V30 56 1 25 51
M  V30 57 1 26 52
M  V30 58 1 27 53
M  V30 59 1 28 54
M  V30 60 1 29 55
M  V30 61 1 31 56
M  V30 62 1 32 57
M  V30 63 1 33 58
M  V30 64 1 34 59
M  V30 65 1 36 60
M  V30 66 1 37 61
M  V30 END BOND
M  V30 END CTAB
M  END
>  <Dataset>  (985) 
ChEMBL_Kinases

>  <Ligand_Instance>  (985) 
nan

>  <PDB_ID>  (985) 
nan

>  <Standardized_SMILES>  (985) 
CNc1nccc(-c2cccnc2Oc2ccc(Nc3nnc(-c4ccccc4)c4ccccc34)cc2)n1

>  <Name>  (985) 
nan

>  <Pocket>  (985) 
nan

>  <ATP_Site>  (985) 
nan

>  <Peripheral>  (985) 
nan

>  <Num_H_Atoms_ProtBoundConf>  (985) 
nan

>  <Num_Resolved_Atoms>  (985) 
nan

>  <Num_Not_Resolved_Atoms>  (985) 
nan

$$$$
CHEMBL1243326
     RDKit          3D

  0  0  0  0  0  0  0  0  0  0999 V3000
M  V30 BEGIN CTAB
M  V30 COUNTS 61 66 0 0 0
M  V30 BEGIN ATOM
M  V30 1 C 2.999943 -1.051041 2.445173 0
M  V30 2 N 2.028249 0.032372 2.387230 0
M  V30 3 C 2.431716 1.273387 1.838797 0
M  V30 4 N 3.724017 1.302729 1.395837 0
M  V30 5 C 4.112554 2.516813 0.898552 0
M  V30 6 C 3.262816 3.582560 0.861762 0
M  V30 7 C 1.955790 3.533182 1.316423 0
M  V30 8 C 1.226613 4.765737 1.172684 0
M  V30 9 C 1.804650 5.968517 0.856153 0
M  V30 10 C 1.038623 7.100488 0.733114 0
M  V30 11 C -0.321440 7.038887 0.926647 0
M  V30 12 N -0.839853 5.833074 1.234797 0
M  V30 13 C -0.132086 4.704412 1.364786 0
M  V30 14 O -0.977988 3.759595 1.657661 0
M  V30 15 C -1.226363 2.489742 1.926495 0
M  V30 16 C -1.463044 1.850514 0.693744 0
M  V30 17 C -1.765461 0.475692 0.574332 0
M  V30 18 C -1.822319 -0.240350 1.743975 0
M  V30 19 N -2.061076 -1.626453 1.880518 0
M  V30 20 C -2.186715 -2.736797 1.023237 0
M  V30 21 N -3.229106 -3.552455 0.784834 0
M  V30 22 N -3.225142 -4.580627 -0.035377 0
M  V30 23 C -2.143698 -4.939322 -0.747006 0
M  V30 24 C -2.335961 -6.108681 -1.591854 0
M  V30 25 C -3.352241 -6.286122 -2.495030 0
M  V30 26 C -3.487209 -7.442536 -3.243582 0
M  V30 27 C -2.594013 -8.495790 -3.122162 0
M  V30 28 F -2.744784 -9.612644 -3.865871 0
M  V30 29 C -1.551570 -8.347172 -2.213930 0
M  V30 30 C -1.452288 -7.189970 -1.491552 0
M  V30 31 C -1.022495 -4.159561 -0.572492 0
M  V30 32 C 0.059011 -4.530685 -1.328508 0
M  V30 33 C 1.229617 -3.818647 -1.257983 0
M  V30 34 C 1.268606 -2.721154 -0.400266 0
M  V30 35 C 0.150047 -2.400697 0.330235 0
M  V30 36 C -1.057250 -3.089862 0.292840 0
M  V30 37 C -1.594309 0.373776 2.948470 0
M  V30 38 C -1.300238 1.711441 3.058287 0
M  V30 39 N 1.631067 2.335808 1.786062 0
M  V30 40 H 3.938851 -0.815955 1.890240 0
M  V30 41 H 3.276477 -1.198775 3.538518 0
M  V30 42 H 2.613725 -1.995979 2.051260 0
M  V30 43 H 1.168411 -0.333511 2.793559 0
M  V30 44 H 5.153768 2.481409 0.552621 0
M  V30 45 H 3.822927 4.402325 0.423032 0
M  V30 46 H 2.845824 6.082271 0.700590 0
M  V30 47 H 1.520669 8.057819 0.476866 0
M  V30 48 H -0.855649 7.993945 0.807561 0
M  V30 49 H -1.458642 2.265515 -0.319235 0
M  V30 50 H -1.956834 -0.076747 -0.309792 0
M  V30 51 H -2.210692 -2.133694 2.758040 0
M  V30 52 H -4.026271 -5.417859 -2.547288 0
M  V30 53 H -4.332612 -7.466260 -3.924773 0
M  V30 54 H -0.882184 -9.195773 -2.156652 0
M  V30 55 H -0.590553 -7.224409 -0.812895 0
M  V30 56 H 0.078281 -5.361205 -2.019376 0
M  V30 57 H 2.144300 -3.989110 -1.781930 0
M  V30 58 H 2.179817 -2.109639 -0.299722 0
M  V30 59 H 0.229970 -1.543695 0.981561 0
M  V30 60 H -1.620145 -0.110507 3.928775 0
M  V30 61 H -1.103923 2.311057 3.937438 0
M  V30 END ATOM
M  V30 BEGIN BOND
M  V30 1 1 1 2
M  V30 2 1 2 3
M  V30 3 2 3 4
M  V30 4 1 4 5
M  V30 5 2 5 6
M  V30 6 1 6 7
M  V30 7 1 7 8
M  V30 8 2 8 9
M  V30 9 1 9 10
M  V30 10 2 10 11
M  V30 11 1 11 12
M  V30 12 2 12 13
M  V30 13 1 13 14
M  V30 14 1 14 15
M  V30 15 2 15 16
M  V30 16 1 16 17
M  V30 17 2 17 18
M  V30 18 1 18 19
M  V30 19 1 19 20
M  V30 20 2 20 21
M  V30 21 1 21 22
M  V30 22 2 22 23
M  V30 23 1 23 24
M  V30 24 2 24 25
M  V30 25 1 25 26
M  V30 26 2 26 27
M  V30 27 1 27 28
M  V30 28 1 27 29
M  V30 29 2 29 30
M  V30 30 1 23 31
M  V30 31 2 31 32
M  V30 32 1 32 33
M  V30 33 2 33 34
M  V30 34 1 34 35
M  V30 35 2 35 36
M  V30 36 1 18 37
M  V30 37 2 37 38
M  V30 38 2 7 39
M  V30 39 1 39 3
M  V30 40 1 13 8
M  V30 41 1 38 15
M  V30 42 1 36 20
M  V30 43 1 30 24
M  V30 44 1 36 31
M  V30 45 1 1 40
M  V30 46 1 1 41
M  V30 47 1 1 42
M  V30 48 1 2 43
M  V30 49 1 5 44
M  V30 50 1 6 45
M  V30 51 1 9 46
M  V30 52 1 10 47
M  V30 53 1 11 48
M  V30 54 1 16 49
M  V30 55 1 17 50
M  V30 56 1 19 51
M  V30 57 1 25 52
M  V30 58 1 26 53
M  V30 59 1 29 54
M  V30 60 1 30 55
M  V30 61 1 32 56
M  V30 62 1 33 57
M  V30 63 1 34 58
M  V30 64 1 35 59
M  V30 65 1 37 60
M  V30 66 1 38 61
M  V30 END BOND
M  V30 END CTAB
M  END
>  <Dataset>  (986) 
ChEMBL_Kinases

>  <Ligand_Instance>  (986) 
nan

>  <PDB_ID>  (986) 
nan

>  <Standardized_SMILES>  (986) 
CNc1nccc(-c2cccnc2Oc2ccc(Nc3nnc(-c4ccc(F)cc4)c4ccccc34)cc2)n1

>  <Name>  (986) 
nan

>  <Pocket>  (986) 
nan

>  <ATP_Site>  (986) 
nan

>  <Peripheral>  (986) 
nan

>  <Num_H_Atoms_ProtBoundConf>  (986) 
nan

>  <Num_Resolved_Atoms>  (986) 
nan

>  <Num_Not_Resolved_Atoms>  (986) 
nan

$$$$
CHEMBL1256842
     RDKit          3D

  0  0  0  0  0  0  0  0  0  0999 V3000
M  V30 BEGIN CTAB
M  V30 COUNTS 36 38 0 0 0
M  V30 BEGIN ATOM
M  V30 1 C -2.815802 -2.507092 1.061840 0
M  V30 2 N -1.623880 -1.756239 1.302745 0
M  V30 3 C -0.492194 -2.574529 1.583917 0
M  V30 4 C 0.768351 -2.138826 0.929392 0
M  V30 5 C 1.776065 -3.033278 0.640207 0
M  V30 6 N 1.640686 -4.411331 0.961198 0
M  V30 7 C 2.936491 -2.572806 0.026525 0
M  V30 8 C 3.120464 -1.250314 -0.306060 0
M  V30 9 C 2.118836 -0.342461 -0.022162 0
M  V30 10 C 0.982046 -0.802286 0.580664 0
M  V30 11 C -0.169329 0.091473 0.935215 0
M  V30 12 C -0.024579 1.440270 0.393613 0
M  V30 13 C -0.463311 1.894883 -0.823663 0
M  V30 14 C -0.254698 3.200768 -1.202697 0
M  V30 15 C 0.404846 4.102406 -0.370263 0
M  V30 16 C 0.856113 3.658777 0.866707 0
M  V30 17 C 0.636119 2.343217 1.227670 0
M  V30 18 C -1.394371 -0.651856 0.424903 0
M  V30 19 H -2.654515 -3.516571 1.530221 0
M  V30 20 H -3.671649 -2.067557 1.623857 0
M  V30 21 H -3.043349 -2.688767 0.004010 0
M  V30 22 H -0.380615 -2.586971 2.704076 0
M  V30 23 H -0.678498 -3.635900 1.315581 0
M  V30 24 H 0.941155 -5.145918 0.721954 0
M  V30 25 H 2.248317 -5.041174 1.545841 0
M  V30 26 H 3.737125 -3.256034 -0.208388 0
M  V30 27 H 3.998531 -0.843899 -0.781339 0
M  V30 28 H 2.117562 0.738179 -0.225076 0
M  V30 29 H -0.251167 0.091162 2.030802 0
M  V30 30 H -0.976429 1.164462 -1.453070 0
M  V30 31 H -0.623917 3.504772 -2.177647 0
M  V30 32 H 0.566383 5.111614 -0.662515 0
M  V30 33 H 1.381344 4.332912 1.557219 0
M  V30 34 H 1.016590 2.052174 2.218345 0
M  V30 35 H -1.220073 -1.021743 -0.599032 0
M  V30 36 H -2.294984 -0.008387 0.440395 0
M  V30 END ATOM
M  V30 BEGIN BOND
M  V30 1 1 1 2
M  V30 2 1 2 3
M  V30 3 1 3 4
M  V30 4 2 4 5
M  V30 5 1 5 6
M  V30 6 1 5 7
M  V30 7 2 7 8
M  V30 8 1 8 9
M  V30 9 2 9 10
M  V30 10 1 10 11
M  V30 11 1 11 12
M  V30 12 2 12 13
M  V30 13 1 13 14
M  V30 14 2 14 15
M  V30 15 1 15 16
M  V30 16 2 16 17
M  V30 17 1 11 18
M  V30 18 1 18 2
M  V30 19 1 10 4
M  V30 20 1 17 12
M  V30 21 1 1 19
M  V30 22 1 1 20
M  V30 23 1 1 21
M  V30 24 1 3 22
M  V30 25 1 3 23
M  V30 26 1 6 24
M  V30 27 1 6 25
M  V30 28 1 7 26
M  V30 29 1 8 27
M  V30 30 1 9 28
M  V30 31 1 11 29
M  V30 32 1 13 30
M  V30 33 1 14 31
M  V30 34 1 15 32
M  V30 35 1 16 33
M  V30 36 1 17 34
M  V30 37 1 18 35
M  V30 38 1 18 36
M  V30 END BOND
M  V30 END CTAB
M  END
>  <Dataset>  (987) 
ChEMBL_Kinases

>  <Ligand_Instance>  (987) 
nan

>  <PDB_ID>  (987) 
nan

>  <Standardized_SMILES>  (987) 
CN1Cc2c(N)cccc2C(c2ccccc2)C1

>  <Name>  (987) 
NOMIFENSINE MALEATE

>  <Pocket>  (987) 
nan

>  <ATP_Site>  (987) 
nan

>  <Peripheral>  (987) 
nan

>  <Num_H_Atoms_ProtBoundConf>  (987) 
nan

>  <Num_Resolved_Atoms>  (987) 
nan

>  <Num_Not_Resolved_Atoms>  (987) 
nan

$$$$
CHEMBL125
     RDKit          3D

  0  0  0  0  0  0  0  0  0  0999 V3000
M  V30 BEGIN CTAB
M  V30 COUNTS 73 72 0 0 0
M  V30 BEGIN ATOM
M  V30 1 C 2.772735 -1.401115 3.862550 0
M  V30 2 C 3.463772 -2.626275 3.333543 0
M  V30 3 C 4.780626 -2.277396 2.640339 0
M  V30 4 C 4.547237 -1.356286 1.486061 0
M  V30 5 C 5.836260 -1.000011 0.789045 0
M  V30 6 C 5.605514 -0.070880 -0.376490 0
M  V30 7 C 4.698665 -0.665089 -1.429978 0
M  V30 8 C 4.523866 0.330860 -2.556612 0
M  V30 9 C 3.628529 -0.210570 -3.634996 0
M  V30 10 C 2.253379 -0.548768 -3.166913 0
M  V30 11 C 1.510619 0.641727 -2.597779 0
M  V30 12 C 0.161995 0.153437 -2.175841 0
M  V30 13 C -0.721959 1.241217 -1.579086 0
M  V30 14 C -0.125114 1.858269 -0.366233 0
M  V30 15 C -0.924414 2.947422 0.268213 0
M  V30 16 C -2.276120 2.535681 0.733597 0
M  V30 17 O -3.120965 2.072663 -0.263487 0
M  V30 18 P -4.580422 1.652016 0.508716 0
M  V30 19 O -5.702957 1.639888 -0.483682 0
M  V30 20 O -4.893527 2.860056 1.650281 0 CHG=-1 VAL=1
M  V30 21 O -4.335558 0.183662 1.258759 0
M  V30 22 C -5.197449 -0.820889 0.862444 0
M  V30 23 C -4.921696 -2.130755 1.564134 0
M  V30 24 N -5.812073 -3.181019 1.158854 0 CHG=1 VAL=4
M  V30 25 C -6.826591 -3.514267 2.131207 0
M  V30 26 C -6.513638 -2.865523 -0.082199 0
M  V30 27 C -5.067278 -4.420078 0.901086 0
M  V30 28 H 3.493672 -0.744032 4.402498 0
M  V30 29 H 2.194864 -0.870134 3.078627 0
M  V30 30 H 2.034365 -1.740496 4.626748 0
M  V30 31 H 2.813733 -3.123479 2.600621 0
M  V30 32 H 3.641033 -3.312718 4.186119 0
M  V30 33 H 5.531906 -1.900842 3.355504 0
M  V30 34 H 5.159765 -3.254614 2.262162 0
M  V30 35 H 4.052393 -0.414853 1.820294 0
M  V30 36 H 3.910095 -1.852267 0.736510 0
M  V30 37 H 6.484767 -0.445960 1.498430 0
M  V30 38 H 6.332274 -1.925277 0.450910 0
M  V30 39 H 5.171124 0.867509 -0.022668 0
M  V30 40 H 6.568420 0.158973 -0.845912 0
M  V30 41 H 5.106208 -1.588750 -1.855061 0
M  V30 42 H 3.679954 -0.871163 -1.041439 0
M  V30 43 H 5.510473 0.572611 -3.023411 0
M  V30 44 H 4.085000 1.258624 -2.142612 0
M  V30 45 H 4.094738 -1.181482 -3.963518 0
M  V30 46 H 3.610275 0.462055 -4.495722 0
M  V30 47 H 1.674153 -0.877920 -4.060967 0
M  V30 48 H 2.259245 -1.352400 -2.423184 0
M  V30 49 H 1.363630 1.381470 -3.432860 0
M  V30 50 H 2.074026 1.162693 -1.821782 0
M  V30 51 H 0.303234 -0.609683 -1.373445 0
M  V30 52 H -0.393106 -0.260761 -3.018826 0
M  V30 53 H -1.660147 0.684563 -1.296934 0
M  V30 54 H -1.001604 2.001910 -2.314157 0
M  V30 55 H 0.032808 1.057092 0.409147 0
M  V30 56 H 0.879572 2.281359 -0.634107 0
M  V30 57 H -0.979235 3.805858 -0.445113 0
M  V30 58 H -0.359267 3.282864 1.169491 0
M  V30 59 H -2.737920 3.410539 1.254064 0
M  V30 60 H -2.167365 1.725180 1.497643 0
M  V30 61 H -6.217170 -0.490741 1.202979 0
M  V30 62 H -5.219284 -0.896149 -0.223153 0
M  V30 63 H -3.877376 -2.478342 1.379331 0
M  V30 64 H -4.978798 -1.955497 2.657533 0
M  V30 65 H -6.417087 -3.607922 3.139554 0
M  V30 66 H -7.194474 -4.542079 1.840539 0
M  V30 67 H -7.705237 -2.852269 2.039086 0
M  V30 68 H -7.195818 -3.732239 -0.269768 0
M  V30 69 H -7.072502 -1.930219 0.040247 0
M  V30 70 H -5.759705 -2.751578 -0.882079 0
M  V30 71 H -5.717389 -5.284669 1.092152 0
M  V30 72 H -4.771920 -4.417016 -0.177522 0
M  V30 73 H -4.159026 -4.381353 1.551647 0
M  V30 END ATOM
M  V30 BEGIN BOND
M  V30 1 1 1 2
M  V30 2 1 2 3
M  V30 3 1 3 4
M  V30 4 1 4 5
M  V30 5 1 5 6
M  V30 6 1 6 7
M  V30 7 1 7 8
M  V30 8 1 8 9
M  V30 9 1 9 10
M  V30 10 1 10 11
M  V30 11 1 11 12
M  V30 12 1 12 13
M  V30 13 1 13 14
M  V30 14 1 14 15
M  V30 15 1 15 16
M  V30 16 1 16 17
M  V30 17 1 17 18
M  V30 18 2 18 19
M  V30 19 1 18 20
M  V30 20 1 18 21
M  V30 21 1 21 22
M  V30 22 1 22 23
M  V30 23 1 23 24
M  V30 24 1 24 25
M  V30 25 1 24 26
M  V30 26 1 24 27
M  V30 27 1 1 28
M  V30 28 1 1 29
M  V30 29 1 1 30
M  V30 30 1 2 31
M  V30 31 1 2 32
M  V30 32 1 3 33
M  V30 33 1 3 34
M  V30 34 1 4 35
M  V30 35 1 4 36
M  V30 36 1 5 37
M  V30 37 1 5 38
M  V30 38 1 6 39
M  V30 39 1 6 40
M  V30 40 1 7 41
M  V30 41 1 7 42
M  V30 42 1 8 43
M  V30 43 1 8 44
M  V30 44 1 9 45
M  V30 45 1 9 46
M  V30 46 1 10 47
M  V30 47 1 10 48
M  V30 48 1 11 49
M  V30 49 1 11 50
M  V30 50 1 12 51
M  V30 51 1 12 52
M  V30 52 1 13 53
M  V30 53 1 13 54
M  V30 54 1 14 55
M  V30 55 1 14 56
M  V30 56 1 15 57
M  V30 57 1 15 58
M  V30 58 1 16 59
M  V30 59 1 16 60
M  V30 60 1 22 61
M  V30 61 1 22 62
M  V30 62 1 23 63
M  V30 63 1 23 64
M  V30 64 1 25 65
M  V30 65 1 25 66
M  V30 66 1 25 67
M  V30 67 1 26 68
M  V30 68 1 26 69
M  V30 69 1 26 70
M  V30 70 1 27 71
M  V30 71 1 27 72
M  V30 72 1 27 73
M  V30 END BOND
M  V30 END CTAB
M  END
>  <Dataset>  (988) 
ChEMBL_Kinases

>  <Ligand_Instance>  (988) 
nan

>  <PDB_ID>  (988) 
nan

>  <Standardized_SMILES>  (988) 
CCCCCCCCCCCCCCCCOP(=O)([O-])OCC[N+](C)(C)C

>  <Name>  (988) 
MILTEFOSINE

>  <Pocket>  (988) 
nan

>  <ATP_Site>  (988) 
nan

>  <Peripheral>  (988) 
nan

>  <Num_H_Atoms_ProtBoundConf>  (988) 
nan

>  <Num_Resolved_Atoms>  (988) 
nan

>  <Num_Not_Resolved_Atoms>  (988) 
nan

$$$$
CHEMBL1254461
     RDKit          3D

  0  0  0  0  0  0  0  0  0  0999 V3000
M  V30 BEGIN CTAB
M  V30 COUNTS 38 40 0 0 0
M  V30 BEGIN ATOM
M  V30 1 O 1.619758 0.456604 2.616082 0
M  V30 2 C 0.874792 0.046492 1.679276 0
M  V30 3 C 1.588375 -0.726085 0.648958 0
M  V30 4 C 2.854497 -1.097873 0.618032 0
M  V30 5 C 3.515032 -1.867121 -0.424139 0
M  V30 6 C 3.110966 -2.978058 -1.130802 0
M  V30 7 C 3.872452 -3.574230 -2.110284 0
M  V30 8 C 5.107027 -3.013431 -2.386272 0
M  V30 9 C 5.554307 -1.905899 -1.708617 0
M  V30 10 C 4.768048 -1.313713 -0.717619 0
M  V30 11 Br 5.531998 0.211699 0.128587 0
M  V30 12 C 0.705282 -1.108186 -0.509275 0
M  V30 13 N -0.205892 -0.024396 -0.813502 0
M  V30 14 C -1.152828 0.230777 0.244481 0
M  V30 15 C -0.565567 0.282607 1.571319 0
M  V30 16 C -1.191187 0.563068 2.663605 0
M  V30 17 C -2.608747 0.824272 2.781386 0
M  V30 18 C -3.630032 0.000294 2.320714 0
M  V30 19 C -4.975953 0.273225 2.414397 0
M  V30 20 C -5.379341 1.445064 3.003892 0
M  V30 21 C -4.420715 2.308912 3.483785 0
M  V30 22 C -3.072985 1.987678 3.366380 0
M  V30 23 Br -1.821849 3.253803 4.058174 0
M  V30 24 H 3.363741 -0.749448 1.501163 0
M  V30 25 H 2.141015 -3.344928 -0.839712 0
M  V30 26 H 3.450762 -4.441182 -2.593156 0
M  V30 27 H 5.715272 -3.480873 -3.162580 0
M  V30 28 H 6.544044 -1.514451 -1.979562 0
M  V30 29 H 0.211226 -2.059533 -0.346109 0
M  V30 30 H 1.369170 -1.184441 -1.392975 0
M  V30 31 H -0.764259 -0.357828 -1.636077 0
M  V30 32 H -1.538219 1.274899 0.025005 0
M  V30 33 H -2.032131 -0.411543 0.150688 0
M  V30 34 H -0.675699 0.631400 3.626272 0
M  V30 35 H -3.404461 -0.942936 1.869940 0
M  V30 36 H -5.728962 -0.391454 2.046155 0
M  V30 37 H -6.432878 1.661182 3.079006 0
M  V30 38 H -4.821340 3.214502 3.935563 0
M  V30 END ATOM
M  V30 BEGIN BOND
M  V30 1 2 1 2
M  V30 2 1 2 3
M  V30 3 2 3 4
M  V30 4 1 4 5
M  V30 5 2 5 6
M  V30 6 1 6 7
M  V30 7 2 7 8
M  V30 8 1 8 9
M  V30 9 2 9 10
M  V30 10 1 10 11
M  V30 11 1 3 12
M  V30 12 1 12 13
M  V30 13 1 13 14
M  V30 14 1 14 15
M  V30 15 2 15 16
M  V30 16 1 16 17
M  V30 17 2 17 18
M  V30 18 1 18 19
M  V30 19 2 19 20
M  V30 20 1 20 21
M  V30 21 2 21 22
M  V30 22 1 22 23
M  V30 23 1 15 2
M  V30 24 1 22 17
M  V30 25 1 10 5
M  V30 26 1 4 24
M  V30 27 1 6 25
M  V30 28 1 7 26
M  V30 29 1 8 27
M  V30 30 1 9 28
M  V30 31 1 12 29
M  V30 32 1 12 30
M  V30 33 1 13 31
M  V30 34 1 14 32
M  V30 35 1 14 33
M  V30 36 1 16 34
M  V30 37 1 18 35
M  V30 38 1 19 36
M  V30 39 1 20 37
M  V30 40 1 21 38
M  V30 END BOND
M  V30 END CTAB
M  END
>  <Dataset>  (989) 
ChEMBL_Kinases

>  <Ligand_Instance>  (989) 
nan

>  <PDB_ID>  (989) 
nan

>  <Standardized_SMILES>  (989) 
O=C1/C(=C/c2ccccc2Br)CNC/C1=C\c1ccccc1Br

>  <Name>  (989) 
nan

>  <Pocket>  (989) 
nan

>  <ATP_Site>  (989) 
nan

>  <Peripheral>  (989) 
nan

>  <Num_H_Atoms_ProtBoundConf>  (989) 
nan

>  <Num_Resolved_Atoms>  (989) 
nan

>  <Num_Not_Resolved_Atoms>  (989) 
nan

$$$$
CHEMBL1256024
     RDKit          3D

  0  0  0  0  0  0  0  0  0  0999 V3000
M  V30 BEGIN CTAB
M  V30 COUNTS 17 16 0 0 0
M  V30 BEGIN ATOM
M  V30 1 N -0.241691 0.139615 -1.393952 0
M  V30 2 C 0.558918 -0.459575 -0.393051 0
M  V30 3 C 0.875680 0.484358 0.741384 0
M  V30 4 C 1.729983 -0.250097 1.749855 0
M  V30 5 S 2.152924 0.788211 3.125503 0
M  V30 6 O 3.015963 0.057333 4.112942 0
M  V30 7 O 2.977248 1.936472 2.611904 0
M  V30 8 O 0.798711 1.327155 3.925181 0
M  V30 9 H -0.037000 1.080869 -1.702730 0
M  V30 10 H -1.053991 -0.358654 -1.734037 0
M  V30 11 H 1.490856 -0.816743 -0.858732 0
M  V30 12 H 0.026795 -1.325242 0.042810 0
M  V30 13 H 1.402086 1.365646 0.328247 0
M  V30 14 H -0.052989 0.860365 1.197295 0
M  V30 15 H 1.199121 -1.119964 2.141654 0
M  V30 16 H 2.652122 -0.613671 1.270751 0
M  V30 17 H 0.222215 1.810976 3.312001 0
M  V30 END ATOM
M  V30 BEGIN BOND
M  V30 1 1 1 2
M  V30 2 1 2 3
M  V30 3 1 3 4
M  V30 4 1 4 5
M  V30 5 2 5 6
M  V30 6 2 5 7
M  V30 7 1 5 8
M  V30 8 1 1 9
M  V30 9 1 1 10
M  V30 10 1 2 11
M  V30 11 1 2 12
M  V30 12 1 3 13
M  V30 13 1 3 14
M  V30 14 1 4 15
M  V30 15 1 4 16
M  V30 16 1 8 17
M  V30 END BOND
M  V30 END CTAB
M  END
>  <Dataset>  (990) 
ChEMBL_Kinases

>  <Ligand_Instance>  (990) 
nan

>  <PDB_ID>  (990) 
nan

>  <Standardized_SMILES>  (990) 
NCCCS(=O)(=O)O

>  <Name>  (990) 
nan

>  <Pocket>  (990) 
nan

>  <ATP_Site>  (990) 
nan

>  <Peripheral>  (990) 
nan

>  <Num_H_Atoms_ProtBoundConf>  (990) 
nan

>  <Num_Resolved_Atoms>  (990) 
nan

>  <Num_Not_Resolved_Atoms>  (990) 
nan

$$$$
CHEMBL1256390
     RDKit          3D

  0  0  0  0  0  0  0  0  0  0999 V3000
M  V30 BEGIN CTAB
M  V30 COUNTS 31 32 0 0 0
M  V30 BEGIN ATOM
M  V30 1 O 1.915922 -3.140555 2.426611 0
M  V30 2 C 1.215763 -4.176824 2.615719 0
M  V30 3 O 1.102617 -4.948475 3.756578 0
M  V30 4 C 0.680279 -4.142794 1.242083 0
M  V30 5 C 0.605460 -2.779056 0.647816 0
M  V30 6 C -0.374820 -1.882976 1.288382 0 CFG=1
M  V30 7 C -0.255371 -1.574931 2.720088 0
M  V30 8 O -0.445408 -2.160529 3.852896 0
M  V30 9 O 0.168948 -0.353612 3.249854 0
M  V30 10 N -0.344499 -0.595134 0.524382 0
M  V30 11 C 0.813011 0.253770 0.461552 0
M  V30 12 O 1.928964 0.075411 0.999668 0
M  V30 13 C 0.454428 1.415267 -0.374632 0
M  V30 14 C 1.141846 2.539031 -0.783698 0
M  V30 15 C 0.505768 3.471031 -1.588837 0
M  V30 16 C -0.815926 3.277164 -1.982945 0
M  V30 17 C -1.512660 2.145585 -1.572868 0
M  V30 18 C -0.855028 1.234366 -0.771847 0
M  V30 19 C -1.417340 -0.018473 -0.236492 0
M  V30 20 O -2.550483 -0.505780 -0.381540 0
M  V30 21 H 1.424775 -4.473416 4.616794 0
M  V30 22 H -0.343735 -4.627281 1.260472 0
M  V30 23 H 1.359742 -4.817769 0.640007 0
M  V30 24 H 0.281093 -2.891545 -0.422224 0
M  V30 25 H 1.637115 -2.348304 0.680496 0
M  V30 26 H -1.408320 -2.301936 1.138722 0
M  V30 27 H 0.985444 -0.218064 3.813643 0
M  V30 28 H 2.161014 2.695868 -0.484234 0
M  V30 29 H 1.018723 4.362930 -1.925871 0
M  V30 30 H -1.366401 3.967949 -2.609831 0
M  V30 31 H -2.556284 1.994767 -1.885283 0
M  V30 END ATOM
M  V30 BEGIN BOND
M  V30 1 2 1 2
M  V30 2 1 2 3
M  V30 3 1 2 4
M  V30 4 1 4 5
M  V30 5 1 5 6
M  V30 6 1 6 7
M  V30 7 2 7 8
M  V30 8 1 7 9
M  V30 9 1 6 10
M  V30 10 1 10 11
M  V30 11 2 11 12
M  V30 12 1 11 13
M  V30 13 2 13 14
M  V30 14 1 14 15
M  V30 15 2 15 16
M  V30 16 1 16 17
M  V30 17 2 17 18
M  V30 18 1 18 19
M  V30 19 2 19 20
M  V30 20 1 19 10
M  V30 21 1 18 13
M  V30 22 1 3 21
M  V30 23 1 4 22
M  V30 24 1 4 23
M  V30 25 1 5 24
M  V30 26 1 5 25
M  V30 27 1 6 26 CFG=1
M  V30 28 1 9 27
M  V30 29 1 14 28
M  V30 30 1 15 29
M  V30 31 1 16 30
M  V30 32 1 17 31
M  V30 END BOND
M  V30 END CTAB
M  END
>  <Dataset>  (991) 
ChEMBL_Kinases

>  <Ligand_Instance>  (991) 
nan

>  <PDB_ID>  (991) 
nan

>  <Standardized_SMILES>  (991) 
O=C(O)CC[C@@H](C(=O)O)N1C(=O)c2ccccc2C1=O

>  <Name>  (991) 
nan

>  <Pocket>  (991) 
nan

>  <ATP_Site>  (991) 
nan

>  <Peripheral>  (991) 
nan

>  <Num_H_Atoms_ProtBoundConf>  (991) 
nan

>  <Num_Resolved_Atoms>  (991) 
nan

>  <Num_Not_Resolved_Atoms>  (991) 
nan

$$$$
CHEMBL1256623
     RDKit          3D

  0  0  0  0  0  0  0  0  0  0999 V3000
M  V30 BEGIN CTAB
M  V30 COUNTS 20 20 0 0 0
M  V30 BEGIN ATOM
M  V30 1 C -0.106060 0.438750 3.476128 0
M  V30 2 N -0.458701 -0.301188 2.296709 0
M  V30 3 N -1.504166 -1.196894 2.286493 0
M  V30 4 O -1.393004 -2.423911 2.121433 0
M  V30 5 C 0.298103 -0.098284 1.107583 0
M  V30 6 C 1.360757 0.781669 1.036209 0
M  V30 7 C 2.088736 0.972336 -0.119758 0
M  V30 8 C 1.737723 0.257087 -1.236658 0
M  V30 9 O 2.518169 0.499240 -2.374560 0
M  V30 10 C 0.679676 -0.640556 -1.223353 0
M  V30 11 O 0.400666 -1.315414 -2.396745 0
M  V30 12 C 0.003114 -0.780698 -0.049499 0
M  V30 13 H -0.356246 1.524270 3.302545 0
M  V30 14 H 0.963861 0.299136 3.696960 0
M  V30 15 H -0.766786 0.156486 4.331937 0
M  V30 16 H 1.617887 1.331971 1.925179 0
M  V30 17 H 2.912990 1.676374 -0.117375 0
M  V30 18 H 2.465827 -0.168019 -3.137125 0
M  V30 19 H -0.076695 -2.193524 -2.477325 0
M  V30 20 H -0.825756 -1.489949 -0.055344 0
M  V30 END ATOM
M  V30 BEGIN BOND
M  V30 1 1 1 2
M  V30 2 1 2 3
M  V30 3 2 3 4
M  V30 4 1 2 5
M  V30 5 2 5 6
M  V30 6 1 6 7
M  V30 7 2 7 8
M  V30 8 1 8 9
M  V30 9 1 8 10
M  V30 10 1 10 11
M  V30 11 2 10 12
M  V30 12 1 12 5
M  V30 13 1 1 13
M  V30 14 1 1 14
M  V30 15 1 1 15
M  V30 16 1 6 16
M  V30 17 1 7 17
M  V30 18 1 9 18
M  V30 19 1 11 19
M  V30 20 1 12 20
M  V30 END BOND
M  V30 END CTAB
M  END
>  <Dataset>  (992) 
ChEMBL_Kinases

>  <Ligand_Instance>  (992) 
nan

>  <PDB_ID>  (992) 
nan

>  <Standardized_SMILES>  (992) 
CN(N=O)c1ccc(O)c(O)c1

>  <Name>  (992) 
nan

>  <Pocket>  (992) 
nan

>  <ATP_Site>  (992) 
nan

>  <Peripheral>  (992) 
nan

>  <Num_H_Atoms_ProtBoundConf>  (992) 
nan

>  <Num_Resolved_Atoms>  (992) 
nan

>  <Num_Not_Resolved_Atoms>  (992) 
nan

$$$$
CHEMBL1256708
     RDKit          3D

  0  0  0  0  0  0  0  0  0  0999 V3000
M  V30 BEGIN CTAB
M  V30 COUNTS 37 40 0 0 0
M  V30 BEGIN ATOM
M  V30 1 C 0.951750 -0.940927 3.029172 0
M  V30 2 N 2.070389 -0.375896 2.368228 0
M  V30 3 C 3.231697 -1.223158 2.326776 0
M  V30 4 C 3.325278 -2.014014 1.030825 0
M  V30 5 C 1.963556 -2.125905 0.387679 0
M  V30 6 C 1.553876 -3.325537 -0.185947 0
M  V30 7 C 0.319112 -3.477464 -0.785943 0
M  V30 8 C -0.493974 -2.365249 -0.785999 0
M  V30 9 C -0.105872 -1.183118 -0.227740 0
M  V30 10 C 1.113898 -1.005681 0.374003 0
M  V30 11 C 1.776876 0.134124 1.043609 0 CFG=1
M  V30 12 C 0.910066 1.320094 1.030083 0
M  V30 13 C -0.379664 1.092771 0.385439 0
M  V30 14 C -1.158506 2.236949 0.409920 0
M  V30 15 C -2.437028 2.247130 -0.154974 0
M  V30 16 C -2.983086 1.113069 -0.764977 0
M  V30 17 O -4.256817 1.178007 -1.310043 0
M  V30 18 C -2.189991 -0.012973 -0.777209 0
M  V30 19 O -2.774325 -1.095682 -1.387565 0
M  V30 20 C -0.940735 -0.002258 -0.218526 0
M  V30 21 H 0.383778 -0.205979 3.661263 0
M  V30 22 H 1.155328 -1.861242 3.599095 0
M  V30 23 H 0.208112 -1.247976 2.238172 0
M  V30 24 H 4.161262 -0.670647 2.488203 0
M  V30 25 H 3.101382 -1.958383 3.147967 0
M  V30 26 H 3.710531 -3.021894 1.257611 0
M  V30 27 H 4.054039 -1.520691 0.353408 0
M  V30 28 H 2.214161 -4.206731 -0.178776 0
M  V30 29 H 0.059961 -4.433064 -1.212877 0
M  V30 30 H -1.426191 -2.532494 -1.256206 0
M  V30 31 H 2.764394 0.339811 0.528652 0
M  V30 32 H 1.421957 2.119025 0.405736 0
M  V30 33 H 0.807048 1.819914 2.021845 0
M  V30 34 H -0.900383 3.201237 0.836972 0
M  V30 35 H -3.079235 3.142142 -0.150480 0
M  V30 36 H -4.913455 0.454205 -1.019493 0
M  V30 37 H -3.621545 -1.547938 -1.064933 0
M  V30 END ATOM
M  V30 BEGIN BOND
M  V30 1 1 1 2
M  V30 2 1 2 3
M  V30 3 1 3 4
M  V30 4 1 4 5
M  V30 5 2 5 6
M  V30 6 1 6 7
M  V30 7 2 7 8
M  V30 8 1 8 9
M  V30 9 2 9 10
M  V30 10 1 10 11
M  V30 11 1 11 12
M  V30 12 1 12 13
M  V30 13 2 13 14
M  V30 14 1 14 15
M  V30 15 2 15 16
M  V30 16 1 16 17
M  V30 17 1 16 18
M  V30 18 1 18 19
M  V30 19 2 18 20
M  V30 20 1 11 2
M  V30 21 1 20 13
M  V30 22 1 10 5
M  V30 23 1 20 9
M  V30 24 1 1 21
M  V30 25 1 1 22
M  V30 26 1 1 23
M  V30 27 1 3 24
M  V30 28 1 3 25
M  V30 29 1 4 26
M  V30 30 1 4 27
M  V30 31 1 6 28
M  V30 32 1 7 29
M  V30 33 1 8 30
M  V30 34 1 11 31 CFG=3
M  V30 35 1 12 32
M  V30 36 1 12 33
M  V30 37 1 14 34
M  V30 38 1 15 35
M  V30 39 1 17 36
M  V30 40 1 19 37
M  V30 END BOND
M  V30 END CTAB
M  END
>  <Dataset>  (993) 
ChEMBL_Kinases

>  <Ligand_Instance>  (993) 
nan

>  <PDB_ID>  (993) 
nan

>  <Standardized_SMILES>  (993) 
CN1CCc2cccc3c2[C@H]1Cc1ccc(O)c(O)c1-3

>  <Name>  (993) 
APOMORPHINE HYDROCHLORIDE HEMIHYDRATE

>  <Pocket>  (993) 
nan

>  <ATP_Site>  (993) 
nan

>  <Peripheral>  (993) 
nan

>  <Num_H_Atoms_ProtBoundConf>  (993) 
nan

>  <Num_Resolved_Atoms>  (993) 
nan

>  <Num_Not_Resolved_Atoms>  (993) 
nan

$$$$
CHEMBL1256709
     RDKit          3D

  0  0  0  0  0  0  0  0  0  0999 V3000
M  V30 BEGIN CTAB
M  V30 COUNTS 51 54 0 0 0
M  V30 BEGIN ATOM
M  V30 1 O 3.751932 0.277298 -1.179845 0
M  V30 2 C 2.635734 -0.302989 -1.226472 0
M  V30 3 C 2.052607 -0.672753 -2.489256 0
M  V30 4 C 2.800117 -0.336476 -3.596565 0
M  V30 5 C 2.272824 -0.676251 -4.846398 0
M  V30 6 C 1.044950 -1.328554 -5.013046 0
M  V30 7 F 0.625850 -1.611389 -6.256066 0
M  V30 8 C 0.322406 -1.649961 -3.871185 0
M  V30 9 C 0.848201 -1.312606 -2.644830 0
M  V30 10 C 2.256600 -0.422083 0.179320 0
M  V30 11 C 3.355373 0.175189 1.040515 0
M  V30 12 C 3.084032 -0.038827 2.510938 0
M  V30 13 N 1.654263 -0.477752 2.570605 0
M  V30 14 C 1.267191 -0.715759 3.908819 0
M  V30 15 C 0.064775 -1.577676 4.037529 0
M  V30 16 N -1.162759 -1.185513 3.440120 0
M  V30 17 C -2.033025 -0.374756 4.105624 0
M  V30 18 O -1.772020 0.091876 5.243807 0
M  V30 19 N -3.211580 -0.044752 3.559556 0
M  V30 20 C -3.634497 -0.461728 2.355110 0
M  V30 21 C -4.835145 -0.136383 1.777688 0
M  V30 22 C -5.188290 -0.604409 0.544886 0
M  V30 23 C -4.312226 -1.432455 -0.147752 0
M  V30 24 C -3.081856 -1.777973 0.421725 0
M  V30 25 C -2.760971 -1.286400 1.667129 0
M  V30 26 C -1.546708 -1.640981 2.202243 0
M  V30 27 O -0.690299 -2.389687 1.642569 0
M  V30 28 C 0.912823 0.630689 1.945449 0
M  V30 29 C 0.952460 0.339095 0.468767 0
M  V30 30 H 3.772597 0.173533 -3.585390 0
M  V30 31 H 2.846773 -0.419889 -5.741055 0
M  V30 32 H -0.631870 -2.154126 -3.965513 0
M  V30 33 H 0.271064 -1.573557 -1.778646 0
M  V30 34 H 2.052671 -1.475254 0.479588 0
M  V30 35 H 3.461731 1.241254 0.752823 0
M  V30 36 H 4.322944 -0.366168 0.823846 0
M  V30 37 H 3.694671 -0.796337 2.994534 0
M  V30 38 H 3.151337 0.945894 3.011761 0
M  V30 39 H 1.180596 0.213378 4.524480 0
M  V30 40 H 2.111672 -1.274472 4.410080 0
M  V30 41 H -0.089809 -1.908593 5.114986 0
M  V30 42 H 0.318020 -2.589710 3.553508 0
M  V30 43 H -3.866237 0.575231 4.080837 0
M  V30 44 H -5.489474 0.515012 2.355898 0
M  V30 45 H -6.141619 -0.348686 0.080454 0
M  V30 46 H -4.532362 -1.828227 -1.109662 0
M  V30 47 H -2.406872 -2.427040 -0.135146 0
M  V30 48 H -0.075368 0.674396 2.357619 0
M  V30 49 H 1.492159 1.586379 2.088347 0
M  V30 50 H 0.072247 -0.224967 0.179617 0
M  V30 51 H 1.060070 1.279206 -0.119289 0
M  V30 END ATOM
M  V30 BEGIN BOND
M  V30 1 2 1 2
M  V30 2 1 2 3
M  V30 3 2 3 4
M  V30 4 1 4 5
M  V30 5 2 5 6
M  V30 6 1 6 7
M  V30 7 1 6 8
M  V30 8 2 8 9
M  V30 9 1 2 10
M  V30 10 1 10 11
M  V30 11 1 11 12
M  V30 12 1 12 13
M  V30 13 1 13 14
M  V30 14 1 14 15
M  V30 15 1 15 16
M  V30 16 1 16 17
M  V30 17 2 17 18
M  V30 18 1 17 19
M  V30 19 1 19 20
M  V30 20 2 20 21
M  V30 21 1 21 22
M  V30 22 2 22 23
M  V30 23 1 23 24
M  V30 24 2 24 25
M  V30 25 1 25 26
M  V30 26 2 26 27
M  V30 27 1 13 28
M  V30 28 1 28 29
M  V30 29 1 9 3
M  V30 30 1 29 10
M  V30 31 1 26 16
M  V30 32 1 25 20
M  V30 33 1 4 30
M  V30 34 1 5 31
M  V30 35 1 8 32
M  V30 36 1 9 33
M  V30 37 1 10 34
M  V30 38 1 11 35
M  V30 39 1 11 36
M  V30 40 1 12 37
M  V30 41 1 12 38
M  V30 42 1 14 39
M  V30 43 1 14 40
M  V30 44 1 15 41
M  V30 45 1 15 42
M  V30 46 1 19 43
M  V30 47 1 21 44
M  V30 48 1 22 45
M  V30 49 1 23 46
M  V30 50 1 24 47
M  V30 51 1 28 48
M  V30 52 1 28 49
M  V30 53 1 29 50
M  V30 54 1 29 51
M  V30 END BOND
M  V30 END CTAB
M  END
>  <Dataset>  (994) 
ChEMBL_Kinases

>  <Ligand_Instance>  (994) 
nan

>  <PDB_ID>  (994) 
nan

>  <Standardized_SMILES>  (994) 
O=C(c1ccc(F)cc1)C1CCN(CCn2c(=O)[nH]c3ccccc3c2=O)CC1

>  <Name>  (994) 
KETANSERIN TARTRATE

>  <Pocket>  (994) 
nan

>  <ATP_Site>  (994) 
nan

>  <Peripheral>  (994) 
nan

>  <Num_H_Atoms_ProtBoundConf>  (994) 
nan

>  <Num_Resolved_Atoms>  (994) 
nan

>  <Num_Not_Resolved_Atoms>  (994) 
nan

$$$$
CHEMBL1256759
     RDKit          3D

  0  0  0  0  0  0  0  0  0  0999 V3000
M  V30 BEGIN CTAB
M  V30 COUNTS 38 39 0 0 0
M  V30 BEGIN ATOM
M  V30 1 O 2.491902 -2.429044 2.072234 0
M  V30 2 C 1.642137 -2.092875 1.199099 0
M  V30 3 O 0.932322 -2.322927 2.345016 0
M  V30 4 C 1.813424 -1.726506 -0.219480 0
M  V30 5 C 3.179474 -1.840034 -0.499272 0
M  V30 6 C 3.516982 -1.555569 -1.783770 0
M  V30 7 N 4.841754 -1.609335 -2.271975 0 CHG=1 VAL=4
M  V30 8 O 5.830745 -1.918040 -1.591307 0
M  V30 9 O 5.182553 -1.322798 -3.566276 0 CHG=-1 VAL=1
M  V30 10 C 2.594988 -1.192978 -2.707421 0
M  V30 11 C 1.260726 -1.082585 -2.430947 0
M  V30 12 C 0.846239 -1.353642 -1.156183 0
M  V30 13 N -0.377681 -1.336445 -0.500227 0
M  V30 14 C -1.603432 -1.319177 0.156515 0
M  V30 15 C -2.412826 -0.042207 0.074294 0
M  V30 16 C -1.766669 1.168317 0.629720 0
M  V30 17 C -1.425785 1.104457 2.067984 0
M  V30 18 C -0.251371 0.707172 2.667709 0
M  V30 19 C -0.126358 0.709916 4.040712 0
M  V30 20 C -1.140298 1.100043 4.887207 0
M  V30 21 C -2.325522 1.502276 4.311548 0
M  V30 22 C -2.447865 1.498576 2.941712 0
M  V30 23 H 0.122757 -2.963517 2.341255 0
M  V30 24 H 4.000154 -2.114520 0.135070 0
M  V30 25 H 2.821216 -0.960677 -3.731748 0
M  V30 26 H 0.474610 -0.804381 -3.097353 0
M  V30 27 H -0.965791 -1.080343 -1.361986 0
M  V30 28 H -2.332083 -2.151679 -0.089653 0
M  V30 29 H -1.371875 -1.425579 1.283455 0
M  V30 30 H -3.393347 -0.163720 0.599300 0
M  V30 31 H -2.603154 0.175549 -1.018477 0
M  V30 32 H -2.489602 2.014293 0.454022 0
M  V30 33 H -0.858610 1.486012 0.031756 0
M  V30 34 H 0.499188 0.420837 1.955127 0
M  V30 35 H 0.826476 0.385114 4.455219 0
M  V30 36 H -0.955786 1.070878 5.946794 0
M  V30 37 H -3.141469 1.814892 4.948539 0
M  V30 38 H -3.413405 1.829111 2.563968 0
M  V30 END ATOM
M  V30 BEGIN BOND
M  V30 1 2 1 2
M  V30 2 1 2 3
M  V30 3 1 2 4
M  V30 4 2 4 5
M  V30 5 1 5 6
M  V30 6 1 6 7
M  V30 7 2 7 8
M  V30 8 1 7 9
M  V30 9 2 6 10
M  V30 10 1 10 11
M  V30 11 2 11 12
M  V30 12 1 12 13
M  V30 13 1 13 14
M  V30 14 1 14 15
M  V30 15 1 15 16
M  V30 16 1 16 17
M  V30 17 2 17 18
M  V30 18 1 18 19
M  V30 19 2 19 20
M  V30 20 1 20 21
M  V30 21 2 21 22
M  V30 22 1 12 4
M  V30 23 1 22 17
M  V30 24 1 3 23
M  V30 25 1 5 24
M  V30 26 1 10 25
M  V30 27 1 11 26
M  V30 28 1 13 27
M  V30 29 1 14 28
M  V30 30 1 14 29
M  V30 31 1 15 30
M  V30 32 1 15 31
M  V30 33 1 16 32
M  V30 34 1 16 33
M  V30 35 1 18 34
M  V30 36 1 19 35
M  V30 37 1 20 36
M  V30 38 1 21 37
M  V30 39 1 22 38
M  V30 END BOND
M  V30 END CTAB
M  END
>  <Dataset>  (995) 
ChEMBL_Kinases

>  <Ligand_Instance>  (995) 
nan

>  <PDB_ID>  (995) 
nan

>  <Standardized_SMILES>  (995) 
O=C(O)c1cc([N+](=O)[O-])ccc1NCCCc1ccccc1

>  <Name>  (995) 
5-NITRO-2-PHENYLPROPYLAMINOBENZOIC ACID [NPPB]

>  <Pocket>  (995) 
nan

>  <ATP_Site>  (995) 
nan

>  <Peripheral>  (995) 
nan

>  <Num_H_Atoms_ProtBoundConf>  (995) 
nan

>  <Num_Resolved_Atoms>  (995) 
nan

>  <Num_Not_Resolved_Atoms>  (995) 
nan

$$$$
CHEMBL124706
     RDKit          3D

  0  0  0  0  0  0  0  0  0  0999 V3000
M  V30 BEGIN CTAB
M  V30 COUNTS 17 18 0 0 0
M  V30 BEGIN ATOM
M  V30 1 O -1.027023 -1.828923 1.334171 0
M  V30 2 C 0.312780 -1.548581 1.285037 0
M  V30 3 N 1.334072 -2.409397 1.387205 0
M  V30 4 N 2.604826 -2.035822 1.326621 0
M  V30 5 C 3.006422 -0.766191 1.157847 0
M  V30 6 C 1.980284 0.166719 1.046355 0
M  V30 7 C 2.347168 1.494134 0.870365 0
M  V30 8 C 1.376535 2.480412 0.751382 0
M  V30 9 C 0.026536 2.118800 0.811166 0
M  V30 10 C -0.294895 0.785296 0.987516 0
M  V30 11 C 0.655509 -0.207098 1.107485 0
M  V30 12 H -1.599604 -1.512165 2.106056 0
M  V30 13 H 4.043439 -0.495176 1.112807 0
M  V30 14 H 3.386047 1.761844 0.825730 0
M  V30 15 H 1.660288 3.514873 0.614243 0
M  V30 16 H -0.760723 2.856913 0.722685 0
M  V30 17 H -1.334713 0.531416 1.030356 0
M  V30 END ATOM
M  V30 BEGIN BOND
M  V30 1 1 1 2
M  V30 2 2 2 3
M  V30 3 1 3 4
M  V30 4 2 4 5
M  V30 5 1 5 6
M  V30 6 2 6 7
M  V30 7 1 7 8
M  V30 8 2 8 9
M  V30 9 1 9 10
M  V30 10 2 10 11
M  V30 11 1 11 2
M  V30 12 1 11 6
M  V30 13 1 1 12
M  V30 14 1 5 13
M  V30 15 1 7 14
M  V30 16 1 8 15
M  V30 17 1 9 16
M  V30 18 1 10 17
M  V30 END BOND
M  V30 END CTAB
M  END
>  <Dataset>  (996) 
ChEMBL_Kinases

>  <Ligand_Instance>  (996) 
nan

>  <PDB_ID>  (996) 
nan

>  <Standardized_SMILES>  (996) 
Oc1nncc2ccccc12

>  <Name>  (996) 
PHTHALAZINONE

>  <Pocket>  (996) 
nan

>  <ATP_Site>  (996) 
nan

>  <Peripheral>  (996) 
nan

>  <Num_H_Atoms_ProtBoundConf>  (996) 
nan

>  <Num_Resolved_Atoms>  (996) 
nan

>  <Num_Not_Resolved_Atoms>  (996) 
nan

$$$$
CHEMBL1271631
     RDKit          3D

  0  0  0  0  0  0  0  0  0  0999 V3000
M  V30 BEGIN CTAB
M  V30 COUNTS 67 70 0 0 0
M  V30 BEGIN ATOM
M  V30 1 C -1.638883 -1.787164 4.136771 0
M  V30 2 C -1.312965 -0.501846 4.855649 0
M  V30 3 N -0.092896 -0.562327 5.630930 0
M  V30 4 C -0.154821 -0.987883 7.032184 0
M  V30 5 C 1.226843 -0.236845 5.138030 0
M  V30 6 O 2.278006 -0.296659 5.860105 0
M  V30 7 C 1.220921 0.167237 3.723403 0
M  V30 8 C 1.698536 -0.741865 2.780655 0
M  V30 9 C 1.720441 -0.443240 1.436467 0
M  V30 10 C 1.272607 0.763162 0.967158 0
M  V30 11 C 0.810000 1.636495 1.897497 0
M  V30 12 C 0.768970 1.381827 3.253227 0
M  V30 13 N 0.369783 2.816071 1.205766 0
M  V30 14 C 0.572026 2.656332 -0.189140 0
M  V30 15 O 0.346718 3.406764 -1.160720 0
M  V30 16 C 1.162374 1.319750 -0.364957 0
M  V30 17 C 1.572658 0.703686 -1.456611 0
M  V30 18 N 1.353655 1.432614 -2.648692 0
M  V30 19 C 0.273755 0.776413 -3.294548 0
M  V30 20 C 0.494121 -0.058844 -4.394689 0
M  V30 21 C -0.528396 -0.713215 -5.033258 0
M  V30 22 C -1.842342 -0.583832 -4.624719 0
M  V30 23 C -3.023199 -1.262180 -5.240491 0
M  V30 24 C -3.446794 -0.354359 -6.396340 0
M  V30 25 N -3.783291 0.964268 -5.959031 0
M  V30 26 C -4.992682 1.014258 -5.212775 0
M  V30 27 C -3.748070 1.944332 -7.010921 0
M  V30 28 C -2.097420 0.236208 -3.535950 0
M  V30 29 C -1.044720 0.876855 -2.920419 0
M  V30 30 C 2.280904 -0.554347 -1.567457 0
M  V30 31 C 3.617831 -0.310914 -1.194325 0
M  V30 32 C 4.572553 -1.302011 -1.189902 0
M  V30 33 C 4.203933 -2.580835 -1.564681 0
M  V30 34 C 2.881589 -2.839648 -1.937333 0
M  V30 35 C 1.935814 -1.840994 -1.938153 0
M  V30 36 H -2.563663 -1.533850 3.528272 0
M  V30 37 H -0.868623 -1.971076 3.347544 0
M  V30 38 H -1.843054 -2.645665 4.781578 0
M  V30 39 H -1.286996 0.282166 4.073780 0
M  V30 40 H -2.134814 -0.272550 5.578725 0
M  V30 41 H 0.830159 -0.930946 7.529280 0
M  V30 42 H -0.848713 -0.374558 7.631107 0
M  V30 43 H -0.473020 -2.044347 7.120867 0
M  V30 44 H 2.055406 -1.699946 3.196147 0
M  V30 45 H 2.107226 -1.271243 0.866358 0
M  V30 46 H 0.400699 2.073154 3.974688 0
M  V30 47 H -0.049064 3.710204 1.551245 0
M  V30 48 H 1.909629 2.248859 -2.923107 0
M  V30 49 H 1.484367 -0.219411 -4.792566 0
M  V30 50 H -0.353667 -1.351035 -5.889069 0
M  V30 51 H -2.698902 -2.252009 -5.621188 0
M  V30 52 H -3.800934 -1.378581 -4.492819 0
M  V30 53 H -4.360633 -0.834846 -6.861169 0
M  V30 54 H -2.642869 -0.326508 -7.158484 0
M  V30 55 H -4.978615 1.942102 -4.575926 0
M  V30 56 H -5.132202 0.170672 -4.512382 0
M  V30 57 H -5.910939 1.119356 -5.833010 0
M  V30 58 H -3.857772 1.479354 -8.033606 0
M  V30 59 H -4.485485 2.757214 -6.892294 0
M  V30 60 H -2.757235 2.473713 -7.051506 0
M  V30 61 H -3.095488 0.368975 -3.166899 0
M  V30 62 H -1.301537 1.481379 -2.088584 0
M  V30 63 H 4.112113 0.621580 -0.870982 0
M  V30 64 H 5.620741 -1.276944 -0.938420 0
M  V30 65 H 4.779832 -3.498352 -1.632378 0
M  V30 66 H 2.494764 -3.798257 -2.242975 0
M  V30 67 H 0.888604 -1.852347 -2.182253 0
M  V30 END ATOM
M  V30 BEGIN BOND
M  V30 1 1 1 2
M  V30 2 1 2 3
M  V30 3 1 3 4
M  V30 4 1 3 5
M  V30 5 2 5 6
M  V30 6 1 5 7
M  V30 7 2 7 8
M  V30 8 1 8 9
M  V30 9 2 9 10
M  V30 10 1 10 11
M  V30 11 2 11 12
M  V30 12 1 11 13
M  V30 13 1 13 14
M  V30 14 2 14 15
M  V30 15 1 14 16
M  V30 16 2 16 17
M  V30 17 1 17 18
M  V30 18 1 18 19
M  V30 19 2 19 20
M  V30 20 1 20 21
M  V30 21 2 21 22
M  V30 22 1 22 23
M  V30 23 1 23 24
M  V30 24 1 24 25
M  V30 25 1 25 26
M  V30 26 1 25 27
M  V30 27 1 22 28
M  V30 28 2 28 29
M  V30 29 1 17 30
M  V30 30 2 30 31
M  V30 31 1 31 32
M  V30 32 2 32 33
M  V30 33 1 33 34
M  V30 34 2 34 35
M  V30 35 1 12 7
M  V30 36 1 29 19
M  V30 37 1 35 30
M  V30 38 1 16 10
M  V30 39 1 1 36
M  V30 40 1 1 37
M  V30 41 1 1 38
M  V30 42 1 2 39
M  V30 43 1 2 40
M  V30 44 1 4 41
M  V30 45 1 4 42
M  V30 46 1 4 43
M  V30 47 1 8 44
M  V30 48 1 9 45
M  V30 49 1 12 46
M  V30 50 1 13 47
M  V30 51 1 18 48
M  V30 52 1 20 49
M  V30 53 1 21 50
M  V30 54 1 23 51
M  V30 55 1 23 52
M  V30 56 1 24 53
M  V30 57 1 24 54
M  V30 58 1 26 55
M  V30 59 1 26 56
M  V30 60 1 26 57
M  V30 61 1 27 58
M  V30 62 1 27 59
M  V30 63 1 27 60
M  V30 64 1 28 61
M  V30 65 1 29 62
M  V30 66 1 31 63
M  V30 67 1 32 64
M  V30 68 1 33 65
M  V30 69 1 34 66
M  V30 70 1 35 67
M  V30 END BOND
M  V30 END CTAB
M  END
>  <Dataset>  (997) 
ChEMBL_Kinases

>  <Ligand_Instance>  (997) 
nan

>  <PDB_ID>  (997) 
nan

>  <Standardized_SMILES>  (997) 
CCN(C)C(=O)c1ccc2c(c1)NC(=O)/C2=C(\Nc1ccc(CCN(C)C)cc1)c1ccccc1

>  <Name>  (997) 
nan

>  <Pocket>  (997) 
nan

>  <ATP_Site>  (997) 
nan

>  <Peripheral>  (997) 
nan

>  <Num_H_Atoms_ProtBoundConf>  (997) 
nan

>  <Num_Resolved_Atoms>  (997) 
nan

>  <Num_Not_Resolved_Atoms>  (997) 
nan

$$$$
CHEMBL1271578
     RDKit          3D

  0  0  0  0  0  0  0  0  0  0999 V3000
M  V30 BEGIN CTAB
M  V30 COUNTS 74 78 0 0 0
M  V30 BEGIN ATOM
M  V30 1 C 5.983308 3.313694 8.166721 0
M  V30 2 C 4.942640 2.349113 8.716201 0
M  V30 3 C 3.778927 2.358666 7.746874 0
M  V30 4 C 4.308845 1.907887 6.404366 0
M  V30 5 N 3.238008 1.887337 5.399494 0
M  V30 6 C 3.583312 1.483795 4.085060 0
M  V30 7 O 4.773688 1.185654 3.918085 0
M  V30 8 C 2.621396 1.416793 2.991071 0
M  V30 9 C 3.074043 1.002268 1.731161 0
M  V30 10 C 2.164826 0.937209 0.697420 0
M  V30 11 C 0.852140 1.265428 0.886763 0
M  V30 12 C 0.404673 1.674842 2.123544 0
M  V30 13 C 1.296105 1.748196 3.174154 0
M  V30 14 N -0.983859 1.982429 2.075126 0
M  V30 15 C -1.457613 1.763419 0.758043 0
M  V30 16 O -2.605232 1.909399 0.278813 0
M  V30 17 C -0.297968 1.311557 0.020873 0
M  V30 18 C -0.242497 0.919015 -1.225987 0
M  V30 19 N -1.416600 0.994466 -2.056707 0
M  V30 20 C -2.154428 -0.052717 -2.676601 0
M  V30 21 C -1.898893 -0.500083 -3.955023 0
M  V30 22 C -2.600135 -1.514537 -4.569368 0
M  V30 23 C -3.626066 -2.144858 -3.898602 0
M  V30 24 C -4.511783 -3.247789 -4.349332 0
M  V30 25 N -4.008683 -4.542885 -4.067168 0
M  V30 26 C -4.825472 -5.651506 -4.421337 0
M  V30 27 C -5.575424 -6.254308 -3.275946 0
M  V30 28 C -5.361381 -5.514055 -1.972647 0
M  V30 29 C -3.918758 -5.237876 -1.710884 0
M  V30 30 C -3.194676 -4.698379 -2.915400 0
M  V30 31 C -3.906691 -1.709553 -2.598042 0
M  V30 32 C -3.182740 -0.676843 -1.990272 0
M  V30 33 C 0.780501 0.272062 -2.005042 0
M  V30 34 C 1.236474 0.890150 -3.177678 0
M  V30 35 C 2.148712 0.416774 -4.090281 0
M  V30 36 C 2.666061 -0.824602 -3.791590 0
M  V30 37 C 2.299899 -1.535817 -2.669542 0
M  V30 38 C 1.382692 -0.982587 -1.817367 0
M  V30 39 H 6.589158 3.665275 9.026324 0
M  V30 40 H 5.460749 4.191006 7.708024 0
M  V30 41 H 6.577024 2.846935 7.379686 0
M  V30 42 H 5.408915 1.337246 8.717636 0
M  V30 43 H 4.627357 2.627690 9.739131 0
M  V30 44 H 2.924486 1.770384 8.082895 0
M  V30 45 H 3.441350 3.422018 7.623215 0
M  V30 46 H 5.083604 2.596448 6.014128 0
M  V30 47 H 4.759170 0.900978 6.518248 0
M  V30 48 H 2.259194 2.157384 5.634302 0
M  V30 49 H 4.134426 0.756949 1.661680 0
M  V30 50 H 2.654048 0.638962 -0.192908 0
M  V30 51 H 0.916887 2.069679 4.126324 0
M  V30 52 H -1.581940 2.316263 2.864087 0
M  V30 53 H -1.645007 2.018024 -2.127259 0
M  V30 54 H -1.122183 -0.064588 -4.542138 0
M  V30 55 H -2.439381 -1.895682 -5.557085 0
M  V30 56 H -5.541310 -3.088513 -3.969632 0
M  V30 57 H -4.608407 -3.170339 -5.466940 0
M  V30 58 H -5.555444 -5.299642 -5.175866 0
M  V30 59 H -4.213278 -6.427517 -4.965342 0
M  V30 60 H -6.647089 -6.262269 -3.490787 0
M  V30 61 H -5.224264 -7.314822 -3.163253 0
M  V30 62 H -5.719652 -6.184629 -1.145791 0
M  V30 63 H -5.973630 -4.607222 -1.900744 0
M  V30 64 H -3.853278 -4.442966 -0.917124 0
M  V30 65 H -3.415755 -6.119420 -1.244895 0
M  V30 66 H -2.605243 -3.793862 -2.689359 0
M  V30 67 H -2.423958 -5.485601 -3.170316 0
M  V30 68 H -4.705433 -2.147807 -1.979036 0
M  V30 69 H -3.439497 -0.377446 -0.981202 0
M  V30 70 H 0.811060 1.881466 -3.398437 0
M  V30 71 H 2.404272 1.009728 -4.954791 0
M  V30 72 H 3.395328 -1.255141 -4.478775 0
M  V30 73 H 2.703163 -2.507347 -2.432754 0
M  V30 74 H 1.033422 -1.478587 -0.898735 0
M  V30 END ATOM
M  V30 BEGIN BOND
M  V30 1 1 1 2
M  V30 2 1 2 3
M  V30 3 1 3 4
M  V30 4 1 4 5
M  V30 5 1 5 6
M  V30 6 2 6 7
M  V30 7 1 6 8
M  V30 8 2 8 9
M  V30 9 1 9 10
M  V30 10 2 10 11
M  V30 11 1 11 12
M  V30 12 2 12 13
M  V30 13 1 12 14
M  V30 14 1 14 15
M  V30 15 2 15 16
M  V30 16 1 15 17
M  V30 17 2 17 18
M  V30 18 1 18 19
M  V30 19 1 19 20
M  V30 20 2 20 21
M  V30 21 1 21 22
M  V30 22 2 22 23
M  V30 23 1 23 24
M  V30 24 1 24 25
M  V30 25 1 25 26
M  V30 26 1 26 27
M  V30 27 1 27 28
M  V30 28 1 28 29
M  V30 29 1 29 30
M  V30 30 1 23 31
M  V30 31 2 31 32
M  V30 32 1 18 33
M  V30 33 2 33 34
M  V30 34 1 34 35
M  V30 35 2 35 36
M  V30 36 1 36 37
M  V30 37 2 37 38
M  V30 38 1 13 8
M  V30 39 1 32 20
M  V30 40 1 38 33
M  V30 41 1 17 11
M  V30 42 1 30 25
M  V30 43 1 1 39
M  V30 44 1 1 40
M  V30 45 1 1 41
M  V30 46 1 2 42
M  V30 47 1 2 43
M  V30 48 1 3 44
M  V30 49 1 3 45
M  V30 50 1 4 46
M  V30 51 1 4 47
M  V30 52 1 5 48
M  V30 53 1 9 49
M  V30 54 1 10 50
M  V30 55 1 13 51
M  V30 56 1 14 52
M  V30 57 1 19 53
M  V30 58 1 21 54
M  V30 59 1 22 55
M  V30 60 1 24 56
M  V30 61 1 24 57
M  V30 62 1 26 58
M  V30 63 1 26 59
M  V30 64 1 27 60
M  V30 65 1 27 61
M  V30 66 1 28 62
M  V30 67 1 28 63
M  V30 68 1 29 64
M  V30 69 1 29 65
M  V30 70 1 30 66
M  V30 71 1 30 67
M  V30 72 1 31 68
M  V30 73 1 32 69
M  V30 74 1 34 70
M  V30 75 1 35 71
M  V30 76 1 36 72
M  V30 77 1 37 73
M  V30 78 1 38 74
M  V30 END BOND
M  V30 END CTAB
M  END
>  <Dataset>  (998) 
ChEMBL_Kinases

>  <Ligand_Instance>  (998) 
nan

>  <PDB_ID>  (998) 
nan

>  <Standardized_SMILES>  (998) 
CCCCNC(=O)c1ccc2c(c1)NC(=O)/C2=C(\Nc1ccc(CN2CCCCC2)cc1)c1ccccc1

>  <Name>  (998) 
nan

>  <Pocket>  (998) 
nan

>  <ATP_Site>  (998) 
nan

>  <Peripheral>  (998) 
nan

>  <Num_H_Atoms_ProtBoundConf>  (998) 
nan

>  <Num_Resolved_Atoms>  (998) 
nan

>  <Num_Not_Resolved_Atoms>  (998) 
nan

$$$$
CHEMBL1271577
     RDKit          3D

  0  0  0  0  0  0  0  0  0  0999 V3000
M  V30 BEGIN CTAB
M  V30 COUNTS 64 67 0 0 0
M  V30 BEGIN ATOM
M  V30 1 C 9.324880 1.550597 2.639675 0
M  V30 2 C 8.506168 1.759338 1.377337 0
M  V30 3 N 7.108813 1.498453 1.700623 0
M  V30 4 C 6.138373 1.626525 0.674387 0
M  V30 5 O 6.571861 1.960707 -0.447953 0
M  V30 6 C 4.710882 1.392412 0.869202 0
M  V30 7 C 3.849747 1.553376 -0.214638 0
M  V30 8 C 2.494988 1.339724 -0.065699 0
M  V30 9 C 2.033577 0.970462 1.167469 0
M  V30 10 C 2.863856 0.803949 2.251018 0
M  V30 11 C 4.218955 1.016928 2.104582 0
M  V30 12 N 2.118499 0.396428 3.393116 0
M  V30 13 C 0.743627 0.292458 3.046677 0
M  V30 14 O -0.232963 -0.035272 3.758628 0
M  V30 15 C 0.707837 0.658436 1.646653 0
M  V30 16 C -0.384907 0.768813 0.930308 0
M  V30 17 N -1.698695 0.453819 1.382763 0
M  V30 18 C -2.683433 -0.536414 1.109628 0
M  V30 19 C -3.677959 -0.387466 0.142326 0
M  V30 20 C -4.600956 -1.390171 -0.072044 0
M  V30 21 C -4.552685 -2.553831 0.667397 0
M  V30 22 C -5.510056 -3.700619 0.502896 0
M  V30 23 C -5.021650 -4.710951 -0.503717 0
M  V30 24 N -5.892517 -5.811175 -0.691065 0
M  V30 25 C -7.143087 -5.572898 -1.314969 0
M  V30 26 C -5.254944 -6.953666 -1.300753 0
M  V30 27 C -3.548599 -2.685974 1.633116 0
M  V30 28 C -2.613819 -1.697116 1.866303 0
M  V30 29 C -0.572973 1.340849 -0.387619 0
M  V30 30 C -1.054572 0.775277 -1.549316 0
M  V30 31 C -1.250160 1.497374 -2.693128 0
M  V30 32 C -0.964594 2.863251 -2.732213 0
M  V30 33 C -0.485936 3.464542 -1.605784 0
M  V30 34 C -0.295161 2.720098 -0.461579 0
M  V30 35 H 9.595703 2.491089 3.142245 0
M  V30 36 H 10.272004 1.014278 2.412580 0
M  V30 37 H 8.745169 0.951658 3.394001 0
M  V30 38 H 8.637159 2.823422 1.098256 0
M  V30 39 H 8.892135 1.113942 0.566748 0
M  V30 40 H 6.816301 1.222167 2.661043 0
M  V30 41 H 4.314126 1.854860 -1.168713 0
M  V30 42 H 1.975495 1.470873 -0.973867 0
M  V30 43 H 4.844929 0.880185 2.966277 0
M  V30 44 H 2.490710 0.193248 4.361223 0
M  V30 45 H -1.907737 1.189697 2.091582 0
M  V30 46 H -3.711504 0.520611 -0.430260 0
M  V30 47 H -5.378101 -1.293825 -0.816031 0
M  V30 48 H -6.482088 -3.287427 0.239736 0
M  V30 49 H -5.601059 -4.187555 1.495683 0
M  V30 50 H -4.873078 -4.200326 -1.494428 0
M  V30 51 H -4.016899 -5.085508 -0.223917 0
M  V30 52 H -7.365692 -6.401100 -2.016352 0
M  V30 53 H -8.006982 -5.545837 -0.620930 0
M  V30 54 H -7.133104 -4.659800 -1.980864 0
M  V30 55 H -4.441282 -7.304769 -0.632973 0
M  V30 56 H -6.000129 -7.771248 -1.452135 0
M  V30 57 H -4.807298 -6.612410 -2.256886 0
M  V30 58 H -3.522703 -3.609353 2.210724 0
M  V30 59 H -1.887063 -1.913319 2.637489 0
M  V30 60 H -1.251875 -0.282096 -1.440167 0
M  V30 61 H -1.635020 0.961528 -3.561743 0
M  V30 62 H -1.132784 3.395223 -3.654023 0
M  V30 63 H -0.265059 4.522227 -1.637327 0
M  V30 64 H 0.093798 3.295920 0.393117 0
M  V30 END ATOM
M  V30 BEGIN BOND
M  V30 1 1 1 2
M  V30 2 1 2 3
M  V30 3 1 3 4
M  V30 4 2 4 5
M  V30 5 1 4 6
M  V30 6 2 6 7
M  V30 7 1 7 8
M  V30 8 2 8 9
M  V30 9 1 9 10
M  V30 10 2 10 11
M  V30 11 1 10 12
M  V30 12 1 12 13
M  V30 13 2 13 14
M  V30 14 1 13 15
M  V30 15 2 15 16
M  V30 16 1 16 17
M  V30 17 1 17 18
M  V30 18 2 18 19
M  V30 19 1 19 20
M  V30 20 2 20 21
M  V30 21 1 21 22
M  V30 22 1 22 23
M  V30 23 1 23 24
M  V30 24 1 24 25
M  V30 25 1 24 26
M  V30 26 1 21 27
M  V30 27 2 27 28
M  V30 28 1 16 29
M  V30 29 2 29 30
M  V30 30 1 30 31
M  V30 31 2 31 32
M  V30 32 1 32 33
M  V30 33 2 33 34
M  V30 34 1 11 6
M  V30 35 1 28 18
M  V30 36 1 34 29
M  V30 37 1 15 9
M  V30 38 1 1 35
M  V30 39 1 1 36
M  V30 40 1 1 37
M  V30 41 1 2 38
M  V30 42 1 2 39
M  V30 43 1 3 40
M  V30 44 1 7 41
M  V30 45 1 8 42
M  V30 46 1 11 43
M  V30 47 1 12 44
M  V30 48 1 17 45
M  V30 49 1 19 46
M  V30 50 1 20 47
M  V30 51 1 22 48
M  V30 52 1 22 49
M  V30 53 1 23 50
M  V30 54 1 23 51
M  V30 55 1 25 52
M  V30 56 1 25 53
M  V30 57 1 25 54
M  V30 58 1 26 55
M  V30 59 1 26 56
M  V30 60 1 26 57
M  V30 61 1 27 58
M  V30 62 1 28 59
M  V30 63 1 30 60
M  V30 64 1 31 61
M  V30 65 1 32 62
M  V30 66 1 33 63
M  V30 67 1 34 64
M  V30 END BOND
M  V30 END CTAB
M  END
>  <Dataset>  (999) 
ChEMBL_Kinases

>  <Ligand_Instance>  (999) 
nan

>  <PDB_ID>  (999) 
nan

>  <Standardized_SMILES>  (999) 
CCNC(=O)c1ccc2c(c1)NC(=O)/C2=C(\Nc1ccc(CCN(C)C)cc1)c1ccccc1

>  <Name>  (999) 
nan

>  <Pocket>  (999) 
nan

>  <ATP_Site>  (999) 
nan

>  <Peripheral>  (999) 
nan

>  <Num_H_Atoms_ProtBoundConf>  (999) 
nan

>  <Num_Resolved_Atoms>  (999) 
nan

>  <Num_Not_Resolved_Atoms>  (999) 
nan

$$$$
