CHEMBL1822052
     RDKit          3D

  0  0  0  0  0  0  0  0  0  0999 V3000
M  V30 BEGIN CTAB
M  V30 COUNTS 40 43 0 0 0
M  V30 BEGIN ATOM
M  V30 1 N 2.643349 -7.533401 0.004415 0
M  V30 2 C 2.285766 -6.141666 -0.250284 0
M  V30 3 N 2.579562 -5.175822 0.249167 0
M  V30 4 C 2.273232 -3.916382 0.039879 0
M  V30 5 C 2.697210 -2.789978 0.724705 0
M  V30 6 C 2.247059 -1.552916 0.333560 0
M  V30 7 C 1.381494 -1.317061 -0.714376 0
M  V30 8 C 0.885431 -0.016813 -1.152600 0
M  V30 9 C 0.593673 0.184775 -2.486619 0
M  V30 10 N 0.140057 1.401869 -2.835380 0
M  V30 11 C -0.033024 2.391869 -1.964403 0
M  V30 12 Cl -0.634628 3.963114 -2.509119 0
M  V30 13 C 0.231956 2.285437 -0.606250 0
M  V30 14 N 0.075292 3.289761 0.357249 0
M  V30 15 S 0.129723 3.176638 2.054339 0
M  V30 16 O 1.478646 2.692251 2.538753 0
M  V30 17 O -0.031010 4.554166 2.658088 0
M  V30 18 C -1.091536 2.149838 2.747083 0
M  V30 19 C -1.015812 0.811519 3.066349 0
M  V30 20 C -2.071446 0.118247 3.609797 0
M  V30 21 C -3.266861 0.767478 3.855254 0
M  V30 22 F -4.280750 0.030974 4.395515 0
M  V30 23 C -3.405267 2.094662 3.560646 0
M  V30 24 C -2.327870 2.749705 3.019399 0
M  V30 25 C 0.703548 1.015462 -0.252704 0
M  V30 26 C 0.957022 -2.453166 -1.401315 0
M  V30 27 C 1.437397 -3.705870 -0.974557 0
M  V30 28 S 1.138789 -5.348388 -1.573102 0
M  V30 29 H 2.297306 -7.812392 0.959768 0
M  V30 30 H 3.155394 -8.156201 -0.643981 0
M  V30 31 H 3.372373 -2.757282 1.572042 0
M  V30 32 H 2.551633 -0.627712 0.841926 0
M  V30 33 H 0.738655 -0.623017 -3.175121 0
M  V30 34 H -0.099622 4.236209 -0.095710 0
M  V30 35 H -0.058977 0.358550 2.856839 0
M  V30 36 H -1.894211 -0.944317 3.822534 0
M  V30 37 H -4.340196 2.615338 3.749716 0
M  V30 38 H -2.485761 3.813235 2.799945 0
M  V30 39 H 0.951320 0.789680 0.754404 0
M  V30 40 H 0.294561 -2.466838 -2.230022 0
M  V30 END ATOM
M  V30 BEGIN BOND
M  V30 1 1 1 2
M  V30 2 2 2 3
M  V30 3 1 3 4
M  V30 4 2 4 5
M  V30 5 1 5 6
M  V30 6 2 6 7
M  V30 7 1 7 8
M  V30 8 2 8 9
M  V30 9 1 9 10
M  V30 10 2 10 11
M  V30 11 1 11 12
M  V30 12 1 11 13
M  V30 13 1 13 14
M  V30 14 1 14 15
M  V30 15 2 15 16
M  V30 16 2 15 17
M  V30 17 1 15 18
M  V30 18 2 18 19
M  V30 19 1 19 20
M  V30 20 2 20 21
M  V30 21 1 21 22
M  V30 22 1 21 23
M  V30 23 2 23 24
M  V30 24 2 13 25
M  V30 25 1 7 26
M  V30 26 2 26 27
M  V30 27 1 27 28
M  V30 28 1 28 2
M  V30 29 1 27 4
M  V30 30 1 25 8
M  V30 31 1 24 18
M  V30 32 1 1 29
M  V30 33 1 1 30
M  V30 34 1 5 31
M  V30 35 1 6 32
M  V30 36 1 9 33
M  V30 37 1 14 34
M  V30 38 1 19 35
M  V30 39 1 20 36
M  V30 40 1 23 37
M  V30 41 1 24 38
M  V30 42 1 25 39
M  V30 43 1 26 40
M  V30 END BOND
M  V30 END CTAB
M  END
>  <Dataset>  (1) 
ChEMBL_Kinases

>  <Ligand_Instance>  (1) 
nan

>  <PDB_ID>  (1) 
nan

>  <Standardized_SMILES>  (1) 
Nc1nc2ccc(-c3cnc(Cl)c(NS(=O)(=O)c4ccc(F)cc4)c3)cc2s1

>  <Name>  (1) 
nan

>  <Pocket>  (1) 
nan

>  <ATP_Site>  (1) 
nan

>  <Peripheral>  (1) 
nan

>  <Num_H_Atoms_ProtBoundConf>  (1) 
nan

>  <Num_Resolved_Atoms>  (1) 
nan

>  <Num_Not_Resolved_Atoms>  (1) 
nan

$$$$
CHEMBL182173
     RDKit          3D

  0  0  0  0  0  0  0  0  0  0999 V3000
M  V30 BEGIN CTAB
M  V30 COUNTS 47 49 0 0 0
M  V30 BEGIN ATOM
M  V30 1 C -0.440864 -5.328682 -1.519373 0
M  V30 2 C 0.154708 -4.581402 -0.363630 0
M  V30 3 O 0.001600 -3.183603 -0.510312 0
M  V30 4 C 0.531952 -2.480343 -1.582954 0
M  V30 5 C 1.264177 -2.951839 -2.652588 0
M  V30 6 C 1.704420 -2.078969 -3.625450 0
M  V30 7 C 1.404410 -0.737656 -3.514594 0
M  V30 8 C 0.674489 -0.233770 -2.457965 0
M  V30 9 O 0.428988 1.127920 -2.442541 0
M  V30 10 C 0.238329 -1.113293 -1.489928 0
M  V30 11 C -0.525437 -0.493833 -0.410432 0
M  V30 12 C 0.128923 -0.027560 0.710828 0
M  V30 13 C -0.449343 0.589799 1.832561 0
M  V30 14 C 0.364811 1.036724 2.961403 0
M  V30 15 C 0.821053 2.479338 2.886767 0
M  V30 16 C 1.582235 2.739863 4.171486 0
M  V30 17 C 2.114333 1.447271 4.785860 0
M  V30 18 N 1.034403 0.565779 5.188691 0
M  V30 19 C -0.129528 0.728182 4.326001 0
M  V30 20 C -1.819404 0.697323 1.708718 0
M  V30 21 C -2.554205 1.301853 2.752864 0
M  V30 22 N -3.164260 1.796935 3.586311 0
M  V30 23 C -2.527707 0.244312 0.601317 0
M  V30 24 N -3.941820 0.383357 0.531517 0
M  V30 25 N -1.878577 -0.334308 -0.422918 0
M  V30 26 H -0.858132 -4.642877 -2.279853 0
M  V30 27 H 0.307994 -6.026539 -1.944990 0
M  V30 28 H -1.291117 -5.976690 -1.189844 0
M  V30 29 H -0.299589 -4.929460 0.574444 0
M  V30 30 H 1.245611 -4.766641 -0.291946 0
M  V30 31 H 1.433211 -4.019464 -2.626003 0
M  V30 32 H 2.277771 -2.518032 -4.443106 0
M  V30 33 H 1.779751 -0.096637 -4.314615 0
M  V30 34 H 1.093598 1.770646 -2.835064 0
M  V30 35 H 1.207485 -0.151852 0.726602 0
M  V30 36 H 1.340735 0.458898 2.865651 0
M  V30 37 H -0.046213 3.181766 2.922980 0
M  V30 38 H 1.435045 2.648344 1.978401 0
M  V30 39 H 1.051667 3.349433 4.900371 0
M  V30 40 H 2.510534 3.302330 3.864115 0
M  V30 41 H 2.621155 1.763104 5.724494 0
M  V30 42 H 2.874643 0.979775 4.154349 0
M  V30 43 H 1.400070 -0.392521 5.202041 0
M  V30 44 H -0.754390 -0.178264 4.366246 0
M  V30 45 H -0.704671 1.551412 4.798819 0
M  V30 46 H -4.823370 -0.178795 0.697545 0
M  V30 47 H -4.229389 1.334394 0.219318 0
M  V30 END ATOM
M  V30 BEGIN BOND
M  V30 1 1 1 2
M  V30 2 1 2 3
M  V30 3 1 3 4
M  V30 4 2 4 5
M  V30 5 1 5 6
M  V30 6 2 6 7
M  V30 7 1 7 8
M  V30 8 1 8 9
M  V30 9 2 8 10
M  V30 10 1 10 11
M  V30 11 2 11 12
M  V30 12 1 12 13
M  V30 13 1 13 14
M  V30 14 1 14 15
M  V30 15 1 15 16
M  V30 16 1 16 17
M  V30 17 1 17 18
M  V30 18 1 18 19
M  V30 19 2 13 20
M  V30 20 1 20 21
M  V30 21 3 21 22
M  V30 22 1 20 23
M  V30 23 1 23 24
M  V30 24 2 23 25
M  V30 25 1 10 4
M  V30 26 1 25 11
M  V30 27 1 19 14
M  V30 28 1 1 26
M  V30 29 1 1 27
M  V30 30 1 1 28
M  V30 31 1 2 29
M  V30 32 1 2 30
M  V30 33 1 5 31
M  V30 34 1 6 32
M  V30 35 1 7 33
M  V30 36 1 9 34
M  V30 37 1 12 35
M  V30 38 1 14 36
M  V30 39 1 15 37
M  V30 40 1 15 38
M  V30 41 1 16 39
M  V30 42 1 16 40
M  V30 43 1 17 41
M  V30 44 1 17 42
M  V30 45 1 18 43
M  V30 46 1 19 44
M  V30 47 1 19 45
M  V30 48 1 24 46
M  V30 49 1 24 47
M  V30 END BOND
M  V30 END CTAB
M  END
>  <Dataset>  (2) 
ChEMBL_Kinases

>  <Ligand_Instance>  (2) 
nan

>  <PDB_ID>  (2) 
nan

>  <Standardized_SMILES>  (2) 
CCOc1cccc(O)c1-c1cc(C2CCCNC2)c(C#N)c(N)n1

>  <Name>  (2) 
nan

>  <Pocket>  (2) 
nan

>  <ATP_Site>  (2) 
nan

>  <Peripheral>  (2) 
nan

>  <Num_H_Atoms_ProtBoundConf>  (2) 
nan

>  <Num_Resolved_Atoms>  (2) 
nan

>  <Num_Not_Resolved_Atoms>  (2) 
nan

$$$$
CHEMBL181358
     RDKit          3D

  0  0  0  0  0  0  0  0  0  0999 V3000
M  V30 BEGIN CTAB
M  V30 COUNTS 40 42 0 0 0
M  V30 BEGIN ATOM
M  V30 1 N -0.338509 -4.512635 2.366721 0
M  V30 2 C -0.277431 -3.390303 2.228953 0
M  V30 3 C -0.187710 -1.991524 2.038804 0
M  V30 4 C 0.147078 -1.466496 0.814611 0
M  V30 5 C 0.408747 -2.392302 -0.278678 0
M  V30 6 C -0.653640 -2.864084 -1.144940 0
M  V30 7 C -0.041749 -3.264059 -2.479015 0
M  V30 8 N 1.296206 -3.766212 -2.371667 0
M  V30 9 C 2.239561 -2.777637 -1.887656 0
M  V30 10 C 1.478452 -1.724363 -1.146587 0
M  V30 11 C 0.213230 -0.076227 0.719388 0
M  V30 12 C -0.047080 0.730094 1.809887 0
M  V30 13 C 0.029005 2.188056 1.699331 0
M  V30 14 C 0.345658 2.868744 0.544897 0
M  V30 15 C 0.418414 4.243088 0.452510 0
M  V30 16 C 0.148605 4.929865 1.616792 0
M  V30 17 C -0.177087 4.356967 2.823201 0
M  V30 18 C -0.227028 2.956576 2.821058 0
M  V30 19 O -0.555963 2.373657 4.039284 0
M  V30 20 N -0.368639 0.163839 2.977275 0
M  V30 21 C -0.445710 -1.169559 3.120592 0
M  V30 22 N -0.800807 -1.668029 4.423374 0
M  V30 23 H 0.942641 -3.287324 0.160768 0
M  V30 24 H -1.037283 -3.846060 -0.750281 0
M  V30 25 H -1.471693 -2.172901 -1.400111 0
M  V30 26 H -0.012550 -2.366347 -3.153740 0
M  V30 27 H -0.647784 -4.057075 -2.974849 0
M  V30 28 H 1.368316 -4.663222 -1.857223 0
M  V30 29 H 3.001250 -3.255008 -1.221759 0
M  V30 30 H 2.758779 -2.360721 -2.771873 0
M  V30 31 H 2.124418 -1.061303 -0.536686 0
M  V30 32 H 0.929472 -1.052938 -1.836331 0
M  V30 33 H 0.479491 0.306323 -0.255901 0
M  V30 34 H 0.554056 2.316781 -0.358755 0
M  V30 35 H 0.669386 4.748339 -0.469520 0
M  V30 36 H 0.189019 6.030186 1.615032 0
M  V30 37 H -0.382268 4.925660 3.719010 0
M  V30 38 H 0.157483 1.952485 4.620847 0
M  V30 39 H -0.228103 -2.110807 5.196318 0
M  V30 40 H -1.794753 -1.641970 4.792748 0
M  V30 END ATOM
M  V30 BEGIN BOND
M  V30 1 3 1 2
M  V30 2 1 2 3
M  V30 3 2 3 4
M  V30 4 1 4 5
M  V30 5 1 5 6
M  V30 6 1 6 7
M  V30 7 1 7 8
M  V30 8 1 8 9
M  V30 9 1 9 10
M  V30 10 1 4 11
M  V30 11 2 11 12
M  V30 12 1 12 13
M  V30 13 2 13 14
M  V30 14 1 14 15
M  V30 15 2 15 16
M  V30 16 1 16 17
M  V30 17 2 17 18
M  V30 18 1 18 19
M  V30 19 1 12 20
M  V30 20 2 20 21
M  V30 21 1 21 22
M  V30 22 1 21 3
M  V30 23 1 10 5
M  V30 24 1 18 13
M  V30 25 1 5 23
M  V30 26 1 6 24
M  V30 27 1 6 25
M  V30 28 1 7 26
M  V30 29 1 7 27
M  V30 30 1 8 28
M  V30 31 1 9 29
M  V30 32 1 9 30
M  V30 33 1 10 31
M  V30 34 1 10 32
M  V30 35 1 11 33
M  V30 36 1 14 34
M  V30 37 1 15 35
M  V30 38 1 16 36
M  V30 39 1 17 37
M  V30 40 1 19 38
M  V30 41 1 22 39
M  V30 42 1 22 40
M  V30 END BOND
M  V30 END CTAB
M  END
>  <Dataset>  (3) 
ChEMBL_Kinases

>  <Ligand_Instance>  (3) 
nan

>  <PDB_ID>  (3) 
nan

>  <Standardized_SMILES>  (3) 
N#Cc1c(C2CCNCC2)cc(-c2ccccc2O)nc1N

>  <Name>  (3) 
nan

>  <Pocket>  (3) 
nan

>  <ATP_Site>  (3) 
nan

>  <Peripheral>  (3) 
nan

>  <Num_H_Atoms_ProtBoundConf>  (3) 
nan

>  <Num_Resolved_Atoms>  (3) 
nan

>  <Num_Not_Resolved_Atoms>  (3) 
nan

$$$$
CHEMBL181361
     RDKit          3D

  0  0  0  0  0  0  0  0  0  0999 V3000
M  V30 BEGIN CTAB
M  V30 COUNTS 33 36 0 0 0
M  V30 BEGIN ATOM
M  V30 1 N -0.907267 -1.964255 5.968667 0
M  V30 2 C -0.632444 -1.560771 4.624190 0
M  V30 3 N 0.213957 -1.764410 3.832226 0
M  V30 4 C 0.271053 -1.271401 2.605560 0
M  V30 5 C 1.422966 -1.649168 1.756822 0
M  V30 6 C 1.053255 -2.367840 0.639564 0
M  V30 7 C 1.931379 -2.839196 -0.312532 0
M  V30 8 C 3.290148 -2.565055 -0.124330 0
M  V30 9 C 3.589626 -1.835761 1.024243 0
M  V30 10 N 2.718361 -1.375464 1.956529 0
M  V30 11 C -0.769522 -0.427804 2.205591 0
M  V30 12 C -0.811913 0.180206 0.862989 0
M  V30 13 C 0.254284 1.031482 0.616464 0
M  V30 14 C 0.304816 1.650791 -0.615910 0
M  V30 15 C -0.706760 1.383423 -1.521380 0
M  V30 16 N -0.671698 1.983301 -2.735841 0
M  V30 17 C -1.629923 1.767835 -3.673995 0
M  V30 18 C -2.698888 0.904568 -3.406681 0
M  V30 19 C -2.767363 0.275247 -2.178308 0
M  V30 20 C -1.764011 0.534529 -1.266953 0
M  V30 21 N -1.775673 -0.048948 -0.053688 0
M  V30 22 S -1.814412 -0.423685 3.755795 0
M  V30 23 H -0.965737 -1.246218 6.744355 0
M  V30 24 H -1.066083 -2.934856 6.297335 0
M  V30 25 H 0.015410 -2.638053 0.395564 0
M  V30 26 H 1.656183 -3.398860 -1.184555 0
M  V30 27 H 4.086403 -2.865568 -0.777527 0
M  V30 28 H 4.642655 -1.601360 1.205609 0
M  V30 29 H 1.042067 1.244882 1.310999 0
M  V30 30 H 1.099819 2.314361 -0.860138 0
M  V30 31 H -1.632061 2.229620 -4.651448 0
M  V30 32 H -3.483343 0.707369 -4.130334 0
M  V30 33 H -3.554305 -0.411012 -1.873779 0
M  V30 END ATOM
M  V30 BEGIN BOND
M  V30 1 1 1 2
M  V30 2 2 2 3
M  V30 3 1 3 4
M  V30 4 1 4 5
M  V30 5 2 5 6
M  V30 6 1 6 7
M  V30 7 2 7 8
M  V30 8 1 8 9
M  V30 9 2 9 10
M  V30 10 2 4 11
M  V30 11 1 11 12
M  V30 12 2 12 13
M  V30 13 1 13 14
M  V30 14 2 14 15
M  V30 15 1 15 16
M  V30 16 2 16 17
M  V30 17 1 17 18
M  V30 18 2 18 19
M  V30 19 1 19 20
M  V30 20 2 20 21
M  V30 21 1 11 22
M  V30 22 1 22 2
M  V30 23 1 10 5
M  V30 24 1 21 12
M  V30 25 1 20 15
M  V30 26 1 1 23
M  V30 27 1 1 24
M  V30 28 1 6 25
M  V30 29 1 7 26
M  V30 30 1 8 27
M  V30 31 1 9 28
M  V30 32 1 13 29
M  V30 33 1 14 30
M  V30 34 1 17 31
M  V30 35 1 18 32
M  V30 36 1 19 33
M  V30 END BOND
M  V30 END CTAB
M  END
>  <Dataset>  (4) 
ChEMBL_Kinases

>  <Ligand_Instance>  (4) 
nan

>  <PDB_ID>  (4) 
nan

>  <Standardized_SMILES>  (4) 
Nc1nc(-c2ccccn2)c(-c2ccc3ncccc3n2)s1

>  <Name>  (4) 
GW693481X

>  <Pocket>  (4) 
nan

>  <ATP_Site>  (4) 
nan

>  <Peripheral>  (4) 
nan

>  <Num_H_Atoms_ProtBoundConf>  (4) 
nan

>  <Num_Resolved_Atoms>  (4) 
nan

>  <Num_Not_Resolved_Atoms>  (4) 
nan

$$$$
CHEMBL1814047
     RDKit          3D

  0  0  0  0  0  0  0  0  0  0999 V3000
M  V30 BEGIN CTAB
M  V30 COUNTS 38 40 0 0 0
M  V30 BEGIN ATOM
M  V30 1 O -1.418824 -2.088984 2.804115 0
M  V30 2 C -1.058340 -2.799042 1.831084 0
M  V30 3 N -0.098283 -2.287717 0.947967 0
M  V30 4 C 0.568718 -1.040126 0.968937 0
M  V30 5 C 0.434489 -0.016533 1.870841 0
M  V30 6 C 1.136163 1.169989 1.803467 0
M  V30 7 C 2.054727 1.389030 0.766741 0
M  V30 8 O 2.658988 2.626091 0.861925 0
M  V30 9 C 2.600082 3.628187 -0.085109 0
M  V30 10 C 3.421567 4.020429 -1.114642 0
M  V30 11 C 3.081387 5.085785 -1.908443 0
M  V30 12 C 1.915749 5.819816 -1.729517 0
M  V30 13 C 1.082658 5.436238 -0.698906 0
M  V30 14 C 1.415304 4.350607 0.120594 0
M  V30 15 C 2.187993 0.363330 -0.135279 0
M  V30 16 Cl 3.328247 0.637212 -1.416028 0
M  V30 17 C 1.475757 -0.804908 -0.041245 0
M  V30 18 C -1.689587 -4.103392 1.723294 0
M  V30 19 C -1.424652 -5.019717 0.727739 0
M  V30 20 C -2.006945 -6.262309 0.600433 0
M  V30 21 Cl -1.610671 -7.356991 -0.692500 0
M  V30 22 C -2.939946 -6.641547 1.542370 0
M  V30 23 C -3.252014 -5.772014 2.565854 0
M  V30 24 Cl -4.435664 -6.231765 3.775894 0
M  V30 25 C -2.628670 -4.544397 2.629215 0
M  V30 26 O -2.988947 -3.715747 3.686211 0
M  V30 27 H 0.112297 -2.970791 0.188823 0
M  V30 28 H -0.263777 -0.158199 2.676583 0
M  V30 29 H 0.931333 1.898794 2.587471 0
M  V30 30 H 4.289509 3.414621 -1.176542 0
M  V30 31 H 3.815315 5.299966 -2.693355 0
M  V30 32 H 1.738328 6.642438 -2.408928 0
M  V30 33 H 0.197903 6.037686 -0.606897 0
M  V30 34 H 0.644234 4.205091 0.866290 0
M  V30 35 H 1.673487 -1.538740 -0.819577 0
M  V30 36 H -0.705673 -4.792483 -0.044344 0
M  V30 37 H -3.457232 -7.590963 1.539118 0
M  V30 38 H -3.310290 -4.110078 4.568528 0
M  V30 END ATOM
M  V30 BEGIN BOND
M  V30 1 2 1 2
M  V30 2 1 2 3
M  V30 3 1 3 4
M  V30 4 2 4 5
M  V30 5 1 5 6
M  V30 6 2 6 7
M  V30 7 1 7 8
M  V30 8 1 8 9
M  V30 9 2 9 10
M  V30 10 1 10 11
M  V30 11 2 11 12
M  V30 12 1 12 13
M  V30 13 2 13 14
M  V30 14 1 7 15
M  V30 15 1 15 16
M  V30 16 2 15 17
M  V30 17 1 2 18
M  V30 18 2 18 19
M  V30 19 1 19 20
M  V30 20 1 20 21
M  V30 21 2 20 22
M  V30 22 1 22 23
M  V30 23 1 23 24
M  V30 24 2 23 25
M  V30 25 1 25 26
M  V30 26 1 17 4
M  V30 27 1 25 18
M  V30 28 1 14 9
M  V30 29 1 3 27
M  V30 30 1 5 28
M  V30 31 1 6 29
M  V30 32 1 10 30
M  V30 33 1 11 31
M  V30 34 1 12 32
M  V30 35 1 13 33
M  V30 36 1 14 34
M  V30 37 1 17 35
M  V30 38 1 19 36
M  V30 39 1 22 37
M  V30 40 1 26 38
M  V30 END BOND
M  V30 END CTAB
M  END
>  <Dataset>  (5) 
ChEMBL_Kinases

>  <Ligand_Instance>  (5) 
nan

>  <PDB_ID>  (5) 
nan

>  <Standardized_SMILES>  (5) 
O=C(Nc1ccc(Oc2ccccc2)c(Cl)c1)c1cc(Cl)cc(Cl)c1O

>  <Name>  (5) 
nan

>  <Pocket>  (5) 
nan

>  <ATP_Site>  (5) 
nan

>  <Peripheral>  (5) 
nan

>  <Num_H_Atoms_ProtBoundConf>  (5) 
nan

>  <Num_Resolved_Atoms>  (5) 
nan

>  <Num_Not_Resolved_Atoms>  (5) 
nan

$$$$
CHEMBL181434
     RDKit          3D

  0  0  0  0  0  0  0  0  0  0999 V3000
M  V30 BEGIN CTAB
M  V30 COUNTS 53 55 0 0 0
M  V30 BEGIN ATOM
M  V30 1 C 2.256191 -3.650259 4.758806 0
M  V30 2 C 1.776861 -3.009175 3.459159 0
M  V30 3 C 0.407731 -2.426534 3.693140 0
M  V30 4 C 2.739067 -1.907442 3.030369 0
M  V30 5 O 2.311961 -1.306389 1.834235 0
M  V30 6 C 2.961128 -0.282970 1.188727 0
M  V30 7 C 4.132232 0.222804 1.729168 0
M  V30 8 C 4.772009 1.256496 1.061118 0
M  V30 9 C 4.243740 1.760638 -0.114055 0
M  V30 10 C 3.066892 1.242387 -0.644430 0
M  V30 11 O 2.620897 1.814017 -1.822287 0
M  V30 12 C 2.415128 0.203191 0.018523 0
M  V30 13 C 1.185558 -0.298225 -0.586446 0
M  V30 14 C -0.024731 0.252689 -0.253533 0
M  V30 15 C -1.272086 -0.136611 -0.761217 0
M  V30 16 C -2.548912 0.505168 -0.365386 0
M  V30 17 C -3.266309 -0.240100 0.714096 0
M  V30 18 C -4.729281 -0.008320 0.807321 0
M  V30 19 N -5.242680 0.968003 -0.121548 0
M  V30 20 C -4.798820 0.725703 -1.477269 0
M  V30 21 C -3.330927 1.029191 -1.501818 0
M  V30 22 C -1.161168 -1.171506 -1.666394 0
M  V30 23 C -2.324201 -1.703875 -2.278408 0
M  V30 24 N -3.254953 -2.144840 -2.755158 0
M  V30 25 C 0.059333 -1.720980 -1.996897 0
M  V30 26 N 0.165121 -2.790892 -2.934289 0
M  V30 27 N 1.223574 -1.303824 -1.475429 0
M  V30 28 H 3.351502 -3.600458 4.856453 0
M  V30 29 H 1.810389 -3.125063 5.618344 0
M  V30 30 H 1.934356 -4.713318 4.831833 0
M  V30 31 H 1.701123 -3.810008 2.705605 0
M  V30 32 H -0.389134 -3.150493 3.401208 0
M  V30 33 H 0.348359 -2.161421 4.780852 0
M  V30 34 H 0.298014 -1.446342 3.146946 0
M  V30 35 H 3.775676 -2.282790 2.971960 0
M  V30 36 H 2.746384 -1.179574 3.888984 0
M  V30 37 H 4.525469 -0.198077 2.661958 0
M  V30 38 H 5.677411 1.595452 1.545151 0
M  V30 39 H 4.793194 2.573727 -0.592807 0
M  V30 40 H 1.629943 1.781228 -2.038485 0
M  V30 41 H -0.003108 1.068629 0.474630 0
M  V30 42 H -2.196279 1.446999 0.176467 0
M  V30 43 H -2.842161 -0.056441 1.726169 0
M  V30 44 H -3.087727 -1.323982 0.529935 0
M  V30 45 H -5.063949 0.321206 1.815655 0
M  V30 46 H -5.313356 -0.949308 0.619563 0
M  V30 47 H -6.296853 0.830901 -0.145493 0
M  V30 48 H -5.325340 1.461892 -2.119618 0
M  V30 49 H -5.094594 -0.250446 -1.863009 0
M  V30 50 H -2.921647 0.647409 -2.460594 0
M  V30 51 H -3.264315 2.155269 -1.637756 0
M  V30 52 H 0.215229 -2.856562 -3.994244 0
M  V30 53 H 0.194122 -3.670758 -2.372201 0
M  V30 END ATOM
M  V30 BEGIN BOND
M  V30 1 1 1 2
M  V30 2 1 2 3
M  V30 3 1 2 4
M  V30 4 1 4 5
M  V30 5 1 5 6
M  V30 6 2 6 7
M  V30 7 1 7 8
M  V30 8 2 8 9
M  V30 9 1 9 10
M  V30 10 1 10 11
M  V30 11 2 10 12
M  V30 12 1 12 13
M  V30 13 2 13 14
M  V30 14 1 14 15
M  V30 15 1 15 16
M  V30 16 1 16 17
M  V30 17 1 17 18
M  V30 18 1 18 19
M  V30 19 1 19 20
M  V30 20 1 20 21
M  V30 21 2 15 22
M  V30 22 1 22 23
M  V30 23 3 23 24
M  V30 24 1 22 25
M  V30 25 1 25 26
M  V30 26 2 25 27
M  V30 27 1 12 6
M  V30 28 1 27 13
M  V30 29 1 21 16
M  V30 30 1 1 28
M  V30 31 1 1 29
M  V30 32 1 1 30
M  V30 33 1 2 31
M  V30 34 1 3 32
M  V30 35 1 3 33
M  V30 36 1 3 34
M  V30 37 1 4 35
M  V30 38 1 4 36
M  V30 39 1 7 37
M  V30 40 1 8 38
M  V30 41 1 9 39
M  V30 42 1 11 40
M  V30 43 1 14 41
M  V30 44 1 16 42
M  V30 45 1 17 43
M  V30 46 1 17 44
M  V30 47 1 18 45
M  V30 48 1 18 46
M  V30 49 1 19 47
M  V30 50 1 20 48
M  V30 51 1 20 49
M  V30 52 1 21 50
M  V30 53 1 21 51
M  V30 54 1 26 52
M  V30 55 1 26 53
M  V30 END BOND
M  V30 END CTAB
M  END
>  <Dataset>  (6) 
ChEMBL_Kinases

>  <Ligand_Instance>  (6) 
nan

>  <PDB_ID>  (6) 
nan

>  <Standardized_SMILES>  (6) 
CC(C)COc1cccc(O)c1-c1cc(C2CCNCC2)c(C#N)c(N)n1

>  <Name>  (6) 
nan

>  <Pocket>  (6) 
nan

>  <ATP_Site>  (6) 
nan

>  <Peripheral>  (6) 
nan

>  <Num_H_Atoms_ProtBoundConf>  (6) 
nan

>  <Num_Resolved_Atoms>  (6) 
nan

>  <Num_Not_Resolved_Atoms>  (6) 
nan

$$$$
CHEMBL181464
     RDKit          3D

  0  0  0  0  0  0  0  0  0  0999 V3000
M  V30 BEGIN CTAB
M  V30 COUNTS 56 61 0 0 0
M  V30 BEGIN ATOM
M  V30 1 C 5.312673 -3.557382 0.785664 0
M  V30 2 N 4.688733 -2.254276 0.848647 0
M  V30 3 C 5.141857 -1.691572 2.133042 0
M  V30 4 C 3.860805 -1.853816 -0.225274 0
M  V30 5 O 3.988813 -2.908943 -0.928387 0
M  V30 6 N 3.041086 -0.806784 -0.718331 0
M  V30 7 C 2.801840 0.437288 -0.051486 0
M  V30 8 C 1.526200 0.558746 0.695296 0
M  V30 9 N 0.500601 -0.388851 0.361275 0
M  V30 10 C -0.590278 -0.416286 1.186734 0
M  V30 11 C -1.464128 -1.394946 0.693274 0
M  V30 12 C -2.749799 -1.667631 1.363438 0
M  V30 13 C -3.615640 -0.748529 1.824876 0
M  V30 14 C -3.659980 0.709646 1.858902 0
M  V30 15 C -4.016409 1.480523 2.955791 0
M  V30 16 C -3.953454 2.814645 2.617500 0
M  V30 17 N -3.566480 2.902823 1.333206 0
M  V30 18 N -3.361581 3.941396 0.539804 0
M  V30 19 C -2.974441 3.833495 -0.743778 0
M  V30 20 C -2.768840 2.562230 -1.300310 0
M  V30 21 C -2.998154 1.508890 -0.424108 0
M  V30 22 C -3.393205 1.648855 0.885809 0
M  V30 23 C -4.753007 -1.483532 2.425733 0
M  V30 24 O -5.810215 -1.026472 2.985374 0
M  V30 25 N -4.559992 -2.886676 2.321071 0
M  V30 26 C -3.297307 -3.004618 1.652445 0
M  V30 27 O -2.822217 -4.140611 1.401592 0
M  V30 28 C -0.919818 -1.970916 -0.431489 0
M  V30 29 C -1.352634 -2.949410 -1.281634 0
M  V30 30 C -0.529595 -3.281090 -2.336023 0
M  V30 31 C 0.687751 -2.684243 -2.570984 0
M  V30 32 C 1.077181 -1.705305 -1.687327 0
M  V30 33 C 0.284883 -1.327363 -0.601954 0
M  V30 34 C 2.421774 -1.110448 -2.019393 0
M  V30 35 H 6.428874 -3.408551 0.811848 0
M  V30 36 H 5.119714 -4.142509 -0.107435 0
M  V30 37 H 5.018165 -4.199518 1.650972 0
M  V30 38 H 4.713930 -0.675620 2.191849 0
M  V30 39 H 6.241241 -1.673890 2.185997 0
M  V30 40 H 4.675524 -2.324618 2.946422 0
M  V30 41 H 2.797921 1.248996 -0.841161 0
M  V30 42 H 3.652519 0.726908 0.611739 0
M  V30 43 H 1.730813 0.455676 1.802821 0
M  V30 44 H 1.102254 1.604039 0.626491 0
M  V30 45 H -0.783483 0.200332 2.082634 0
M  V30 46 H -4.309615 1.180836 3.947163 0
M  V30 47 H -4.167392 3.700462 3.238152 0
M  V30 48 H -2.811472 4.695422 -1.374845 0
M  V30 49 H -2.456990 2.387992 -2.322761 0
M  V30 50 H -2.850021 0.535324 -0.854342 0
M  V30 51 H -5.183277 -3.652911 2.649700 0
M  V30 52 H -2.292411 -3.421159 -1.127270 0
M  V30 53 H -0.849620 -4.055421 -3.027759 0
M  V30 54 H 1.312610 -2.961427 -3.400757 0
M  V30 55 H 2.355556 -0.225442 -2.648020 0
M  V30 56 H 3.001641 -1.939624 -2.467590 0
M  V30 END ATOM
M  V30 BEGIN BOND
M  V30 1 1 1 2
M  V30 2 1 2 3
M  V30 3 1 2 4
M  V30 4 2 4 5
M  V30 5 1 4 6
M  V30 6 1 6 7
M  V30 7 1 7 8
M  V30 8 1 8 9
M  V30 9 1 9 10
M  V30 10 2 10 11
M  V30 11 1 11 12
M  V30 12 2 12 13
M  V30 13 1 13 14
M  V30 14 1 14 15
M  V30 15 2 15 16
M  V30 16 1 16 17
M  V30 17 1 17 18
M  V30 18 2 18 19
M  V30 19 1 19 20
M  V30 20 2 20 21
M  V30 21 1 21 22
M  V30 22 1 13 23
M  V30 23 2 23 24
M  V30 24 1 23 25
M  V30 25 1 25 26
M  V30 26 2 26 27
M  V30 27 1 11 28
M  V30 28 2 28 29
M  V30 29 1 29 30
M  V30 30 2 30 31
M  V30 31 1 31 32
M  V30 32 2 32 33
M  V30 33 1 32 34
M  V30 34 1 34 6
M  V30 35 1 33 9
M  V30 36 1 26 12
M  V30 37 1 33 28
M  V30 38 2 22 14
M  V30 39 1 22 17
M  V30 40 1 1 35
M  V30 41 1 1 36
M  V30 42 1 1 37
M  V30 43 1 3 38
M  V30 44 1 3 39
M  V30 45 1 3 40
M  V30 46 1 7 41
M  V30 47 1 7 42
M  V30 48 1 8 43
M  V30 49 1 8 44
M  V30 50 1 10 45
M  V30 51 1 15 46
M  V30 52 1 16 47
M  V30 53 1 19 48
M  V30 54 1 20 49
M  V30 55 1 21 50
M  V30 56 1 25 51
M  V30 57 1 29 52
M  V30 58 1 30 53
M  V30 59 1 31 54
M  V30 60 1 34 55
M  V30 61 1 34 56
M  V30 END BOND
M  V30 END CTAB
M  END
>  <Dataset>  (7) 
ChEMBL_Kinases

>  <Ligand_Instance>  (7) 
nan

>  <PDB_ID>  (7) 
nan

>  <Standardized_SMILES>  (7) 
CN(C)C(=O)N1CCn2cc(C3=C(c4ccn5ncccc45)C(=O)NC3=O)c3cccc(c32)C1

>  <Name>  (7) 
nan

>  <Pocket>  (7) 
nan

>  <ATP_Site>  (7) 
nan

>  <Peripheral>  (7) 
nan

>  <Num_H_Atoms_ProtBoundConf>  (7) 
nan

>  <Num_Resolved_Atoms>  (7) 
nan

>  <Num_Not_Resolved_Atoms>  (7) 
nan

$$$$
CHEMBL181495
     RDKit          3D

  0  0  0  0  0  0  0  0  0  0999 V3000
M  V30 BEGIN CTAB
M  V30 COUNTS 53 55 0 0 0
M  V30 BEGIN ATOM
M  V30 1 C 2.064047 -2.890836 5.264384 0
M  V30 2 C 1.957896 -1.749524 4.242943 0
M  V30 3 C 0.476581 -1.348064 4.280150 0
M  V30 4 C 2.178203 -2.380872 2.905083 0
M  V30 5 O 2.132050 -1.553741 1.807497 0
M  V30 6 C 2.874986 -0.484152 1.445215 0
M  V30 7 C 3.942844 0.180209 2.007881 0
M  V30 8 C 4.549364 1.276047 1.434929 0
M  V30 9 C 4.049001 1.722107 0.229924 0
M  V30 10 C 2.984539 1.119089 -0.405073 0
M  V30 11 O 2.576238 1.657419 -1.605255 0
M  V30 12 C 2.402549 0.007545 0.219546 0
M  V30 13 C 1.278290 -0.525919 -0.580468 0
M  V30 14 C 0.019926 -0.028458 -0.342283 0
M  V30 15 C -1.158369 -0.414414 -1.001495 0
M  V30 16 C -2.480493 0.183761 -0.681161 0
M  V30 17 C -3.263915 -0.631361 0.304814 0
M  V30 18 C -4.695294 -0.190889 0.445727 0
M  V30 19 C -5.266475 0.394823 -0.813071 0
M  V30 20 N -4.479414 0.048259 -1.979992 0
M  V30 21 C -3.222305 0.700502 -1.861810 0
M  V30 22 C -0.923913 -1.384083 -1.953847 0
M  V30 23 C -2.003464 -1.893748 -2.707870 0
M  V30 24 N -2.860721 -2.320319 -3.311556 0
M  V30 25 C 0.342353 -1.878143 -2.186955 0
M  V30 26 N 0.549608 -2.885622 -3.184810 0
M  V30 27 N 1.432554 -1.468874 -1.523191 0
M  V30 28 H 3.042685 -3.374195 5.254048 0
M  V30 29 H 1.717847 -2.538400 6.251922 0
M  V30 30 H 1.308143 -3.644661 4.934507 0
M  V30 31 H 2.596904 -0.913780 4.504501 0
M  V30 32 H 0.158466 -1.298779 5.324574 0
M  V30 33 H -0.073472 -2.150941 3.763407 0
M  V30 34 H 0.332854 -0.350518 3.813390 0
M  V30 35 H 1.512277 -3.263527 2.848700 0
M  V30 36 H 3.217196 -2.827401 2.939044 0
M  V30 37 H 4.242774 -0.267068 2.942922 0
M  V30 38 H 5.379729 1.709829 1.975741 0
M  V30 39 H 4.546018 2.580946 -0.190929 0
M  V30 40 H 1.887450 1.202651 -2.179203 0
M  V30 41 H -0.089454 0.745036 0.434804 0
M  V30 42 H -2.193981 1.118172 -0.085580 0
M  V30 43 H -3.146102 -1.698174 0.025346 0
M  V30 44 H -2.821238 -0.561874 1.322024 0
M  V30 45 H -4.857588 0.541389 1.261760 0
M  V30 46 H -5.297202 -1.085547 0.703687 0
M  V30 47 H -6.308565 0.066264 -1.001496 0
M  V30 48 H -5.287525 1.502680 -0.763064 0
M  V30 49 H -5.024317 0.301992 -2.829561 0
M  V30 50 H -2.572334 0.484855 -2.761558 0
M  V30 51 H -3.377165 1.797380 -1.766230 0
M  V30 52 H 0.608568 -2.436948 -4.126729 0
M  V30 53 H 0.627433 -3.914106 -2.977677 0
M  V30 END ATOM
M  V30 BEGIN BOND
M  V30 1 1 1 2
M  V30 2 1 2 3
M  V30 3 1 2 4
M  V30 4 1 4 5
M  V30 5 1 5 6
M  V30 6 2 6 7
M  V30 7 1 7 8
M  V30 8 2 8 9
M  V30 9 1 9 10
M  V30 10 1 10 11
M  V30 11 2 10 12
M  V30 12 1 12 13
M  V30 13 2 13 14
M  V30 14 1 14 15
M  V30 15 1 15 16
M  V30 16 1 16 17
M  V30 17 1 17 18
M  V30 18 1 18 19
M  V30 19 1 19 20
M  V30 20 1 20 21
M  V30 21 2 15 22
M  V30 22 1 22 23
M  V30 23 3 23 24
M  V30 24 1 22 25
M  V30 25 1 25 26
M  V30 26 2 25 27
M  V30 27 1 12 6
M  V30 28 1 27 13
M  V30 29 1 21 16
M  V30 30 1 1 28
M  V30 31 1 1 29
M  V30 32 1 1 30
M  V30 33 1 2 31
M  V30 34 1 3 32
M  V30 35 1 3 33
M  V30 36 1 3 34
M  V30 37 1 4 35
M  V30 38 1 4 36
M  V30 39 1 7 37
M  V30 40 1 8 38
M  V30 41 1 9 39
M  V30 42 1 11 40
M  V30 43 1 14 41
M  V30 44 1 16 42
M  V30 45 1 17 43
M  V30 46 1 17 44
M  V30 47 1 18 45
M  V30 48 1 18 46
M  V30 49 1 19 47
M  V30 50 1 19 48
M  V30 51 1 20 49
M  V30 52 1 21 50
M  V30 53 1 21 51
M  V30 54 1 26 52
M  V30 55 1 26 53
M  V30 END BOND
M  V30 END CTAB
M  END
>  <Dataset>  (8) 
ChEMBL_Kinases

>  <Ligand_Instance>  (8) 
nan

>  <PDB_ID>  (8) 
nan

>  <Standardized_SMILES>  (8) 
CC(C)COc1cccc(O)c1-c1cc(C2CCCNC2)c(C#N)c(N)n1

>  <Name>  (8) 
nan

>  <Pocket>  (8) 
nan

>  <ATP_Site>  (8) 
nan

>  <Peripheral>  (8) 
nan

>  <Num_H_Atoms_ProtBoundConf>  (8) 
nan

>  <Num_Resolved_Atoms>  (8) 
nan

>  <Num_Not_Resolved_Atoms>  (8) 
nan

$$$$
CHEMBL181606
     RDKit          3D

  0  0  0  0  0  0  0  0  0  0999 V3000
M  V30 BEGIN CTAB
M  V30 COUNTS 66 69 0 0 0
M  V30 BEGIN ATOM
M  V30 1 C 6.035362 -0.949334 2.442270 0
M  V30 2 C 4.736377 -0.334652 2.888991 0
M  V30 3 C 4.887884 0.759795 3.897388 0
M  V30 4 C 3.940608 0.166604 1.711936 0
M  V30 5 C 4.034954 1.437100 1.180781 0
M  V30 6 N 3.167948 1.477339 0.153486 0
M  V30 7 N 2.542089 0.322202 0.009065 0
M  V30 8 C 1.608170 -0.087199 -0.869042 0
M  V30 9 N 1.093078 0.768982 -1.902223 0
M  V30 10 C -0.030394 1.570094 -1.555912 0
M  V30 11 C -0.575770 1.533015 -0.285692 0
M  V30 12 C -1.677797 2.300879 0.103528 0
M  V30 13 C -2.258362 3.151852 -0.844908 0
M  V30 14 S -3.614174 4.084973 -0.331838 0
M  V30 15 O -3.619016 5.378009 -1.132382 0
M  V30 16 O -3.466700 4.449419 1.118496 0
M  V30 17 N -5.132898 3.355858 -0.544691 0
M  V30 18 C -5.298151 2.129860 0.193841 0
M  V30 19 C -5.597224 3.270716 -1.904182 0
M  V30 20 C -1.734235 3.213639 -2.133318 0
M  V30 21 C -0.637452 2.423252 -2.453133 0
M  V30 22 C 1.172525 -1.387620 -0.718991 0
M  V30 23 C 1.622423 -2.258316 0.243315 0
M  V30 24 N 1.177353 -3.587848 0.412314 0
M  V30 25 C 0.195771 -4.376073 -0.255618 0
M  V30 26 C 0.225676 -5.848673 0.167893 0
M  V30 27 C -0.420894 -6.089424 1.492281 0
M  V30 28 C -1.888734 -5.647701 1.425959 0
M  V30 29 C -1.795169 -4.126582 1.276270 0
M  V30 30 N -3.082460 -3.512874 1.365100 0
M  V30 31 C -1.227508 -3.875635 -0.091236 0
M  V30 32 N 2.553938 -1.754264 1.070655 0
M  V30 33 C 2.999729 -0.499262 0.954942 0
M  V30 34 H 5.804268 -1.509143 1.501543 0
M  V30 35 H 6.803883 -0.195760 2.196852 0
M  V30 36 H 6.358055 -1.660548 3.222292 0
M  V30 37 H 4.163041 -1.166999 3.387330 0
M  V30 38 H 4.496558 0.465451 4.906720 0
M  V30 39 H 5.913755 1.125547 3.921120 0
M  V30 40 H 4.244588 1.625956 3.602116 0
M  V30 41 H 4.705632 2.198693 1.575920 0
M  V30 42 H 1.477834 0.840104 -2.862802 0
M  V30 43 H -0.158642 0.893410 0.468926 0
M  V30 44 H -2.077673 2.243973 1.112213 0
M  V30 45 H -5.737376 2.439438 1.186646 0
M  V30 46 H -6.058131 1.457863 -0.263822 0
M  V30 47 H -4.363742 1.611766 0.452743 0
M  V30 48 H -6.450823 2.533099 -1.883154 0
M  V30 49 H -6.050367 4.242568 -2.186403 0
M  V30 50 H -4.876815 2.896999 -2.630820 0
M  V30 51 H -2.197230 3.877233 -2.850580 0
M  V30 52 H -0.232595 2.469618 -3.445243 0
M  V30 53 H 0.439719 -1.699789 -1.427831 0
M  V30 54 H 1.649354 -4.132743 1.183751 0
M  V30 55 H 0.413866 -4.368870 -1.340473 0
M  V30 56 H 1.296697 -6.107010 0.237507 0
M  V30 57 H -0.253660 -6.438402 -0.629090 0
M  V30 58 H 0.042126 -5.407138 2.239450 0
M  V30 59 H -0.325694 -7.143092 1.736621 0
M  V30 60 H -2.411329 -6.107535 0.578026 0
M  V30 61 H -2.344042 -5.841349 2.406512 0
M  V30 62 H -1.193624 -3.781105 2.114240 0
M  V30 63 H -2.927741 -2.488151 1.168798 0
M  V30 64 H -3.368201 -3.528531 2.382316 0
M  V30 65 H -1.835779 -4.518449 -0.788657 0
M  V30 66 H -1.326079 -2.859537 -0.440875 0
M  V30 END ATOM
M  V30 BEGIN BOND
M  V30 1 1 1 2
M  V30 2 1 2 3
M  V30 3 1 2 4
M  V30 4 1 4 5
M  V30 5 2 5 6
M  V30 6 1 6 7
M  V30 7 1 7 8
M  V30 8 1 8 9
M  V30 9 1 9 10
M  V30 10 2 10 11
M  V30 11 1 11 12
M  V30 12 2 12 13
M  V30 13 1 13 14
M  V30 14 2 14 15
M  V30 15 2 14 16
M  V30 16 1 14 17
M  V30 17 1 17 18
M  V30 18 1 17 19
M  V30 19 1 13 20
M  V30 20 2 20 21
M  V30 21 2 8 22
M  V30 22 1 22 23
M  V30 23 1 23 24
M  V30 24 1 24 25
M  V30 25 1 25 26
M  V30 26 1 26 27
M  V30 27 1 27 28
M  V30 28 1 28 29
M  V30 29 1 29 30
M  V30 30 1 29 31
M  V30 31 2 23 32
M  V30 32 1 32 33
M  V30 33 2 33 4
M  V30 34 1 33 7
M  V30 35 1 21 10
M  V30 36 1 31 25
M  V30 37 1 1 34
M  V30 38 1 1 35
M  V30 39 1 1 36
M  V30 40 1 2 37
M  V30 41 1 3 38
M  V30 42 1 3 39
M  V30 43 1 3 40
M  V30 44 1 5 41
M  V30 45 1 9 42
M  V30 46 1 11 43
M  V30 47 1 12 44
M  V30 48 1 18 45
M  V30 49 1 18 46
M  V30 50 1 18 47
M  V30 51 1 19 48
M  V30 52 1 19 49
M  V30 53 1 19 50
M  V30 54 1 20 51
M  V30 55 1 21 52
M  V30 56 1 22 53
M  V30 57 1 24 54
M  V30 58 1 25 55
M  V30 59 1 26 56
M  V30 60 1 26 57
M  V30 61 1 27 58
M  V30 62 1 27 59
M  V30 63 1 28 60
M  V30 64 1 28 61
M  V30 65 1 29 62
M  V30 66 1 30 63
M  V30 67 1 30 64
M  V30 68 1 31 65
M  V30 69 1 31 66
M  V30 END BOND
M  V30 END CTAB
M  END
>  <Dataset>  (9) 
ChEMBL_Kinases

>  <Ligand_Instance>  (9) 
nan

>  <PDB_ID>  (9) 
nan

>  <Standardized_SMILES>  (9) 
CC(C)c1cnn2c(Nc3ccc(S(=O)(=O)N(C)C)cc3)cc(NC3CCCC(N)C3)nc12

>  <Name>  (9) 
nan

>  <Pocket>  (9) 
nan

>  <ATP_Site>  (9) 
nan

>  <Peripheral>  (9) 
nan

>  <Num_H_Atoms_ProtBoundConf>  (9) 
nan

>  <Num_Resolved_Atoms>  (9) 
nan

>  <Num_Not_Resolved_Atoms>  (9) 
nan

$$$$
CHEMBL181640
     RDKit          3D

  0  0  0  0  0  0  0  0  0  0999 V3000
M  V30 BEGIN CTAB
M  V30 COUNTS 34 37 0 0 0
M  V30 BEGIN ATOM
M  V30 1 N 1.833089 -3.933270 4.169639 0
M  V30 2 C 1.462518 -2.879975 3.268836 0
M  V30 3 N 1.444740 -2.741377 2.122879 0
M  V30 4 C 1.057173 -1.660556 1.441533 0
M  V30 5 C 1.112558 -1.677438 -0.032840 0
M  V30 6 C 0.404851 -2.543983 -0.840224 0
M  V30 7 C 0.463366 -2.551908 -2.193477 0
M  V30 8 C 1.275961 -1.644935 -2.841069 0
M  V30 9 C 1.984491 -0.777778 -2.040720 0
M  V30 10 N 1.911142 -0.787498 -0.693030 0
M  V30 11 C 0.626487 -0.582217 2.214576 0
M  V30 12 C 0.154208 0.699125 1.685090 0
M  V30 13 C 0.928526 1.820876 1.921235 0
M  V30 14 C 0.435015 3.000422 1.401173 0
M  V30 15 N -0.715342 3.139750 0.698186 0
M  V30 16 C -1.452410 2.032310 0.481290 0
M  V30 17 C -2.631120 2.173548 -0.236541 0
M  V30 18 C -3.404785 1.062917 -0.471893 0
M  V30 19 C -2.984245 -0.162084 0.014480 0
M  V30 20 C -1.802090 -0.294317 0.732574 0
M  V30 21 C -1.021479 0.816872 0.971601 0
M  V30 22 S 0.829592 -1.257045 3.936171 0
M  V30 23 H 1.581255 -4.901775 3.916371 0
M  V30 24 H 2.345220 -3.633117 5.040230 0
M  V30 25 H -0.238451 -3.262547 -0.340179 0
M  V30 26 H -0.094251 -3.233414 -2.803507 0
M  V30 27 H 1.379142 -1.584532 -3.898344 0
M  V30 28 H 2.664498 -0.010565 -2.433865 0
M  V30 29 H 1.863789 1.828327 2.469334 0
M  V30 30 H 0.970716 3.937662 1.533106 0
M  V30 31 H -2.937352 3.156222 -0.608415 0
M  V30 32 H -4.321742 1.174176 -1.030748 0
M  V30 33 H -3.614862 -1.015974 -0.187315 0
M  V30 34 H -1.511817 -1.249388 1.092104 0
M  V30 END ATOM
M  V30 BEGIN BOND
M  V30 1 1 1 2
M  V30 2 2 2 3
M  V30 3 1 3 4
M  V30 4 1 4 5
M  V30 5 2 5 6
M  V30 6 1 6 7
M  V30 7 2 7 8
M  V30 8 1 8 9
M  V30 9 2 9 10
M  V30 10 2 4 11
M  V30 11 1 11 12
M  V30 12 2 12 13
M  V30 13 1 13 14
M  V30 14 2 14 15
M  V30 15 1 15 16
M  V30 16 2 16 17
M  V30 17 1 17 18
M  V30 18 2 18 19
M  V30 19 1 19 20
M  V30 20 2 20 21
M  V30 21 1 11 22
M  V30 22 1 22 2
M  V30 23 1 10 5
M  V30 24 1 21 12
M  V30 25 1 21 16
M  V30 26 1 1 23
M  V30 27 1 1 24
M  V30 28 1 6 25
M  V30 29 1 7 26
M  V30 30 1 8 27
M  V30 31 1 9 28
M  V30 32 1 13 29
M  V30 33 1 14 30
M  V30 34 1 17 31
M  V30 35 1 18 32
M  V30 36 1 19 33
M  V30 37 1 20 34
M  V30 END BOND
M  V30 END CTAB
M  END
>  <Dataset>  (10) 
ChEMBL_Kinases

>  <Ligand_Instance>  (10) 
nan

>  <PDB_ID>  (10) 
nan

>  <Standardized_SMILES>  (10) 
Nc1nc(-c2ccccn2)c(-c2ccnc3ccccc23)s1

>  <Name>  (10) 
nan

>  <Pocket>  (10) 
nan

>  <ATP_Site>  (10) 
nan

>  <Peripheral>  (10) 
nan

>  <Num_H_Atoms_ProtBoundConf>  (10) 
nan

>  <Num_Resolved_Atoms>  (10) 
nan

>  <Num_Not_Resolved_Atoms>  (10) 
nan

$$$$
CHEMBL182101
     RDKit          3D

  0  0  0  0  0  0  0  0  0  0999 V3000
M  V30 BEGIN CTAB
M  V30 COUNTS 71 77 0 0 0
M  V30 BEGIN ATOM
M  V30 1 C 3.793299 -1.066479 6.055048 0
M  V30 2 N 4.969629 -1.280762 5.237618 0
M  V30 3 N 6.123608 -1.711242 5.719446 0
M  V30 4 N 6.995555 -1.803129 4.723007 0
M  V30 5 N 6.381403 -1.427657 3.613687 0
M  V30 6 C 5.111899 -1.093800 3.898308 0
M  V30 7 C 4.070826 -0.623819 2.984266 0
M  V30 8 C 2.821355 -1.217954 2.869679 0
M  V30 9 N 1.895599 -0.740202 2.004569 0
M  V30 10 C 2.193661 0.344870 1.230094 0
M  V30 11 C 1.051328 0.679294 0.374599 0
M  V30 12 C 1.167327 0.583839 -0.998505 0
M  V30 13 C 0.041780 0.916657 -1.723308 0
M  V30 14 C -1.195066 1.337472 -1.215684 0
M  V30 15 C -2.339937 1.666388 -2.068931 0
M  V30 16 N -3.262375 0.615067 -2.344888 0
M  V30 17 C -2.665387 -0.500466 -2.922549 0
M  V30 18 C -3.339648 -1.848462 -2.559463 0
M  V30 19 C -3.594365 -1.745425 -1.105890 0
M  V30 20 N -3.718440 -2.935210 -0.342040 0
M  V30 21 C -3.435155 -2.997377 0.994211 0
M  V30 22 O -3.031322 -2.014997 1.705638 0
M  V30 23 N -3.657978 -4.258227 1.402033 0
M  V30 24 C -4.076714 -5.021128 0.379316 0
M  V30 25 C -4.411593 -6.359906 0.375148 0
M  V30 26 C -4.814002 -6.872846 -0.851507 0
M  V30 27 C -4.859045 -6.047947 -1.972970 0
M  V30 28 C -4.504717 -4.702709 -1.889194 0
M  V30 29 C -4.101585 -4.167316 -0.683458 0
M  V30 30 C -4.796939 -0.813531 -0.996245 0
M  V30 31 C -4.317535 0.549816 -1.444383 0
M  V30 32 C -1.186624 1.393533 0.162343 0
M  V30 33 C -0.120940 1.084016 0.983940 0
M  V30 34 C 3.419407 0.948579 1.324873 0
M  V30 35 C 3.545981 2.099581 0.411178 0
M  V30 36 C 4.501141 2.167280 -0.589646 0
M  V30 37 C 4.518454 3.302041 -1.384061 0
M  V30 38 C 3.640096 4.361680 -1.232071 0
M  V30 39 C 2.696271 4.242843 -0.207530 0
M  V30 40 C 2.665957 3.127358 0.586725 0
M  V30 41 C 4.364904 0.479333 2.192557 0
M  V30 42 H 3.402682 -2.023583 6.502382 0
M  V30 43 H 4.013726 -0.371327 6.886912 0
M  V30 44 H 2.973599 -0.658854 5.400749 0
M  V30 45 H 2.617172 -2.077439 3.498699 0
M  V30 46 H 2.070066 0.272632 -1.467087 0
M  V30 47 H 0.172761 0.832096 -2.814561 0
M  V30 48 H -2.850782 2.611507 -1.745703 0
M  V30 49 H -1.884932 1.967357 -3.065945 0
M  V30 50 H -1.650718 -0.654045 -2.451137 0
M  V30 51 H -2.586229 -0.400222 -4.019569 0
M  V30 52 H -2.653117 -2.618272 -2.902581 0
M  V30 53 H -4.283945 -1.756405 -3.178885 0
M  V30 54 H -2.763737 -1.130832 -0.642283 0
M  V30 55 H -3.512245 -4.567252 2.398807 0
M  V30 56 H -4.351591 -6.947878 1.298985 0
M  V30 57 H -5.086392 -7.931445 -0.887014 0
M  V30 58 H -5.181134 -6.483253 -2.927458 0
M  V30 59 H -4.545656 -4.084561 -2.761131 0
M  V30 60 H -5.103725 -0.758804 0.049947 0
M  V30 61 H -5.619464 -1.190775 -1.652058 0
M  V30 62 H -5.187060 1.118722 -1.881588 0
M  V30 63 H -4.020702 1.105537 -0.503130 0
M  V30 64 H -2.072680 1.707099 0.693174 0
M  V30 65 H -0.177916 1.148128 2.061494 0
M  V30 66 H 5.189971 1.345622 -0.715232 0
M  V30 67 H 5.290255 3.303843 -2.156839 0
M  V30 68 H 3.695900 5.229352 -1.882411 0
M  V30 69 H 2.017060 5.073113 -0.097105 0
M  V30 70 H 1.899002 3.146128 1.339869 0
M  V30 71 H 5.286987 1.015325 2.194335 0
M  V30 END ATOM
M  V30 BEGIN BOND
M  V30 1 1 1 2
M  V30 2 1 2 3
M  V30 3 2 3 4
M  V30 4 1 4 5
M  V30 5 2 5 6
M  V30 6 1 6 7
M  V30 7 2 7 8
M  V30 8 1 8 9
M  V30 9 2 9 10
M  V30 10 1 10 11
M  V30 11 2 11 12
M  V30 12 1 12 13
M  V30 13 2 13 14
M  V30 14 1 14 15
M  V30 15 1 15 16
M  V30 16 1 16 17
M  V30 17 1 17 18
M  V30 18 1 18 19
M  V30 19 1 19 20
M  V30 20 1 20 21
M  V30 21 2 21 22
M  V30 22 1 21 23
M  V30 23 1 23 24
M  V30 24 2 24 25
M  V30 25 1 25 26
M  V30 26 2 26 27
M  V30 27 1 27 28
M  V30 28 2 28 29
M  V30 29 1 19 30
M  V30 30 1 30 31
M  V30 31 1 14 32
M  V30 32 2 32 33
M  V30 33 1 10 34
M  V30 34 1 34 35
M  V30 35 2 35 36
M  V30 36 1 36 37
M  V30 37 2 37 38
M  V30 38 1 38 39
M  V30 39 2 39 40
M  V30 40 2 34 41
M  V30 41 1 6 2
M  V30 42 1 41 7
M  V30 43 1 33 11
M  V30 44 1 40 35
M  V30 45 1 31 16
M  V30 46 1 29 20
M  V30 47 1 29 24
M  V30 48 1 1 42
M  V30 49 1 1 43
M  V30 50 1 1 44
M  V30 51 1 8 45
M  V30 52 1 12 46
M  V30 53 1 13 47
M  V30 54 1 15 48
M  V30 55 1 15 49
M  V30 56 1 17 50
M  V30 57 1 17 51
M  V30 58 1 18 52
M  V30 59 1 18 53
M  V30 60 1 19 54
M  V30 61 1 23 55
M  V30 62 1 25 56
M  V30 63 1 26 57
M  V30 64 1 27 58
M  V30 65 1 28 59
M  V30 66 1 30 60
M  V30 67 1 30 61
M  V30 68 1 31 62
M  V30 69 1 31 63
M  V30 70 1 32 64
M  V30 71 1 33 65
M  V30 72 1 36 66
M  V30 73 1 37 67
M  V30 74 1 38 68
M  V30 75 1 39 69
M  V30 76 1 40 70
M  V30 77 1 41 71
M  V30 END BOND
M  V30 END CTAB
M  END
>  <Dataset>  (11) 
ChEMBL_Kinases

>  <Ligand_Instance>  (11) 
nan

>  <PDB_ID>  (11) 
nan

>  <Standardized_SMILES>  (11) 
Cn1nnnc1-c1cnc(-c2ccc(CN3CCC(n4c(=O)[nH]c5ccccc54)CC3)cc2)c(-c2ccccc2)c1

>  <Name>  (11) 
nan

>  <Pocket>  (11) 
nan

>  <ATP_Site>  (11) 
nan

>  <Peripheral>  (11) 
nan

>  <Num_H_Atoms_ProtBoundConf>  (11) 
nan

>  <Num_Resolved_Atoms>  (11) 
nan

>  <Num_Not_Resolved_Atoms>  (11) 
nan

$$$$
CHEMBL181756
     RDKit          3D

  0  0  0  0  0  0  0  0  0  0999 V3000
M  V30 BEGIN CTAB
M  V30 COUNTS 62 64 0 0 0
M  V30 BEGIN ATOM
M  V30 1 C 0.658988 -2.763989 3.371242 0
M  V30 2 C 0.783187 -1.264151 3.443088 0
M  V30 3 C 2.130960 -0.855094 2.838152 0
M  V30 4 C 2.312976 0.652074 2.874871 0
M  V30 5 C 3.639773 1.013563 2.333239 0
M  V30 6 C 3.954872 0.674760 0.929541 0
M  V30 7 C 3.152667 1.318731 -0.141524 0
M  V30 8 O 1.804113 1.004837 -0.049578 0
M  V30 9 C 0.887160 1.518714 -0.986754 0
M  V30 10 C 1.396072 2.351280 -1.994367 0
M  V30 11 C 0.673092 2.952775 -3.002438 0
M  V30 12 C -0.677401 2.706456 -3.012237 0
M  V30 13 C -1.223691 1.894809 -2.042693 0
M  V30 14 O -2.595041 1.684086 -2.106450 0
M  V30 15 C -0.452657 1.331324 -1.074325 0
M  V30 16 C -1.146851 0.506299 -0.120023 0
M  V30 17 C -1.288488 -0.856242 -0.288677 0
M  V30 18 C -1.997486 -1.618871 0.617139 0
M  V30 19 C -2.076416 -3.075812 0.319507 0
M  V30 20 C -3.267651 -3.438317 -0.528914 0
M  V30 21 C -2.996071 -3.470192 -1.998473 0
M  V30 22 C -1.717491 -4.221251 -2.327502 0
M  V30 23 N -0.646002 -3.572599 -1.635202 0
M  V30 24 C -0.802663 -3.649288 -0.208866 0
M  V30 25 C -2.562467 -0.975594 1.700857 0
M  V30 26 C -3.289632 -1.788056 2.619751 0
M  V30 27 N -3.866603 -2.447337 3.377979 0
M  V30 28 C -2.401877 0.401608 1.845484 0
M  V30 29 N -3.030688 0.942420 3.001799 0
M  V30 30 N -1.701103 1.150501 0.949316 0
M  V30 31 H 1.148282 -3.110955 2.434343 0
M  V30 32 H -0.403823 -3.101409 3.363349 0
M  V30 33 H 1.170663 -3.269877 4.211686 0
M  V30 34 H 0.778554 -1.008325 4.537291 0
M  V30 35 H -0.032112 -0.709405 2.984807 0
M  V30 36 H 2.221138 -1.235110 1.815609 0
M  V30 37 H 2.925180 -1.280086 3.483097 0
M  V30 38 H 2.258924 1.029252 3.915090 0
M  V30 39 H 1.456610 1.102753 2.350423 0
M  V30 40 H 3.834679 2.111064 2.493903 0
M  V30 41 H 4.398220 0.448363 2.966601 0
M  V30 42 H 5.057522 0.735860 0.718062 0
M  V30 43 H 3.771080 -0.447498 0.832054 0
M  V30 44 H 3.336306 2.435462 -0.034981 0
M  V30 45 H 3.596571 1.075681 -1.136641 0
M  V30 46 H 2.476138 2.559155 -2.001144 0
M  V30 47 H 1.169237 3.577804 -3.729678 0
M  V30 48 H -1.313267 3.145667 -3.776383 0
M  V30 49 H -3.145881 2.185873 -1.404350 0
M  V30 50 H -0.812926 -1.249458 -1.158920 0
M  V30 51 H -2.256010 -3.566363 1.320224 0
M  V30 52 H -3.697513 -4.410936 -0.215398 0
M  V30 53 H -4.057016 -2.681048 -0.334976 0
M  V30 54 H -3.813232 -4.057544 -2.480019 0
M  V30 55 H -2.937562 -2.475858 -2.454150 0
M  V30 56 H -1.799699 -5.303467 -2.121071 0
M  V30 57 H -1.554369 -4.068420 -3.430671 0
M  V30 58 H 0.296741 -3.960402 -1.850392 0
M  V30 59 H -0.795543 -4.742611 0.058152 0
M  V30 60 H 0.047633 -3.157856 0.305960 0
M  V30 61 H -3.979105 1.168186 3.376810 0
M  V30 62 H -2.800183 1.331828 3.941079 0
M  V30 END ATOM
M  V30 BEGIN BOND
M  V30 1 1 1 2
M  V30 2 1 2 3
M  V30 3 1 3 4
M  V30 4 1 4 5
M  V30 5 1 5 6
M  V30 6 1 6 7
M  V30 7 1 7 8
M  V30 8 1 8 9
M  V30 9 2 9 10
M  V30 10 1 10 11
M  V30 11 2 11 12
M  V30 12 1 12 13
M  V30 13 1 13 14
M  V30 14 2 13 15
M  V30 15 1 15 16
M  V30 16 2 16 17
M  V30 17 1 17 18
M  V30 18 1 18 19
M  V30 19 1 19 20
M  V30 20 1 20 21
M  V30 21 1 21 22
M  V30 22 1 22 23
M  V30 23 1 23 24
M  V30 24 2 18 25
M  V30 25 1 25 26
M  V30 26 3 26 27
M  V30 27 1 25 28
M  V30 28 1 28 29
M  V30 29 2 28 30
M  V30 30 1 15 9
M  V30 31 1 30 16
M  V30 32 1 24 19
M  V30 33 1 1 31
M  V30 34 1 1 32
M  V30 35 1 1 33
M  V30 36 1 2 34
M  V30 37 1 2 35
M  V30 38 1 3 36
M  V30 39 1 3 37
M  V30 40 1 4 38
M  V30 41 1 4 39
M  V30 42 1 5 40
M  V30 43 1 5 41
M  V30 44 1 6 42
M  V30 45 1 6 43
M  V30 46 1 7 44
M  V30 47 1 7 45
M  V30 48 1 10 46
M  V30 49 1 11 47
M  V30 50 1 12 48
M  V30 51 1 14 49
M  V30 52 1 17 50
M  V30 53 1 19 51
M  V30 54 1 20 52
M  V30 55 1 20 53
M  V30 56 1 21 54
M  V30 57 1 21 55
M  V30 58 1 22 56
M  V30 59 1 22 57
M  V30 60 1 23 58
M  V30 61 1 24 59
M  V30 62 1 24 60
M  V30 63 1 29 61
M  V30 64 1 29 62
M  V30 END BOND
M  V30 END CTAB
M  END
>  <Dataset>  (12) 
ChEMBL_Kinases

>  <Ligand_Instance>  (12) 
nan

>  <PDB_ID>  (12) 
nan

>  <Standardized_SMILES>  (12) 
CCCCCCCOc1cccc(O)c1-c1cc(C2CCCNC2)c(C#N)c(N)n1

>  <Name>  (12) 
nan

>  <Pocket>  (12) 
nan

>  <ATP_Site>  (12) 
nan

>  <Peripheral>  (12) 
nan

>  <Num_H_Atoms_ProtBoundConf>  (12) 
nan

>  <Num_Resolved_Atoms>  (12) 
nan

>  <Num_Not_Resolved_Atoms>  (12) 
nan

$$$$
CHEMBL181856
     RDKit          3D

  0  0  0  0  0  0  0  0  0  0999 V3000
M  V30 BEGIN CTAB
M  V30 COUNTS 43 46 0 0 0
M  V30 BEGIN ATOM
M  V30 1 C 1.163989 -7.364784 3.736225 0
M  V30 2 O 1.547712 -6.038033 3.512293 0
M  V30 3 C 1.037906 -5.207547 2.530640 0
M  V30 4 C 1.607268 -3.941949 2.545134 0
M  V30 5 C 1.202497 -2.995478 1.624103 0
M  V30 6 C 0.238407 -3.262027 0.673911 0
M  V30 7 C -0.220842 -2.295910 -0.317972 0
M  V30 8 C 0.283529 -1.000375 -0.391194 0
M  V30 9 C -0.360237 -0.366152 -1.426373 0
M  V30 10 C -0.302344 0.905988 -1.988997 0
M  V30 11 N 0.640644 1.808519 -1.376193 0
M  V30 12 C -0.026982 2.501801 -0.340151 0
M  V30 13 O -1.243188 2.391967 0.032595 0
M  V30 14 N 0.498080 3.491143 0.538166 0
M  V30 15 C -0.329757 4.096803 1.542610 0
M  V30 16 C 0.473921 3.816840 2.814627 0
M  V30 17 C 1.864274 4.201098 2.355849 0
M  V30 18 C 1.724609 4.225010 0.849718 0
M  V30 19 N -1.089842 1.232712 -3.033748 0
M  V30 20 C -1.937202 0.296040 -3.522398 0
M  V30 21 N -2.005787 -0.936985 -2.991066 0
M  V30 22 C -1.238766 -1.315968 -1.943511 0
M  V30 23 O -1.121951 -2.433505 -1.261134 0
M  V30 24 C -0.319771 -4.545014 0.680544 0
M  V30 25 C 0.073035 -5.503553 1.594105 0
M  V30 26 H 0.471813 -7.441178 4.620751 0
M  V30 27 H 2.044221 -8.011848 4.000080 0
M  V30 28 H 0.702881 -7.804067 2.825586 0
M  V30 29 H 2.380420 -3.618924 3.253231 0
M  V30 30 H 1.648488 -1.994110 1.630527 0
M  V30 31 H 1.036557 -0.518409 0.215936 0
M  V30 32 H 1.626545 2.085250 -1.471264 0
M  V30 33 H -1.350016 3.726989 1.613255 0
M  V30 34 H -0.269595 5.206569 1.413182 0
M  V30 35 H 0.418299 2.748750 3.101031 0
M  V30 36 H 0.107435 4.472122 3.654706 0
M  V30 37 H 2.637885 3.499056 2.706321 0
M  V30 38 H 2.048296 5.238214 2.714546 0
M  V30 39 H 1.626015 5.268434 0.488437 0
M  V30 40 H 2.627331 3.735407 0.420323 0
M  V30 41 H -2.533675 0.634470 -4.358600 0
M  V30 42 H -1.083019 -4.866900 -0.017002 0
M  V30 43 H -0.324119 -6.499847 1.639966 0
M  V30 END ATOM
M  V30 BEGIN BOND
M  V30 1 1 1 2
M  V30 2 1 2 3
M  V30 3 2 3 4
M  V30 4 1 4 5
M  V30 5 2 5 6
M  V30 6 1 6 7
M  V30 7 2 7 8
M  V30 8 1 8 9
M  V30 9 2 9 10
M  V30 10 1 10 11
M  V30 11 1 11 12
M  V30 12 2 12 13
M  V30 13 1 12 14
M  V30 14 1 14 15
M  V30 15 1 15 16
M  V30 16 1 16 17
M  V30 17 1 17 18
M  V30 18 1 10 19
M  V30 19 2 19 20
M  V30 20 1 20 21
M  V30 21 2 21 22
M  V30 22 1 22 23
M  V30 23 1 6 24
M  V30 24 2 24 25
M  V30 25 1 25 3
M  V30 26 1 23 7
M  V30 27 1 22 9
M  V30 28 1 18 14
M  V30 29 1 1 26
M  V30 30 1 1 27
M  V30 31 1 1 28
M  V30 32 1 4 29
M  V30 33 1 5 30
M  V30 34 1 8 31
M  V30 35 1 11 32
M  V30 36 1 15 33
M  V30 37 1 15 34
M  V30 38 1 16 35
M  V30 39 1 16 36
M  V30 40 1 17 37
M  V30 41 1 17 38
M  V30 42 1 18 39
M  V30 43 1 18 40
M  V30 44 1 20 41
M  V30 45 1 24 42
M  V30 46 1 25 43
M  V30 END BOND
M  V30 END CTAB
M  END
>  <Dataset>  (13) 
ChEMBL_Kinases

>  <Ligand_Instance>  (13) 
nan

>  <PDB_ID>  (13) 
nan

>  <Standardized_SMILES>  (13) 
COc1ccc(-c2cc3c(NC(=O)N4CCCC4)ncnc3o2)cc1

>  <Name>  (13) 
nan

>  <Pocket>  (13) 
nan

>  <ATP_Site>  (13) 
nan

>  <Peripheral>  (13) 
nan

>  <Num_H_Atoms_ProtBoundConf>  (13) 
nan

>  <Num_Resolved_Atoms>  (13) 
nan

>  <Num_Not_Resolved_Atoms>  (13) 
nan

$$$$
CHEMBL181914
     RDKit          3D

  0  0  0  0  0  0  0  0  0  0999 V3000
M  V30 BEGIN CTAB
M  V30 COUNTS 34 36 0 0 0
M  V30 BEGIN ATOM
M  V30 1 N -1.458104 -5.031098 0.363597 0
M  V30 2 C -1.253900 -3.902845 0.328416 0
M  V30 3 C -1.014776 -2.485771 0.289996 0
M  V30 4 C 0.213408 -1.930613 0.595125 0
M  V30 5 C 1.334397 -2.805674 0.976858 0
M  V30 6 C 2.019799 -2.323895 2.079192 0
M  V30 7 C 3.113168 -3.061481 2.550548 0
M  V30 8 C 3.454028 -4.229861 1.895523 0
M  V30 9 N 2.759030 -4.674858 0.814952 0
M  V30 10 C 1.698394 -3.979314 0.340653 0
M  V30 11 C 0.348925 -0.556234 0.530668 0
M  V30 12 C -0.653873 0.314047 0.182624 0
M  V30 13 C -0.467897 1.762891 0.126835 0
M  V30 14 C 0.706963 2.434312 0.408334 0
M  V30 15 C 0.800111 3.804150 0.332240 0
M  V30 16 C -0.285871 4.574627 -0.031943 0
M  V30 17 C -1.469106 3.924875 -0.317428 0
M  V30 18 C -1.534682 2.548805 -0.233085 0
M  V30 19 O -2.741259 1.965082 -0.530097 0
M  V30 20 N -1.845983 -0.249952 -0.111667 0
M  V30 21 C -2.002129 -1.585664 -0.055918 0
M  V30 22 N -3.301344 -2.076029 -0.385925 0
M  V30 23 H 1.781287 -1.414955 2.615632 0
M  V30 24 H 3.718482 -2.769861 3.409676 0
M  V30 25 H 4.310353 -4.814492 2.258743 0
M  V30 26 H 1.095310 -4.263546 -0.509928 0
M  V30 27 H 1.329387 -0.188398 0.779890 0
M  V30 28 H 1.558894 1.833636 0.693749 0
M  V30 29 H 1.750247 4.284286 0.564599 0
M  V30 30 H -0.195871 5.646158 -0.086624 0
M  V30 31 H -2.306646 4.539638 -0.599834 0
M  V30 32 H -3.430170 1.887397 0.208126 0
M  V30 33 H -3.968308 -2.168728 -1.195368 0
M  V30 34 H -4.063871 -2.550117 0.170083 0
M  V30 END ATOM
M  V30 BEGIN BOND
M  V30 1 3 1 2
M  V30 2 1 2 3
M  V30 3 2 3 4
M  V30 4 1 4 5
M  V30 5 2 5 6
M  V30 6 1 6 7
M  V30 7 2 7 8
M  V30 8 1 8 9
M  V30 9 2 9 10
M  V30 10 1 4 11
M  V30 11 2 11 12
M  V30 12 1 12 13
M  V30 13 2 13 14
M  V30 14 1 14 15
M  V30 15 2 15 16
M  V30 16 1 16 17
M  V30 17 2 17 18
M  V30 18 1 18 19
M  V30 19 1 12 20
M  V30 20 2 20 21
M  V30 21 1 21 22
M  V30 22 1 21 3
M  V30 23 1 10 5
M  V30 24 1 18 13
M  V30 25 1 6 23
M  V30 26 1 7 24
M  V30 27 1 8 25
M  V30 28 1 10 26
M  V30 29 1 11 27
M  V30 30 1 14 28
M  V30 31 1 15 29
M  V30 32 1 16 30
M  V30 33 1 17 31
M  V30 34 1 19 32
M  V30 35 1 22 33
M  V30 36 1 22 34
M  V30 END BOND
M  V30 END CTAB
M  END
>  <Dataset>  (14) 
ChEMBL_Kinases

>  <Ligand_Instance>  (14) 
nan

>  <PDB_ID>  (14) 
nan

>  <Standardized_SMILES>  (14) 
N#Cc1c(-c2cccnc2)cc(-c2ccccc2O)nc1N

>  <Name>  (14) 
nan

>  <Pocket>  (14) 
nan

>  <ATP_Site>  (14) 
nan

>  <Peripheral>  (14) 
nan

>  <Num_H_Atoms_ProtBoundConf>  (14) 
nan

>  <Num_Resolved_Atoms>  (14) 
nan

>  <Num_Not_Resolved_Atoms>  (14) 
nan

$$$$
CHEMBL181927
     RDKit          3D

  0  0  0  0  0  0  0  0  0  0999 V3000
M  V30 BEGIN CTAB
M  V30 COUNTS 66 71 0 0 0
M  V30 BEGIN ATOM
M  V30 1 C 5.710968 -2.127653 5.146937 0
M  V30 2 C 4.683745 -1.457988 4.306747 0
M  V30 3 C 3.358995 -1.846251 4.457321 0
M  V30 4 C 2.301343 -1.297432 3.730866 0
M  V30 5 C 2.639133 -0.309029 2.815785 0
M  V30 6 N 1.897824 0.423281 1.964178 0
M  V30 7 C 2.662346 1.276108 1.257560 0
M  V30 8 C 2.175510 2.249597 0.213509 0
M  V30 9 C 1.563064 1.448927 -0.875427 0
M  V30 10 C 0.489470 2.209500 -1.666315 0
M  V30 11 N -0.369126 2.759440 -0.689345 0
M  V30 12 C -1.749631 2.840628 -0.942637 0
M  V30 13 C -2.290162 1.477055 -1.169820 0
M  V30 14 C -2.690281 0.729085 -0.055022 0
M  V30 15 C -3.205879 -0.539948 -0.216593 0
M  V30 16 C -3.332117 -1.079241 -1.454903 0
M  V30 17 C -3.885365 -2.419241 -1.504900 0
M  V30 18 N -5.056643 -2.662755 -2.134166 0
M  V30 19 C -5.612893 -3.884030 -2.208744 0
M  V30 20 C -4.910248 -4.914819 -1.592542 0
M  V30 21 C -5.446640 -6.263998 -1.629924 0
M  V30 22 N -5.892200 -7.347303 -1.660528 0
M  V30 23 C -3.701251 -4.768913 -0.921712 0
M  V30 24 C -3.223476 -3.472207 -0.907869 0
M  V30 25 C -1.963363 -3.196889 -0.234753 0
M  V30 26 C -0.993867 -2.737384 -1.132596 0
M  V30 27 C 0.289413 -2.414794 -0.677788 0
M  V30 28 C 0.555165 -2.565953 0.670087 0
M  V30 29 C -0.391457 -3.017411 1.562922 0
M  V30 30 C -1.646718 -3.331621 1.110292 0
M  V30 31 C -2.947991 -0.375122 -2.600482 0
M  V30 32 C -2.444738 0.874688 -2.385035 0
M  V30 33 C 0.216993 3.815232 0.052401 0
M  V30 34 C 1.278860 3.200740 0.932218 0
M  V30 35 N 3.924026 1.072839 1.678898 0
M  V30 36 C 3.938947 0.108306 2.632181 0
M  V30 37 C 4.941815 -0.472304 3.380306 0
M  V30 38 H 5.448193 -3.221048 5.209213 0
M  V30 39 H 6.729318 -1.944820 4.803760 0
M  V30 40 H 5.651681 -1.784604 6.212214 0
M  V30 41 H 3.135451 -2.633485 5.193358 0
M  V30 42 H 1.292637 -1.635913 3.887132 0
M  V30 43 H 0.854618 0.304264 1.898304 0
M  V30 44 H 3.055717 2.798647 -0.195788 0
M  V30 45 H 0.994078 0.584282 -0.425442 0
M  V30 46 H 2.329896 1.054834 -1.540007 0
M  V30 47 H 1.057952 2.983922 -2.248749 0
M  V30 48 H 0.010775 1.501164 -2.336440 0
M  V30 49 H -2.250640 3.229506 -0.012663 0
M  V30 50 H -2.026505 3.534214 -1.769213 0
M  V30 51 H -2.575265 1.192673 0.928152 0
M  V30 52 H -3.480200 -1.020762 0.721895 0
M  V30 53 H -6.548983 -4.084177 -2.710498 0
M  V30 54 H -3.212148 -5.611289 -0.467439 0
M  V30 55 H -1.128716 -2.595073 -2.196865 0
M  V30 56 H 1.060250 -2.052177 -1.374787 0
M  V30 57 H 1.554410 -2.313777 1.022586 0
M  V30 58 H -0.187722 -3.137055 2.618148 0
M  V30 59 H -2.466758 -3.691985 1.706570 0
M  V30 60 H -3.061465 -0.832775 -3.572410 0
M  V30 61 H -2.156388 1.414967 -3.276717 0
M  V30 62 H 0.588564 4.675146 -0.515523 0
M  V30 63 H -0.563157 4.219612 0.741862 0
M  V30 64 H 1.872795 4.002501 1.373541 0
M  V30 65 H 0.753392 2.664973 1.743093 0
M  V30 66 H 5.951434 -0.159204 3.248846 0
M  V30 END ATOM
M  V30 BEGIN BOND
M  V30 1 1 1 2
M  V30 2 2 2 3
M  V30 3 1 3 4
M  V30 4 2 4 5
M  V30 5 1 5 6
M  V30 6 1 6 7
M  V30 7 1 7 8
M  V30 8 1 8 9
M  V30 9 1 9 10
M  V30 10 1 10 11
M  V30 11 1 11 12
M  V30 12 1 12 13
M  V30 13 2 13 14
M  V30 14 1 14 15
M  V30 15 2 15 16
M  V30 16 1 16 17
M  V30 17 2 17 18
M  V30 18 1 18 19
M  V30 19 2 19 20
M  V30 20 1 20 21
M  V30 21 3 21 22
M  V30 22 1 20 23
M  V30 23 2 23 24
M  V30 24 1 24 25
M  V30 25 2 25 26
M  V30 26 1 26 27
M  V30 27 2 27 28
M  V30 28 1 28 29
M  V30 29 2 29 30
M  V30 30 1 16 31
M  V30 31 2 31 32
M  V30 32 1 11 33
M  V30 33 1 33 34
M  V30 34 2 7 35
M  V30 35 1 35 36
M  V30 36 2 36 37
M  V30 37 1 37 2
M  V30 38 1 36 5
M  V30 39 1 34 8
M  V30 40 1 32 13
M  V30 41 1 24 17
M  V30 42 1 30 25
M  V30 43 1 1 38
M  V30 44 1 1 39
M  V30 45 1 1 40
M  V30 46 1 3 41
M  V30 47 1 4 42
M  V30 48 1 6 43
M  V30 49 1 8 44
M  V30 50 1 9 45
M  V30 51 1 9 46
M  V30 52 1 10 47
M  V30 53 1 10 48
M  V30 54 1 12 49
M  V30 55 1 12 50
M  V30 56 1 14 51
M  V30 57 1 15 52
M  V30 58 1 19 53
M  V30 59 1 23 54
M  V30 60 1 26 55
M  V30 61 1 27 56
M  V30 62 1 28 57
M  V30 63 1 29 58
M  V30 64 1 30 59
M  V30 65 1 31 60
M  V30 66 1 32 61
M  V30 67 1 33 62
M  V30 68 1 33 63
M  V30 69 1 34 64
M  V30 70 1 34 65
M  V30 71 1 37 66
M  V30 END BOND
M  V30 END CTAB
M  END
>  <Dataset>  (15) 
ChEMBL_Kinases

>  <Ligand_Instance>  (15) 
nan

>  <PDB_ID>  (15) 
nan

>  <Standardized_SMILES>  (15) 
Cc1ccc2[nH]c(C3CCN(Cc4ccc(-c5ncc(C#N)cc5-c5ccccc5)cc4)CC3)nc2c1

>  <Name>  (15) 
nan

>  <Pocket>  (15) 
nan

>  <ATP_Site>  (15) 
nan

>  <Peripheral>  (15) 
nan

>  <Num_H_Atoms_ProtBoundConf>  (15) 
nan

>  <Num_Resolved_Atoms>  (15) 
nan

>  <Num_Not_Resolved_Atoms>  (15) 
nan

$$$$
CHEMBL181958
     RDKit          3D

  0  0  0  0  0  0  0  0  0  0999 V3000
M  V30 BEGIN CTAB
M  V30 COUNTS 33 36 0 0 0
M  V30 BEGIN ATOM
M  V30 1 N 0.663555 -4.126811 4.192110 0
M  V30 2 C 0.539189 -3.021333 3.300981 0
M  V30 3 N 0.860568 -2.830380 2.136126 0
M  V30 4 C 0.609090 -1.658877 1.543892 0
M  V30 5 C 1.058746 -1.573673 0.136258 0
M  V30 6 C 0.594560 -2.387342 -0.883100 0
M  V30 7 C 1.088399 -2.218213 -2.165793 0
M  V30 8 C 2.037763 -1.240969 -2.415062 0
M  V30 9 C 2.473371 -0.449201 -1.363118 0
M  V30 10 N 1.977240 -0.634467 -0.127105 0
M  V30 11 C -0.061867 -0.616148 2.334396 0
M  V30 12 C -0.320069 0.660328 1.634947 0
M  V30 13 C 0.433523 1.695919 2.155399 0
M  V30 14 C 0.254259 2.947595 1.552872 0
M  V30 15 N -0.596944 3.150294 0.526587 0
M  V30 16 C -1.323383 2.100529 0.041622 0
M  V30 17 N -2.186676 2.271110 -0.984847 0
M  V30 18 C -2.877227 1.192745 -1.416943 0
M  V30 19 C -2.771228 -0.089911 -0.886732 0
M  V30 20 C -1.893351 -0.272747 0.160303 0
M  V30 21 C -1.197644 0.837391 0.587325 0
M  V30 22 S -0.279428 -1.391883 3.859232 0
M  V30 23 H 1.407533 -4.139037 4.914725 0
M  V30 24 H 0.076847 -4.974458 4.220719 0
M  V30 25 H -0.149806 -3.119420 -0.570744 0
M  V30 26 H 0.662966 -2.900419 -2.887553 0
M  V30 27 H 2.379490 -1.168012 -3.448278 0
M  V30 28 H 3.215410 0.281921 -1.671035 0
M  V30 29 H 1.137636 1.610852 2.977225 0
M  V30 30 H 0.806436 3.806538 1.903094 0
M  V30 31 H -3.541614 1.426941 -2.240120 0
M  V30 32 H -3.366671 -0.900019 -1.298203 0
M  V30 33 H -1.769694 -1.250913 0.615926 0
M  V30 END ATOM
M  V30 BEGIN BOND
M  V30 1 1 1 2
M  V30 2 2 2 3
M  V30 3 1 3 4
M  V30 4 1 4 5
M  V30 5 2 5 6
M  V30 6 1 6 7
M  V30 7 2 7 8
M  V30 8 1 8 9
M  V30 9 2 9 10
M  V30 10 2 4 11
M  V30 11 1 11 12
M  V30 12 2 12 13
M  V30 13 1 13 14
M  V30 14 2 14 15
M  V30 15 1 15 16
M  V30 16 2 16 17
M  V30 17 1 17 18
M  V30 18 2 18 19
M  V30 19 1 19 20
M  V30 20 2 20 21
M  V30 21 1 11 22
M  V30 22 1 22 2
M  V30 23 1 10 5
M  V30 24 1 21 12
M  V30 25 1 21 16
M  V30 26 1 1 23
M  V30 27 1 1 24
M  V30 28 1 6 25
M  V30 29 1 7 26
M  V30 30 1 8 27
M  V30 31 1 9 28
M  V30 32 1 13 29
M  V30 33 1 14 30
M  V30 34 1 18 31
M  V30 35 1 19 32
M  V30 36 1 20 33
M  V30 END BOND
M  V30 END CTAB
M  END
>  <Dataset>  (16) 
ChEMBL_Kinases

>  <Ligand_Instance>  (16) 
nan

>  <PDB_ID>  (16) 
nan

>  <Standardized_SMILES>  (16) 
Nc1nc(-c2ccccn2)c(-c2ccnc3ncccc23)s1

>  <Name>  (16) 
nan

>  <Pocket>  (16) 
nan

>  <ATP_Site>  (16) 
nan

>  <Peripheral>  (16) 
nan

>  <Num_H_Atoms_ProtBoundConf>  (16) 
nan

>  <Num_Resolved_Atoms>  (16) 
nan

>  <Num_Not_Resolved_Atoms>  (16) 
nan

$$$$
CHEMBL181959
     RDKit          3D

  0  0  0  0  0  0  0  0  0  0999 V3000
M  V30 BEGIN CTAB
M  V30 COUNTS 44 47 0 0 0
M  V30 BEGIN ATOM
M  V30 1 C -0.368695 -6.897067 3.430984 0
M  V30 2 O -1.499505 -6.573305 2.626719 0
M  V30 3 C -1.478047 -5.362876 1.945584 0
M  V30 4 C -0.417846 -4.476635 2.018582 0
M  V30 5 C -0.410805 -3.277705 1.336132 0
M  V30 6 C -1.505426 -2.938629 0.542884 0
M  V30 7 C -1.561789 -1.687769 -0.204028 0
M  V30 8 C -0.536664 -0.741897 -0.184388 0
M  V30 9 C -0.960393 0.290887 -1.007540 0
M  V30 10 C -0.418569 1.500417 -1.403377 0
M  V30 11 N 0.884264 1.844923 -0.887485 0
M  V30 12 C 0.744447 2.558771 0.330905 0
M  V30 13 O -0.458146 2.748973 0.716847 0
M  V30 14 C 1.892191 3.061513 1.123422 0
M  V30 15 C 2.807052 1.940350 1.569034 0
M  V30 16 C 4.082338 2.637193 1.984806 0
M  V30 17 C 4.090191 3.901711 1.164829 0
M  V30 18 C 2.832082 3.928378 0.340711 0
M  V30 19 N -1.095725 2.309284 -2.237063 0
M  V30 20 C -2.326394 1.946049 -2.702739 0
M  V30 21 N -2.863862 0.753241 -2.314092 0
M  V30 22 C -2.209423 -0.073081 -1.482848 0
M  V30 23 O -2.525341 -1.262841 -0.974683 0
M  V30 24 C -2.568210 -3.829343 0.471034 0
M  V30 25 C -2.585652 -5.047741 1.158936 0
M  V30 26 H 0.578253 -6.828250 2.819469 0
M  V30 27 H -0.221974 -6.180460 4.266411 0
M  V30 28 H -0.405975 -7.959062 3.763637 0
M  V30 29 H 0.436397 -4.718958 2.624878 0
M  V30 30 H 0.419037 -2.585781 1.394279 0
M  V30 31 H 0.399838 -0.750305 0.333027 0
M  V30 32 H 1.862654 1.665955 -1.242582 0
M  V30 33 H 1.503911 3.575531 2.010870 0
M  V30 34 H 2.991795 1.230945 0.729374 0
M  V30 35 H 2.390744 1.339109 2.401741 0
M  V30 36 H 4.946136 1.974264 1.805914 0
M  V30 37 H 4.037551 2.846987 3.091405 0
M  V30 38 H 4.118291 4.757980 1.870242 0
M  V30 39 H 5.022277 3.968121 0.552690 0
M  V30 40 H 2.431197 4.941915 0.176950 0
M  V30 41 H 3.047951 3.428356 -0.622532 0
M  V30 42 H -2.829305 2.638966 -3.374676 0
M  V30 43 H -3.426121 -3.590304 -0.135379 0
M  V30 44 H -3.446843 -5.678630 1.048702 0
M  V30 END ATOM
M  V30 BEGIN BOND
M  V30 1 1 1 2
M  V30 2 1 2 3
M  V30 3 2 3 4
M  V30 4 1 4 5
M  V30 5 2 5 6
M  V30 6 1 6 7
M  V30 7 2 7 8
M  V30 8 1 8 9
M  V30 9 2 9 10
M  V30 10 1 10 11
M  V30 11 1 11 12
M  V30 12 2 12 13
M  V30 13 1 12 14
M  V30 14 1 14 15
M  V30 15 1 15 16
M  V30 16 1 16 17
M  V30 17 1 17 18
M  V30 18 1 10 19
M  V30 19 2 19 20
M  V30 20 1 20 21
M  V30 21 2 21 22
M  V30 22 1 22 23
M  V30 23 1 6 24
M  V30 24 2 24 25
M  V30 25 1 25 3
M  V30 26 1 23 7
M  V30 27 1 22 9
M  V30 28 1 18 14
M  V30 29 1 1 26
M  V30 30 1 1 27
M  V30 31 1 1 28
M  V30 32 1 4 29
M  V30 33 1 5 30
M  V30 34 1 8 31
M  V30 35 1 11 32
M  V30 36 1 14 33
M  V30 37 1 15 34
M  V30 38 1 15 35
M  V30 39 1 16 36
M  V30 40 1 16 37
M  V30 41 1 17 38
M  V30 42 1 17 39
M  V30 43 1 18 40
M  V30 44 1 18 41
M  V30 45 1 20 42
M  V30 46 1 24 43
M  V30 47 1 25 44
M  V30 END BOND
M  V30 END CTAB
M  END
>  <Dataset>  (17) 
ChEMBL_Kinases

>  <Ligand_Instance>  (17) 
nan

>  <PDB_ID>  (17) 
nan

>  <Standardized_SMILES>  (17) 
COc1ccc(-c2cc3c(NC(=O)C4CCCC4)ncnc3o2)cc1

>  <Name>  (17) 
nan

>  <Pocket>  (17) 
nan

>  <ATP_Site>  (17) 
nan

>  <Peripheral>  (17) 
nan

>  <Num_H_Atoms_ProtBoundConf>  (17) 
nan

>  <Num_Resolved_Atoms>  (17) 
nan

>  <Num_Not_Resolved_Atoms>  (17) 
nan

$$$$
CHEMBL182007
     RDKit          3D

  0  0  0  0  0  0  0  0  0  0999 V3000
M  V30 BEGIN CTAB
M  V30 COUNTS 43 46 0 0 0
M  V30 BEGIN ATOM
M  V30 1 C 2.221083 -5.881338 4.176312 0
M  V30 2 C 1.470395 -4.927766 3.318911 0
M  V30 3 C 0.445835 -5.468925 2.562960 0
M  V30 4 C -0.339846 -4.683704 1.713425 0
M  V30 5 C -0.058044 -3.334596 1.651499 0
M  V30 6 C -0.842345 -2.462356 0.783574 0
M  V30 7 C -0.660246 -1.103079 0.634042 0
M  V30 8 C -1.625496 -0.719146 -0.279133 0
M  V30 9 C -1.947827 0.522816 -0.834403 0
M  V30 10 N -1.176284 1.647013 -0.426113 0
M  V30 11 C 0.005598 2.088006 -1.064840 0
M  V30 12 O 0.316138 1.376600 -2.049051 0
M  V30 13 C 0.570724 3.294612 -0.387634 0
M  V30 14 C 1.815958 3.789926 -1.030856 0
M  V30 15 C 2.940746 3.307543 -0.180293 0
M  V30 16 C 2.363671 3.156394 1.209735 0
M  V30 17 C 0.884716 2.912384 1.024241 0
M  V30 18 N -2.965715 0.568538 -1.716647 0
M  V30 19 C -3.655529 -0.536236 -2.059257 0
M  V30 20 N -3.359276 -1.759506 -1.530524 0
M  V30 21 C -2.347603 -1.840541 -0.645665 0
M  V30 22 O -1.837750 -2.859478 0.020126 0
M  V30 23 C 0.968474 -2.816424 2.414297 0
M  V30 24 C 1.753835 -3.577118 3.258044 0
M  V30 25 H 1.601014 -6.265175 5.011024 0
M  V30 26 H 2.568831 -6.762808 3.593731 0
M  V30 27 H 3.113638 -5.397476 4.643421 0
M  V30 28 H 0.217421 -6.520689 2.603764 0
M  V30 29 H -1.140969 -5.040098 1.107323 0
M  V30 30 H 0.071103 -0.496316 1.124162 0
M  V30 31 H -1.686184 2.029023 0.414166 0
M  V30 32 H -0.226256 4.078435 -0.437103 0
M  V30 33 H 1.910770 3.511775 -2.098062 0
M  V30 34 H 1.802899 4.907234 -1.003069 0
M  V30 35 H 3.760090 4.075649 -0.067200 0
M  V30 36 H 3.372609 2.381689 -0.560493 0
M  V30 37 H 2.818557 2.274914 1.683123 0
M  V30 38 H 2.537866 4.039774 1.841835 0
M  V30 39 H 0.318111 3.539981 1.746027 0
M  V30 40 H 0.648431 1.846910 1.243198 0
M  V30 41 H -4.443098 -0.341968 -2.777598 0
M  V30 42 H 1.231019 -1.749220 2.399248 0
M  V30 43 H 2.557903 -3.184632 3.858543 0
M  V30 END ATOM
M  V30 BEGIN BOND
M  V30 1 1 1 2
M  V30 2 2 2 3
M  V30 3 1 3 4
M  V30 4 2 4 5
M  V30 5 1 5 6
M  V30 6 2 6 7
M  V30 7 1 7 8
M  V30 8 2 8 9
M  V30 9 1 9 10
M  V30 10 1 10 11
M  V30 11 2 11 12
M  V30 12 1 11 13
M  V30 13 1 13 14
M  V30 14 1 14 15
M  V30 15 1 15 16
M  V30 16 1 16 17
M  V30 17 1 9 18
M  V30 18 2 18 19
M  V30 19 1 19 20
M  V30 20 2 20 21
M  V30 21 1 21 22
M  V30 22 1 5 23
M  V30 23 2 23 24
M  V30 24 1 24 2
M  V30 25 1 22 6
M  V30 26 1 21 8
M  V30 27 1 17 13
M  V30 28 1 1 25
M  V30 29 1 1 26
M  V30 30 1 1 27
M  V30 31 1 3 28
M  V30 32 1 4 29
M  V30 33 1 7 30
M  V30 34 1 10 31
M  V30 35 1 13 32
M  V30 36 1 14 33
M  V30 37 1 14 34
M  V30 38 1 15 35
M  V30 39 1 15 36
M  V30 40 1 16 37
M  V30 41 1 16 38
M  V30 42 1 17 39
M  V30 43 1 17 40
M  V30 44 1 19 41
M  V30 45 1 23 42
M  V30 46 1 24 43
M  V30 END BOND
M  V30 END CTAB
M  END
>  <Dataset>  (18) 
ChEMBL_Kinases

>  <Ligand_Instance>  (18) 
nan

>  <PDB_ID>  (18) 
nan

>  <Standardized_SMILES>  (18) 
Cc1ccc(-c2cc3c(NC(=O)C4CCCC4)ncnc3o2)cc1

>  <Name>  (18) 
nan

>  <Pocket>  (18) 
nan

>  <ATP_Site>  (18) 
nan

>  <Peripheral>  (18) 
nan

>  <Num_H_Atoms_ProtBoundConf>  (18) 
nan

>  <Num_Resolved_Atoms>  (18) 
nan

>  <Num_Not_Resolved_Atoms>  (18) 
nan

$$$$
CHEMBL182012
     RDKit          3D

  0  0  0  0  0  0  0  0  0  0999 V3000
M  V30 BEGIN CTAB
M  V30 COUNTS 46 48 0 0 0
M  V30 BEGIN ATOM
M  V30 1 N 2.433821 -4.824644 2.226658 0
M  V30 2 C 1.567488 -4.108560 1.952162 0
M  V30 3 C 0.498325 -3.206859 1.632081 0
M  V30 4 C 0.634972 -1.813230 1.653157 0
M  V30 5 C 1.950111 -1.308622 2.043457 0
M  V30 6 N 1.765986 0.030969 2.577452 0
M  V30 7 C 3.045796 -1.423532 1.073778 0
M  V30 8 C 2.970552 -0.767133 -0.241579 0
M  V30 9 C 2.849806 0.709641 -0.240076 0
M  V30 10 C 4.040765 1.450521 -0.151344 0
M  V30 11 C 4.147696 2.805154 -0.148828 0
M  V30 12 C 2.987729 3.544909 -0.241434 0
M  V30 13 C 1.790729 2.879897 -0.331244 0
M  V30 14 C 1.726389 1.504197 -0.330660 0
M  V30 15 C -0.477078 -1.083220 1.323885 0
M  V30 16 C -1.706922 -1.568832 0.975713 0
M  V30 17 C -2.888438 -0.810927 0.625796 0
M  V30 18 C -4.031857 -1.531936 0.309286 0
M  V30 19 C -5.216071 -0.941275 -0.039125 0
M  V30 20 C -5.337441 0.429724 -0.095032 0
M  V30 21 C -4.228375 1.183379 0.211121 0
M  V30 22 C -3.064917 0.536182 0.554453 0
M  V30 23 O -1.994568 1.355264 0.848444 0
M  V30 24 N -1.783870 -2.907795 0.970799 0
M  V30 25 C -0.742191 -3.696624 1.281172 0
M  V30 26 N -0.951219 -5.104014 1.239395 0
M  V30 27 H 2.251701 -1.917370 2.950357 0
M  V30 28 H 2.701476 0.397304 2.870654 0
M  V30 29 H 1.191182 -0.055664 3.425953 0
M  V30 30 H 3.257244 -2.506276 0.891624 0
M  V30 31 H 4.011170 -1.063433 1.555086 0
M  V30 32 H 3.954800 -0.997661 -0.755522 0
M  V30 33 H 2.234625 -1.230929 -0.943471 0
M  V30 34 H 4.980268 0.910154 -0.076584 0
M  V30 35 H 5.094631 3.305742 -0.077904 0
M  V30 36 H 2.952949 4.624935 -0.248473 0
M  V30 37 H 0.849674 3.420367 -0.406149 0
M  V30 38 H 0.809829 0.956635 -0.411208 0
M  V30 39 H -0.329307 -0.022294 1.368068 0
M  V30 40 H -4.065074 -2.632304 0.316724 0
M  V30 41 H -6.093681 -1.512368 -0.281771 0
M  V30 42 H -6.254462 0.930670 -0.365496 0
M  V30 43 H -4.299038 2.247562 0.174468 0
M  V30 44 H -2.159669 2.112136 1.496809 0
M  V30 45 H -0.812310 -5.925226 0.583344 0
M  V30 46 H -1.374929 -5.421086 2.141907 0
M  V30 END ATOM
M  V30 BEGIN BOND
M  V30 1 3 1 2
M  V30 2 1 2 3
M  V30 3 2 3 4
M  V30 4 1 4 5
M  V30 5 1 5 6
M  V30 6 1 5 7
M  V30 7 1 7 8
M  V30 8 1 8 9
M  V30 9 2 9 10
M  V30 10 1 10 11
M  V30 11 2 11 12
M  V30 12 1 12 13
M  V30 13 2 13 14
M  V30 14 1 4 15
M  V30 15 2 15 16
M  V30 16 1 16 17
M  V30 17 2 17 18
M  V30 18 1 18 19
M  V30 19 2 19 20
M  V30 20 1 20 21
M  V30 21 2 21 22
M  V30 22 1 22 23
M  V30 23 1 16 24
M  V30 24 2 24 25
M  V30 25 1 25 26
M  V30 26 1 25 3
M  V30 27 1 14 9
M  V30 28 1 22 17
M  V30 29 1 5 27
M  V30 30 1 6 28
M  V30 31 1 6 29
M  V30 32 1 7 30
M  V30 33 1 7 31
M  V30 34 1 8 32
M  V30 35 1 8 33
M  V30 36 1 10 34
M  V30 37 1 11 35
M  V30 38 1 12 36
M  V30 39 1 13 37
M  V30 40 1 14 38
M  V30 41 1 15 39
M  V30 42 1 18 40
M  V30 43 1 19 41
M  V30 44 1 20 42
M  V30 45 1 21 43
M  V30 46 1 23 44
M  V30 47 1 26 45
M  V30 48 1 26 46
M  V30 END BOND
M  V30 END CTAB
M  END
>  <Dataset>  (19) 
ChEMBL_Kinases

>  <Ligand_Instance>  (19) 
nan

>  <PDB_ID>  (19) 
nan

>  <Standardized_SMILES>  (19) 
N#Cc1c(C(N)CCc2ccccc2)cc(-c2ccccc2O)nc1N

>  <Name>  (19) 
nan

>  <Pocket>  (19) 
nan

>  <ATP_Site>  (19) 
nan

>  <Peripheral>  (19) 
nan

>  <Num_H_Atoms_ProtBoundConf>  (19) 
nan

>  <Num_Resolved_Atoms>  (19) 
nan

>  <Num_Not_Resolved_Atoms>  (19) 
nan

$$$$
CHEMBL181730
     RDKit          3D

  0  0  0  0  0  0  0  0  0  0999 V3000
M  V30 BEGIN CTAB
M  V30 COUNTS 67 73 0 0 0
M  V30 BEGIN ATOM
M  V30 1 F 5.074213 -4.044161 4.600347 0
M  V30 2 C 4.942694 -2.935444 3.843054 0
M  V30 3 C 6.029732 -2.243884 3.346473 0
M  V30 4 C 5.981733 -1.105292 2.566998 0
M  V30 5 C 4.738737 -0.602911 2.248348 0
M  V30 6 N 4.299331 0.455851 1.531500 0
M  V30 7 C 2.934096 0.479567 1.543541 0
M  V30 8 C 1.984944 1.437752 0.911205 0
M  V30 9 C 2.130556 2.794601 1.615950 0
M  V30 10 C 0.907637 3.570089 1.140772 0
M  V30 11 N 0.838183 3.704665 -0.247971 0
M  V30 12 C -0.485133 3.711179 -0.781398 0
M  V30 13 C -1.280470 2.484971 -0.576278 0
M  V30 14 C -2.117044 2.149622 0.438984 0
M  V30 15 C -2.816881 0.963304 0.510140 0
M  V30 16 C -2.688398 0.010495 -0.510268 0
M  V30 17 C -3.497759 -1.177627 -0.275782 0
M  V30 18 N -4.820305 -1.052802 -0.052258 0
M  V30 19 C -5.636640 -2.093221 0.180847 0
M  V30 20 C -5.124352 -3.381001 0.200000 0
M  V30 21 C -5.849751 -4.627929 0.434837 0
M  V30 22 N -6.803530 -5.353270 -0.177213 0
M  V30 23 N -7.068767 -6.433609 0.537340 0
M  V30 24 N -6.304534 -6.438003 1.617318 0
M  V30 25 N -5.572504 -5.341269 1.543123 0
M  V30 26 C -3.748841 -3.493856 -0.034069 0
M  V30 27 C -2.897036 -2.418820 -0.276616 0
M  V30 28 C -1.480334 -2.653610 -0.518880 0
M  V30 29 C -1.354941 -3.460232 -1.656012 0
M  V30 30 C -0.093003 -3.847846 -2.124357 0
M  V30 31 C 1.037882 -3.428259 -1.455383 0
M  V30 32 C 0.890851 -2.634618 -0.338341 0
M  V30 33 C -0.339277 -2.242392 0.138620 0
M  V30 34 C -1.845473 0.325413 -1.553263 0
M  V30 35 C -1.163222 1.522511 -1.586730 0
M  V30 36 C 1.753013 2.967217 -1.038408 0
M  V30 37 C 2.268669 1.682982 -0.522339 0
M  V30 38 N 2.556291 -0.576090 2.275280 0
M  V30 39 C 3.606364 -1.265990 2.726331 0
M  V30 40 C 3.718666 -2.402668 3.503213 0
M  V30 41 H 7.021023 -2.631748 3.591641 0
M  V30 42 H 6.846730 -0.596640 2.200092 0
M  V30 43 H 4.863114 1.155314 1.040578 0
M  V30 44 H 0.930942 1.142977 1.060303 0
M  V30 45 H 3.058029 3.266106 1.288425 0
M  V30 46 H 2.059812 2.644532 2.690961 0
M  V30 47 H 0.057285 3.105600 1.668486 0
M  V30 48 H 1.031508 4.581141 1.582823 0
M  V30 49 H -0.425029 3.941628 -1.890010 0
M  V30 50 H -1.038171 4.592288 -0.372694 0
M  V30 51 H -2.229623 2.883476 1.224117 0
M  V30 52 H -3.452054 0.829028 1.385126 0
M  V30 53 H -6.693451 -2.040830 0.363319 0
M  V30 54 H -6.172446 -7.082206 2.451861 0
M  V30 55 H -3.289425 -4.469157 -0.032180 0
M  V30 56 H -2.127426 -3.872748 -2.291632 0
M  V30 57 H 0.085699 -4.465694 -2.989262 0
M  V30 58 H 2.025857 -3.703844 -1.782537 0
M  V30 59 H 1.732838 -2.273768 0.229032 0
M  V30 60 H -0.594494 -1.630544 0.989789 0
M  V30 61 H -1.809634 -0.465343 -2.288938 0
M  V30 62 H -0.558588 1.560789 -2.500606 0
M  V30 63 H 1.406471 2.825934 -2.087065 0
M  V30 64 H 2.649781 3.653857 -1.172552 0
M  V30 65 H 1.777594 0.837423 -1.094915 0
M  V30 66 H 3.358306 1.589106 -0.739165 0
M  V30 67 H 2.790717 -2.882303 3.851122 0
M  V30 END ATOM
M  V30 BEGIN BOND
M  V30 1 1 1 2
M  V30 2 2 2 3
M  V30 3 1 3 4
M  V30 4 2 4 5
M  V30 5 1 5 6
M  V30 6 1 6 7
M  V30 7 1 7 8
M  V30 8 1 8 9
M  V30 9 1 9 10
M  V30 10 1 10 11
M  V30 11 1 11 12
M  V30 12 1 12 13
M  V30 13 2 13 14
M  V30 14 1 14 15
M  V30 15 2 15 16
M  V30 16 1 16 17
M  V30 17 2 17 18
M  V30 18 1 18 19
M  V30 19 2 19 20
M  V30 20 1 20 21
M  V30 21 1 21 22
M  V30 22 2 22 23
M  V30 23 1 23 24
M  V30 24 1 24 25
M  V30 25 1 20 26
M  V30 26 2 26 27
M  V30 27 1 27 28
M  V30 28 2 28 29
M  V30 29 1 29 30
M  V30 30 2 30 31
M  V30 31 1 31 32
M  V30 32 2 32 33
M  V30 33 1 16 34
M  V30 34 2 34 35
M  V30 35 1 11 36
M  V30 36 1 36 37
M  V30 37 2 7 38
M  V30 38 1 38 39
M  V30 39 2 39 40
M  V30 40 1 40 2
M  V30 41 1 39 5
M  V30 42 1 37 8
M  V30 43 1 35 13
M  V30 44 1 27 17
M  V30 45 1 33 28
M  V30 46 2 25 21
M  V30 47 1 3 41
M  V30 48 1 4 42
M  V30 49 1 6 43
M  V30 50 1 8 44
M  V30 51 1 9 45
M  V30 52 1 9 46
M  V30 53 1 10 47
M  V30 54 1 10 48
M  V30 55 1 12 49
M  V30 56 1 12 50
M  V30 57 1 14 51
M  V30 58 1 15 52
M  V30 59 1 19 53
M  V30 60 1 24 54
M  V30 61 1 26 55
M  V30 62 1 29 56
M  V30 63 1 30 57
M  V30 64 1 31 58
M  V30 65 1 32 59
M  V30 66 1 33 60
M  V30 67 1 34 61
M  V30 68 1 35 62
M  V30 69 1 36 63
M  V30 70 1 36 64
M  V30 71 1 37 65
M  V30 72 1 37 66
M  V30 73 1 40 67
M  V30 END BOND
M  V30 END CTAB
M  END
>  <Dataset>  (20) 
ChEMBL_Kinases

>  <Ligand_Instance>  (20) 
nan

>  <PDB_ID>  (20) 
nan

>  <Standardized_SMILES>  (20) 
Fc1ccc2[nH]c(C3CCN(Cc4ccc(-c5ncc(-c6nn[nH]n6)cc5-c5ccccc5)cc4)CC3)nc2c1

>  <Name>  (20) 
nan

>  <Pocket>  (20) 
nan

>  <ATP_Site>  (20) 
nan

>  <Peripheral>  (20) 
nan

>  <Num_H_Atoms_ProtBoundConf>  (20) 
nan

>  <Num_Resolved_Atoms>  (20) 
nan

>  <Num_Not_Resolved_Atoms>  (20) 
nan

$$$$
CHEMBL2312154
     RDKit          3D

  0  0  0  0  0  0  0  0  0  0999 V3000
M  V30 BEGIN CTAB
M  V30 COUNTS 61 64 0 0 0
M  V30 BEGIN ATOM
M  V30 1 C 2.583048 -2.001356 0.430461 0
M  V30 2 O 2.579974 -0.589290 0.510150 0
M  V30 3 C 2.998954 0.109217 1.638041 0
M  V30 4 C 3.443324 -0.619781 2.746044 0
M  V30 5 C 3.842645 0.124232 3.830124 0
M  V30 6 C 3.804307 1.518492 3.816610 0
M  V30 7 C 4.216516 2.316556 4.927210 0
M  V30 8 N 4.556365 2.942548 5.824158 0
M  V30 9 C 3.356840 2.201579 2.696414 0
M  V30 10 C 2.937664 1.493734 1.565320 0
M  V30 11 C 2.460087 2.178395 0.398644 0
M  V30 12 C 3.271748 2.671591 -0.606516 0
M  V30 13 C 2.705411 3.329721 -1.675502 0
M  V30 14 N 1.360370 3.539846 -1.828435 0
M  V30 15 C 0.493357 3.096104 -0.904322 0
M  V30 16 N -0.941477 3.198138 -0.823728 0
M  V30 17 C -1.541039 1.949172 -0.394234 0
M  V30 18 C -0.825708 0.777047 -0.708350 0
M  V30 19 C -1.251705 -0.506834 -0.334470 0
M  V30 20 C -2.434001 -0.559786 0.372059 0
M  V30 21 N -2.793652 -1.887815 0.747368 0
M  V30 22 C -3.967937 -2.712783 0.448723 0
M  V30 23 C -3.531168 -4.145936 0.516351 0
M  V30 24 C -2.163836 -4.360363 -0.089223 0
M  V30 25 N -1.984485 -3.717749 -1.364932 0
M  V30 26 C -2.964754 -4.129472 -2.345392 0
M  V30 27 C -0.659464 -4.122873 -1.837086 0
M  V30 28 C -1.185506 -3.730201 0.896418 0
M  V30 29 C -1.792587 -2.546433 1.596934 0
M  V30 30 C -3.164354 0.555942 0.698206 0
M  V30 31 F -4.307483 0.440643 1.380706 0
M  V30 32 C -2.712922 1.799862 0.312784 0
M  V30 33 C 1.112428 2.432882 0.167709 0
M  V30 34 H 2.031296 -2.490242 1.235480 0
M  V30 35 H 3.587341 -2.405615 0.313752 0
M  V30 36 H 2.026504 -2.253791 -0.518183 0
M  V30 37 H 3.482670 -1.689197 2.778219 0
M  V30 38 H 4.215245 -0.326049 4.759709 0
M  V30 39 H 3.308658 3.300939 2.651050 0
M  V30 40 H 4.341002 2.515876 -0.523676 0
M  V30 41 H 3.309612 3.734584 -2.487423 0
M  V30 42 H -1.517467 4.028602 -1.028513 0
M  V30 43 H 0.109715 0.799515 -1.278869 0
M  V30 44 H -0.621408 -1.346399 -0.634024 0
M  V30 45 H -4.681748 -2.485259 1.292135 0
M  V30 46 H -4.481529 -2.417013 -0.464848 0
M  V30 47 H -4.299319 -4.859361 0.154669 0
M  V30 48 H -3.403853 -4.370392 1.610097 0
M  V30 49 H -1.957015 -5.423619 -0.135649 0
M  V30 50 H -3.112921 -3.255470 -3.041296 0
M  V30 51 H -3.963900 -4.335238 -1.942710 0
M  V30 52 H -2.621185 -4.957806 -2.992476 0
M  V30 53 H -0.711463 -4.099430 -2.964695 0
M  V30 54 H -0.412119 -5.128122 -1.488490 0
M  V30 55 H 0.135876 -3.412929 -1.576595 0
M  V30 56 H -0.238141 -3.429449 0.438202 0
M  V30 57 H -0.913244 -4.467413 1.689493 0
M  V30 58 H -1.064433 -1.821507 1.976084 0
M  V30 59 H -2.352908 -2.891807 2.521972 0
M  V30 60 H -3.189128 2.736570 0.510310 0
M  V30 61 H 0.465087 2.044374 0.973460 0
M  V30 END ATOM
M  V30 BEGIN BOND
M  V30 1 1 1 2
M  V30 2 1 2 3
M  V30 3 2 3 4
M  V30 4 1 4 5
M  V30 5 2 5 6
M  V30 6 1 6 7
M  V30 7 3 7 8
M  V30 8 1 6 9
M  V30 9 2 9 10
M  V30 10 1 10 11
M  V30 11 2 11 12
M  V30 12 1 12 13
M  V30 13 2 13 14
M  V30 14 1 14 15
M  V30 15 1 15 16
M  V30 16 1 16 17
M  V30 17 2 17 18
M  V30 18 1 18 19
M  V30 19 2 19 20
M  V30 20 1 20 21
M  V30 21 1 21 22
M  V30 22 1 22 23
M  V30 23 1 23 24
M  V30 24 1 24 25
M  V30 25 1 25 26
M  V30 26 1 25 27
M  V30 27 1 24 28
M  V30 28 1 28 29
M  V30 29 1 20 30
M  V30 30 1 30 31
M  V30 31 2 30 32
M  V30 32 2 15 33
M  V30 33 1 10 3
M  V30 34 1 33 11
M  V30 35 1 32 17
M  V30 36 1 29 21
M  V30 37 1 1 34
M  V30 38 1 1 35
M  V30 39 1 1 36
M  V30 40 1 4 37
M  V30 41 1 5 38
M  V30 42 1 9 39
M  V30 43 1 12 40
M  V30 44 1 13 41
M  V30 45 1 16 42
M  V30 46 1 18 43
M  V30 47 1 19 44
M  V30 48 1 22 45
M  V30 49 1 22 46
M  V30 50 1 23 47
M  V30 51 1 23 48
M  V30 52 1 24 49
M  V30 53 1 26 50
M  V30 54 1 26 51
M  V30 55 1 26 52
M  V30 56 1 27 53
M  V30 57 1 27 54
M  V30 58 1 27 55
M  V30 59 1 28 56
M  V30 60 1 28 57
M  V30 61 1 29 58
M  V30 62 1 29 59
M  V30 63 1 32 60
M  V30 64 1 33 61
M  V30 END BOND
M  V30 END CTAB
M  END
>  <Dataset>  (21) 
ChEMBL_Kinases

>  <Ligand_Instance>  (21) 
nan

>  <PDB_ID>  (21) 
nan

>  <Standardized_SMILES>  (21) 
COc1ccc(C#N)cc1-c1ccnc(Nc2ccc(N3CCC(N(C)C)CC3)c(F)c2)c1

>  <Name>  (21) 
nan

>  <Pocket>  (21) 
nan

>  <ATP_Site>  (21) 
nan

>  <Peripheral>  (21) 
nan

>  <Num_H_Atoms_ProtBoundConf>  (21) 
nan

>  <Num_Resolved_Atoms>  (21) 
nan

>  <Num_Not_Resolved_Atoms>  (21) 
nan

$$$$
CHEMBL2312153
     RDKit          3D

  0  0  0  0  0  0  0  0  0  0999 V3000
M  V30 BEGIN CTAB
M  V30 COUNTS 55 58 0 0 0
M  V30 BEGIN ATOM
M  V30 1 C 2.982119 3.372507 5.608249 0
M  V30 2 O 3.691904 2.216674 5.221817 0
M  V30 3 C 3.677535 1.639056 3.984942 0
M  V30 4 C 4.461343 0.511407 3.861556 0
M  V30 5 C 4.551784 -0.182942 2.677855 0
M  V30 6 C 5.370982 -1.370485 2.549043 0
M  V30 7 N 6.019715 -2.320115 2.454931 0
M  V30 8 C 3.848214 0.232761 1.554459 0
M  V30 9 C 3.047974 1.371116 1.654645 0
M  V30 10 C 2.280648 1.864316 0.497490 0
M  V30 11 C 2.015306 3.217795 0.358207 0
M  V30 12 C 1.280647 3.642610 -0.753543 0
M  V30 13 N 0.821800 2.784376 -1.694748 0
M  V30 14 C 1.060936 1.472478 -1.590947 0
M  V30 15 N 0.710576 0.347235 -2.388577 0
M  V30 16 C -0.292631 -0.475247 -1.786071 0
M  V30 17 C -0.951988 -0.180846 -0.612399 0
M  V30 18 C -1.904190 -1.049883 -0.073043 0
M  V30 19 C -2.211435 -2.240928 -0.711033 0
M  V30 20 N -3.217740 -3.011720 -0.025220 0
M  V30 21 C -3.837368 -2.730350 1.256036 0
M  V30 22 C -5.253579 -2.261258 0.908424 0
M  V30 23 O -5.886358 -3.266205 0.192150 0
M  V30 24 C -5.169710 -4.430744 0.100230 0
M  V30 25 C -3.798521 -4.252904 -0.564702 0
M  V30 26 C -1.561890 -2.557925 -1.891112 0
M  V30 27 O -1.917913 -3.760734 -2.468510 0
M  V30 28 C -1.324094 -4.192159 -3.671311 0
M  V30 29 C -0.633129 -1.668139 -2.381357 0
M  V30 30 C 1.792403 1.001053 -0.493422 0
M  V30 31 C 2.980305 2.047172 2.862435 0
M  V30 32 H 3.291815 4.290189 5.073206 0
M  V30 33 H 3.066765 3.537039 6.698999 0
M  V30 34 H 1.910193 3.162322 5.376204 0
M  V30 35 H 5.053336 0.106787 4.694508 0
M  V30 36 H 3.890941 -0.290567 0.592255 0
M  V30 37 H 2.349032 3.943409 1.066858 0
M  V30 38 H 1.024107 4.680238 -0.948403 0
M  V30 39 H 1.096381 0.088980 -3.318236 0
M  V30 40 H -0.668930 0.777155 -0.150236 0
M  V30 41 H -2.295161 -0.623545 0.844079 0
M  V30 42 H -3.323255 -1.995634 1.875051 0
M  V30 43 H -3.889601 -3.665338 1.884735 0
M  V30 44 H -5.100895 -1.351798 0.264960 0
M  V30 45 H -5.830834 -1.947372 1.780188 0
M  V30 46 H -5.116813 -5.035631 1.022229 0
M  V30 47 H -5.751603 -5.086288 -0.616622 0
M  V30 48 H -4.025901 -4.150366 -1.651307 0
M  V30 49 H -3.184118 -5.129595 -0.321626 0
M  V30 50 H -0.297549 -3.828326 -3.838139 0
M  V30 51 H -1.260057 -5.306826 -3.721465 0
M  V30 52 H -1.941452 -3.884905 -4.568735 0
M  V30 53 H -0.127707 -1.909360 -3.303196 0
M  V30 54 H 2.066202 -0.027793 -0.268944 0
M  V30 55 H 2.376539 2.938318 3.004410 0
M  V30 END ATOM
M  V30 BEGIN BOND
M  V30 1 1 1 2
M  V30 2 1 2 3
M  V30 3 2 3 4
M  V30 4 1 4 5
M  V30 5 1 5 6
M  V30 6 3 6 7
M  V30 7 2 5 8
M  V30 8 1 8 9
M  V30 9 1 9 10
M  V30 10 2 10 11
M  V30 11 1 11 12
M  V30 12 2 12 13
M  V30 13 1 13 14
M  V30 14 1 14 15
M  V30 15 1 15 16
M  V30 16 2 16 17
M  V30 17 1 17 18
M  V30 18 2 18 19
M  V30 19 1 19 20
M  V30 20 1 20 21
M  V30 21 1 21 22
M  V30 22 1 22 23
M  V30 23 1 23 24
M  V30 24 1 24 25
M  V30 25 1 19 26
M  V30 26 1 26 27
M  V30 27 1 27 28
M  V30 28 2 26 29
M  V30 29 2 14 30
M  V30 30 2 9 31
M  V30 31 1 31 3
M  V30 32 1 30 10
M  V30 33 1 29 16
M  V30 34 1 25 20
M  V30 35 1 1 32
M  V30 36 1 1 33
M  V30 37 1 1 34
M  V30 38 1 4 35
M  V30 39 1 8 36
M  V30 40 1 11 37
M  V30 41 1 12 38
M  V30 42 1 15 39
M  V30 43 1 17 40
M  V30 44 1 18 41
M  V30 45 1 21 42
M  V30 46 1 21 43
M  V30 47 1 22 44
M  V30 48 1 22 45
M  V30 49 1 24 46
M  V30 50 1 24 47
M  V30 51 1 25 48
M  V30 52 1 25 49
M  V30 53 1 28 50
M  V30 54 1 28 51
M  V30 55 1 28 52
M  V30 56 1 29 53
M  V30 57 1 30 54
M  V30 58 1 31 55
M  V30 END BOND
M  V30 END CTAB
M  END
>  <Dataset>  (22) 
ChEMBL_Kinases

>  <Ligand_Instance>  (22) 
nan

>  <PDB_ID>  (22) 
nan

>  <Standardized_SMILES>  (22) 
COc1cc(C#N)cc(-c2ccnc(Nc3ccc(N4CCOCC4)c(OC)c3)c2)c1

>  <Name>  (22) 
nan

>  <Pocket>  (22) 
nan

>  <ATP_Site>  (22) 
nan

>  <Peripheral>  (22) 
nan

>  <Num_H_Atoms_ProtBoundConf>  (22) 
nan

>  <Num_Resolved_Atoms>  (22) 
nan

>  <Num_Not_Resolved_Atoms>  (22) 
nan

$$$$
CHEMBL2312152
     RDKit          3D

  0  0  0  0  0  0  0  0  0  0999 V3000
M  V30 BEGIN CTAB
M  V30 COUNTS 57 60 0 0 0
M  V30 BEGIN ATOM
M  V30 1 C 0.645932 -1.007804 3.337472 0
M  V30 2 O 1.145512 0.023761 2.513119 0
M  V30 3 C 2.497908 0.099258 2.248473 0
M  V30 4 C 3.443907 -0.772740 2.734208 0
M  V30 5 C 4.794845 -0.654963 2.438255 0
M  V30 6 C 5.230008 0.370386 1.626938 0
M  V30 7 C 6.702732 0.406830 1.367897 0
M  V30 8 F 7.425905 0.553515 2.525806 0
M  V30 9 F 6.922722 1.418035 0.457002 0
M  V30 10 F 7.134795 -0.776360 0.769991 0
M  V30 11 C 4.325739 1.273857 1.113104 0
M  V30 12 C 2.988292 1.120496 1.432430 0
M  V30 13 C 2.092412 2.133630 0.838970 0
M  V30 14 C 2.402606 3.482950 0.799228 0
M  V30 15 C 1.476704 4.325103 0.214103 0
M  V30 16 N 0.307413 3.916926 -0.311376 0
M  V30 17 C -0.048094 2.618720 -0.301472 0
M  V30 18 N -1.261538 2.126875 -0.864663 0
M  V30 19 C -1.805461 0.828145 -0.736846 0
M  V30 20 C -1.723071 0.273673 0.541882 0
M  V30 21 C -2.204196 -1.016579 0.795828 0
M  V30 22 C -2.776447 -1.766999 -0.236340 0
M  V30 23 N -3.253462 -3.076410 0.062407 0
M  V30 24 C -4.565973 -3.630726 -0.057984 0
M  V30 25 C -4.398325 -5.075963 -0.518356 0
M  V30 26 O -3.230421 -5.251341 -1.235837 0
M  V30 27 C -2.092447 -5.096300 -0.478811 0
M  V30 28 C -2.248219 -4.006233 0.572165 0
M  V30 29 C -2.848382 -1.189402 -1.511598 0
M  V30 30 O -3.420789 -1.959439 -2.508834 0
M  V30 31 C -3.509452 -1.406431 -3.806751 0
M  V30 32 C -2.370154 0.085561 -1.750473 0
M  V30 33 C 0.879621 1.782278 0.282665 0
M  V30 34 H 1.310975 -1.185993 4.198567 0
M  V30 35 H -0.363482 -0.779303 3.736100 0
M  V30 36 H 0.563050 -1.971159 2.764865 0
M  V30 37 H 3.131868 -1.584784 3.373447 0
M  V30 38 H 5.467245 -1.378662 2.859018 0
M  V30 39 H 4.693605 2.064710 0.479449 0
M  V30 40 H 3.341982 3.812468 1.223204 0
M  V30 41 H 1.692148 5.399112 0.167399 0
M  V30 42 H -1.834549 2.782850 -1.447604 0
M  V30 43 H -1.324920 0.718378 1.455396 0
M  V30 44 H -2.162501 -1.491548 1.772159 0
M  V30 45 H -5.250745 -3.051062 -0.689944 0
M  V30 46 H -4.985313 -3.675359 0.984410 0
M  V30 47 H -5.236890 -5.365398 -1.194614 0
M  V30 48 H -4.467143 -5.784529 0.346316 0
M  V30 49 H -1.728338 -6.047675 -0.031223 0
M  V30 50 H -1.267268 -4.757960 -1.152577 0
M  V30 51 H -1.286548 -3.521423 0.813629 0
M  V30 52 H -2.695654 -4.445064 1.511118 0
M  V30 53 H -4.015391 -2.064099 -4.523949 0
M  V30 54 H -2.455945 -1.180193 -4.137090 0
M  V30 55 H -3.997628 -0.391176 -3.762427 0
M  V30 56 H -2.426924 0.531133 -2.734334 0
M  V30 57 H 0.699757 0.700675 0.327173 0
M  V30 END ATOM
M  V30 BEGIN BOND
M  V30 1 1 1 2
M  V30 2 1 2 3
M  V30 3 2 3 4
M  V30 4 1 4 5
M  V30 5 2 5 6
M  V30 6 1 6 7
M  V30 7 1 7 8
M  V30 8 1 7 9
M  V30 9 1 7 10
M  V30 10 1 6 11
M  V30 11 2 11 12
M  V30 12 1 12 13
M  V30 13 2 13 14
M  V30 14 1 14 15
M  V30 15 2 15 16
M  V30 16 1 16 17
M  V30 17 1 17 18
M  V30 18 1 18 19
M  V30 19 2 19 20
M  V30 20 1 20 21
M  V30 21 2 21 22
M  V30 22 1 22 23
M  V30 23 1 23 24
M  V30 24 1 24 25
M  V30 25 1 25 26
M  V30 26 1 26 27
M  V30 27 1 27 28
M  V30 28 1 22 29
M  V30 29 1 29 30
M  V30 30 1 30 31
M  V30 31 2 29 32
M  V30 32 2 17 33
M  V30 33 1 12 3
M  V30 34 1 33 13
M  V30 35 1 32 19
M  V30 36 1 28 23
M  V30 37 1 1 34
M  V30 38 1 1 35
M  V30 39 1 1 36
M  V30 40 1 4 37
M  V30 41 1 5 38
M  V30 42 1 11 39
M  V30 43 1 14 40
M  V30 44 1 15 41
M  V30 45 1 18 42
M  V30 46 1 20 43
M  V30 47 1 21 44
M  V30 48 1 24 45
M  V30 49 1 24 46
M  V30 50 1 25 47
M  V30 51 1 25 48
M  V30 52 1 27 49
M  V30 53 1 27 50
M  V30 54 1 28 51
M  V30 55 1 28 52
M  V30 56 1 31 53
M  V30 57 1 31 54
M  V30 58 1 31 55
M  V30 59 1 32 56
M  V30 60 1 33 57
M  V30 END BOND
M  V30 END CTAB
M  END
>  <Dataset>  (23) 
ChEMBL_Kinases

>  <Ligand_Instance>  (23) 
nan

>  <PDB_ID>  (23) 
nan

>  <Standardized_SMILES>  (23) 
COc1ccc(C(F)(F)F)cc1-c1ccnc(Nc2ccc(N3CCOCC3)c(OC)c2)c1

>  <Name>  (23) 
nan

>  <Pocket>  (23) 
nan

>  <ATP_Site>  (23) 
nan

>  <Peripheral>  (23) 
nan

>  <Num_H_Atoms_ProtBoundConf>  (23) 
nan

>  <Num_Resolved_Atoms>  (23) 
nan

>  <Num_Not_Resolved_Atoms>  (23) 
nan

$$$$
CHEMBL2312151
     RDKit          3D

  0  0  0  0  0  0  0  0  0  0999 V3000
M  V30 BEGIN CTAB
M  V30 COUNTS 54 57 0 0 0
M  V30 BEGIN ATOM
M  V30 1 C 2.053669 3.396060 4.363072 0
M  V30 2 O 2.307776 2.841723 3.099870 0
M  V30 3 C 3.361241 1.997995 2.797988 0
M  V30 4 C 4.203864 1.703390 3.835281 0
M  V30 5 C 5.276234 0.860871 3.578182 0
M  V30 6 C 5.457705 0.357219 2.313829 0
M  V30 7 F 6.501696 -0.477584 2.018291 0
M  V30 8 C 4.591155 0.662469 1.257903 0
M  V30 9 C 3.520045 1.499959 1.502697 0
M  V30 10 C 2.597302 1.831169 0.404658 0
M  V30 11 C 2.133531 3.094033 0.140461 0
M  V30 12 C 1.269364 3.388973 -0.889318 0
M  V30 13 N 0.847438 2.384146 -1.694651 0
M  V30 14 C 1.267068 1.125463 -1.487226 0
M  V30 15 N 0.919041 -0.055848 -2.220098 0
M  V30 16 C -0.129080 -0.802163 -1.586344 0
M  V30 17 C -0.719332 -0.416039 -0.404976 0
M  V30 18 C -1.733988 -1.175877 0.191460 0
M  V30 19 C -2.172125 -2.359294 -0.413107 0
M  V30 20 N -3.215954 -3.038222 0.298952 0
M  V30 21 C -3.883707 -2.650361 1.532400 0
M  V30 22 C -5.362356 -2.504203 1.117773 0
M  V30 23 O -5.876669 -3.747533 0.800489 0
M  V30 24 C -4.891578 -4.726659 0.721989 0
M  V30 25 C -3.767134 -4.287645 -0.186519 0
M  V30 26 C -1.586414 -2.767742 -1.612663 0
M  V30 27 O -2.093916 -3.947250 -2.122828 0
M  V30 28 C -1.605979 -4.483645 -3.322630 0
M  V30 29 C -0.596655 -1.972770 -2.140232 0
M  V30 30 C 2.139957 0.819490 -0.447554 0
M  V30 31 H 1.964480 2.620168 5.179004 0
M  V30 32 H 2.877435 4.126933 4.579729 0
M  V30 33 H 1.130855 4.014395 4.283223 0
M  V30 34 H 4.095851 2.076814 4.828865 0
M  V30 35 H 5.957039 0.616724 4.394408 0
M  V30 36 H 4.745948 0.250963 0.249830 0
M  V30 37 H 2.456480 3.904064 0.768751 0
M  V30 38 H 0.910684 4.387994 -1.087821 0
M  V30 39 H 1.312060 -0.422334 -3.112958 0
M  V30 40 H -0.364800 0.516890 0.063441 0
M  V30 41 H -2.074108 -0.722151 1.109727 0
M  V30 42 H -3.608535 -1.680628 1.928730 0
M  V30 43 H -3.758212 -3.407000 2.326963 0
M  V30 44 H -5.309089 -1.834184 0.226744 0
M  V30 45 H -5.916768 -2.076667 1.952187 0
M  V30 46 H -4.568405 -5.136784 1.686601 0
M  V30 47 H -5.406488 -5.592590 0.199477 0
M  V30 48 H -2.993567 -5.090513 -0.166431 0
M  V30 49 H -4.227797 -4.167816 -1.192455 0
M  V30 50 H -2.194811 -4.144481 -4.201908 0
M  V30 51 H -1.762543 -5.594267 -3.250648 0
M  V30 52 H -0.544504 -4.243210 -3.523350 0
M  V30 53 H -0.163716 -2.309259 -3.065272 0
M  V30 54 H 2.521272 -0.166637 -0.215283 0
M  V30 END ATOM
M  V30 BEGIN BOND
M  V30 1 1 1 2
M  V30 2 1 2 3
M  V30 3 2 3 4
M  V30 4 1 4 5
M  V30 5 2 5 6
M  V30 6 1 6 7
M  V30 7 1 6 8
M  V30 8 2 8 9
M  V30 9 1 9 10
M  V30 10 2 10 11
M  V30 11 1 11 12
M  V30 12 2 12 13
M  V30 13 1 13 14
M  V30 14 1 14 15
M  V30 15 1 15 16
M  V30 16 2 16 17
M  V30 17 1 17 18
M  V30 18 2 18 19
M  V30 19 1 19 20
M  V30 20 1 20 21
M  V30 21 1 21 22
M  V30 22 1 22 23
M  V30 23 1 23 24
M  V30 24 1 24 25
M  V30 25 1 19 26
M  V30 26 1 26 27
M  V30 27 1 27 28
M  V30 28 2 26 29
M  V30 29 2 14 30
M  V30 30 1 9 3
M  V30 31 1 30 10
M  V30 32 1 29 16
M  V30 33 1 25 20
M  V30 34 1 1 31
M  V30 35 1 1 32
M  V30 36 1 1 33
M  V30 37 1 4 34
M  V30 38 1 5 35
M  V30 39 1 8 36
M  V30 40 1 11 37
M  V30 41 1 12 38
M  V30 42 1 15 39
M  V30 43 1 17 40
M  V30 44 1 18 41
M  V30 45 1 21 42
M  V30 46 1 21 43
M  V30 47 1 22 44
M  V30 48 1 22 45
M  V30 49 1 24 46
M  V30 50 1 24 47
M  V30 51 1 25 48
M  V30 52 1 25 49
M  V30 53 1 28 50
M  V30 54 1 28 51
M  V30 55 1 28 52
M  V30 56 1 29 53
M  V30 57 1 30 54
M  V30 END BOND
M  V30 END CTAB
M  END
>  <Dataset>  (24) 
ChEMBL_Kinases

>  <Ligand_Instance>  (24) 
nan

>  <PDB_ID>  (24) 
nan

>  <Standardized_SMILES>  (24) 
COc1ccc(F)cc1-c1ccnc(Nc2ccc(N3CCOCC3)c(OC)c2)c1

>  <Name>  (24) 
nan

>  <Pocket>  (24) 
nan

>  <ATP_Site>  (24) 
nan

>  <Peripheral>  (24) 
nan

>  <Num_H_Atoms_ProtBoundConf>  (24) 
nan

>  <Num_Resolved_Atoms>  (24) 
nan

>  <Num_Not_Resolved_Atoms>  (24) 
nan

$$$$
CHEMBL2312150
     RDKit          3D

  0  0  0  0  0  0  0  0  0  0999 V3000
M  V30 BEGIN CTAB
M  V30 COUNTS 54 57 0 0 0
M  V30 BEGIN ATOM
M  V30 1 C 2.398389 2.851405 4.599745 0
M  V30 2 O 2.514400 2.462925 3.267316 0
M  V30 3 C 3.287666 1.444797 2.786505 0
M  V30 4 C 4.103262 0.604121 3.517445 0
M  V30 5 C 4.860728 -0.407693 2.950995 0
M  V30 6 C 4.830215 -0.618468 1.606822 0
M  V30 7 Cl 5.777523 -1.891167 0.854896 0
M  V30 8 C 4.018113 0.212249 0.857451 0
M  V30 9 C 3.248262 1.235550 1.418916 0
M  V30 10 C 2.440893 1.945899 0.412534 0
M  V30 11 C 2.196540 3.307709 0.281339 0
M  V30 12 C 1.387380 3.729895 -0.749091 0
M  V30 13 N 0.807010 2.933792 -1.649525 0
M  V30 14 C 0.984295 1.577779 -1.608745 0
M  V30 15 N 0.490006 0.509409 -2.408200 0
M  V30 16 C -0.416374 -0.318798 -1.677942 0
M  V30 17 C -1.050725 0.050029 -0.515714 0
M  V30 18 C -1.876924 -0.811434 0.163680 0
M  V30 19 C -2.125979 -2.105674 -0.274045 0
M  V30 20 N -2.999618 -2.866576 0.545572 0
M  V30 21 C -3.634503 -2.379854 1.775508 0
M  V30 22 C -5.089930 -2.220433 1.378845 0
M  V30 23 O -5.585626 -3.507337 1.226463 0
M  V30 24 C -4.967042 -4.282508 0.291104 0
M  V30 25 C -3.453538 -4.234886 0.377964 0
M  V30 26 C -1.467973 -2.445427 -1.453906 0
M  V30 27 O -1.728822 -3.734191 -1.871942 0
M  V30 28 C -1.156917 -4.264755 -3.036271 0
M  V30 29 C -0.644710 -1.590225 -2.134659 0
M  V30 30 C 1.809895 1.161899 -0.554673 0
M  V30 31 H 1.368442 3.102126 4.936721 0
M  V30 32 H 2.844006 2.153395 5.337260 0
M  V30 33 H 2.986279 3.808621 4.721146 0
M  V30 34 H 4.133414 0.764572 4.580768 0
M  V30 35 H 5.492755 -1.055785 3.560478 0
M  V30 36 H 4.032743 -0.005236 -0.223823 0
M  V30 37 H 2.683826 3.916434 1.027468 0
M  V30 38 H 1.202648 4.787879 -0.839834 0
M  V30 39 H 0.728902 0.322242 -3.409128 0
M  V30 40 H -0.828734 1.073798 -0.207619 0
M  V30 41 H -2.259946 -0.295442 1.037221 0
M  V30 42 H -3.174705 -1.527189 2.240239 0
M  V30 43 H -3.637956 -3.176396 2.582803 0
M  V30 44 H -5.096330 -1.722222 0.385447 0
M  V30 45 H -5.678128 -1.687914 2.123988 0
M  V30 46 H -5.218211 -5.352842 0.567192 0
M  V30 47 H -5.319210 -4.176701 -0.738237 0
M  V30 48 H -2.999913 -4.818427 -0.402199 0
M  V30 49 H -3.183469 -4.792944 1.334919 0
M  V30 50 H -1.776935 -4.060175 -3.918208 0
M  V30 51 H -1.071261 -5.387009 -2.967946 0
M  V30 52 H -0.109940 -3.917280 -3.208364 0
M  V30 53 H -0.179596 -1.916949 -3.029965 0
M  V30 54 H 1.996384 0.091963 -0.460010 0
M  V30 END ATOM
M  V30 BEGIN BOND
M  V30 1 1 1 2
M  V30 2 1 2 3
M  V30 3 2 3 4
M  V30 4 1 4 5
M  V30 5 2 5 6
M  V30 6 1 6 7
M  V30 7 1 6 8
M  V30 8 2 8 9
M  V30 9 1 9 10
M  V30 10 2 10 11
M  V30 11 1 11 12
M  V30 12 2 12 13
M  V30 13 1 13 14
M  V30 14 1 14 15
M  V30 15 1 15 16
M  V30 16 2 16 17
M  V30 17 1 17 18
M  V30 18 2 18 19
M  V30 19 1 19 20
M  V30 20 1 20 21
M  V30 21 1 21 22
M  V30 22 1 22 23
M  V30 23 1 23 24
M  V30 24 1 24 25
M  V30 25 1 19 26
M  V30 26 1 26 27
M  V30 27 1 27 28
M  V30 28 2 26 29
M  V30 29 2 14 30
M  V30 30 1 9 3
M  V30 31 1 30 10
M  V30 32 1 29 16
M  V30 33 1 25 20
M  V30 34 1 1 31
M  V30 35 1 1 32
M  V30 36 1 1 33
M  V30 37 1 4 34
M  V30 38 1 5 35
M  V30 39 1 8 36
M  V30 40 1 11 37
M  V30 41 1 12 38
M  V30 42 1 15 39
M  V30 43 1 17 40
M  V30 44 1 18 41
M  V30 45 1 21 42
M  V30 46 1 21 43
M  V30 47 1 22 44
M  V30 48 1 22 45
M  V30 49 1 24 46
M  V30 50 1 24 47
M  V30 51 1 25 48
M  V30 52 1 25 49
M  V30 53 1 28 50
M  V30 54 1 28 51
M  V30 55 1 28 52
M  V30 56 1 29 53
M  V30 57 1 30 54
M  V30 END BOND
M  V30 END CTAB
M  END
>  <Dataset>  (25) 
ChEMBL_Kinases

>  <Ligand_Instance>  (25) 
nan

>  <PDB_ID>  (25) 
nan

>  <Standardized_SMILES>  (25) 
COc1ccc(Cl)cc1-c1ccnc(Nc2ccc(N3CCOCC3)c(OC)c2)c1

>  <Name>  (25) 
nan

>  <Pocket>  (25) 
nan

>  <ATP_Site>  (25) 
nan

>  <Peripheral>  (25) 
nan

>  <Num_H_Atoms_ProtBoundConf>  (25) 
nan

>  <Num_Resolved_Atoms>  (25) 
nan

>  <Num_Not_Resolved_Atoms>  (25) 
nan

$$$$
CHEMBL2312148
     RDKit          3D

  0  0  0  0  0  0  0  0  0  0999 V3000
M  V30 BEGIN CTAB
M  V30 COUNTS 55 58 0 0 0
M  V30 BEGIN ATOM
M  V30 1 C 2.006423 0.413739 5.665684 0
M  V30 2 O 2.276241 0.689302 4.304656 0
M  V30 3 C 3.460992 0.322820 3.684814 0
M  V30 4 C 4.433372 -0.342757 4.417355 0
M  V30 5 C 5.646886 -0.745049 3.874414 0
M  V30 6 C 5.896427 -0.465484 2.530296 0
M  V30 7 C 7.139065 -0.864081 1.931431 0
M  V30 8 N 8.158391 -1.180761 1.444142 0
M  V30 9 C 4.937960 0.193541 1.798121 0
M  V30 10 C 3.738284 0.589092 2.342319 0
M  V30 11 C 2.665214 1.292507 1.643930 0
M  V30 12 C 1.996465 2.389323 2.188240 0
M  V30 13 C 0.984968 3.027661 1.492197 0
M  V30 14 N 0.652616 2.562006 0.258046 0
M  V30 15 C 1.300197 1.496220 -0.274437 0
M  V30 16 N 0.759138 1.210197 -1.580632 0
M  V30 17 C -0.331643 0.322922 -1.684887 0
M  V30 18 C -0.883296 0.027224 -2.935369 0
M  V30 19 C -1.965346 -0.861400 -2.969522 0
M  V30 20 C -2.505489 -1.453464 -1.823261 0
M  V30 21 N -3.605115 -2.332478 -2.052329 0
M  V30 22 C -4.838038 -1.951175 -1.390270 0
M  V30 23 C -5.976690 -2.885703 -1.615065 0
M  V30 24 O -5.632828 -4.106718 -2.174237 0
M  V30 25 C -4.932646 -3.856146 -3.340635 0
M  V30 26 C -3.502067 -3.527866 -2.890044 0
M  V30 27 C -1.945083 -1.149122 -0.583679 0
M  V30 28 O -2.512822 -1.756938 0.509491 0
M  V30 29 C -2.149386 -1.627608 1.843918 0
M  V30 30 C -0.880021 -0.272069 -0.568830 0
M  V30 31 C 2.295218 0.860991 0.399456 0
M  V30 32 H 2.283873 -0.627945 5.935625 0
M  V30 33 H 2.544357 1.097000 6.350581 0
M  V30 34 H 0.929483 0.546729 5.874782 0
M  V30 35 H 4.311642 -0.598760 5.479724 0
M  V30 36 H 6.394668 -1.267883 4.475541 0
M  V30 37 H 5.086289 0.432029 0.753012 0
M  V30 38 H 2.278759 2.741392 3.171588 0
M  V30 39 H 0.520876 3.868108 1.988249 0
M  V30 40 H 1.154614 1.641606 -2.439084 0
M  V30 41 H -0.508280 0.452547 -3.844802 0
M  V30 42 H -2.365496 -1.064179 -3.972169 0
M  V30 43 H -4.707021 -1.846036 -0.294415 0
M  V30 44 H -5.067734 -0.904417 -1.737917 0
M  V30 45 H -6.692256 -2.365530 -2.311698 0
M  V30 46 H -6.561664 -3.103886 -0.699355 0
M  V30 47 H -4.911859 -4.672700 -4.065058 0
M  V30 48 H -5.302710 -2.878198 -3.763968 0
M  V30 49 H -2.940312 -3.356544 -3.823672 0
M  V30 50 H -3.157037 -4.407277 -2.311914 0
M  V30 51 H -1.725492 -2.552200 2.285991 0
M  V30 52 H -1.496774 -0.740676 1.961054 0
M  V30 53 H -3.086457 -1.355916 2.410873 0
M  V30 54 H -0.447130 -0.034532 0.368531 0
M  V30 55 H 2.723357 0.037607 -0.129568 0
M  V30 END ATOM
M  V30 BEGIN BOND
M  V30 1 1 1 2
M  V30 2 1 2 3
M  V30 3 2 3 4
M  V30 4 1 4 5
M  V30 5 2 5 6
M  V30 6 1 6 7
M  V30 7 3 7 8
M  V30 8 1 6 9
M  V30 9 2 9 10
M  V30 10 1 10 11
M  V30 11 2 11 12
M  V30 12 1 12 13
M  V30 13 2 13 14
M  V30 14 1 14 15
M  V30 15 1 15 16
M  V30 16 1 16 17
M  V30 17 2 17 18
M  V30 18 1 18 19
M  V30 19 2 19 20
M  V30 20 1 20 21
M  V30 21 1 21 22
M  V30 22 1 22 23
M  V30 23 1 23 24
M  V30 24 1 24 25
M  V30 25 1 25 26
M  V30 26 1 20 27
M  V30 27 1 27 28
M  V30 28 1 28 29
M  V30 29 2 27 30
M  V30 30 2 15 31
M  V30 31 1 10 3
M  V30 32 1 31 11
M  V30 33 1 30 17
M  V30 34 1 26 21
M  V30 35 1 1 32
M  V30 36 1 1 33
M  V30 37 1 1 34
M  V30 38 1 4 35
M  V30 39 1 5 36
M  V30 40 1 9 37
M  V30 41 1 12 38
M  V30 42 1 13 39
M  V30 43 1 16 40
M  V30 44 1 18 41
M  V30 45 1 19 42
M  V30 46 1 22 43
M  V30 47 1 22 44
M  V30 48 1 23 45
M  V30 49 1 23 46
M  V30 50 1 25 47
M  V30 51 1 25 48
M  V30 52 1 26 49
M  V30 53 1 26 50
M  V30 54 1 29 51
M  V30 55 1 29 52
M  V30 56 1 29 53
M  V30 57 1 30 54
M  V30 58 1 31 55
M  V30 END BOND
M  V30 END CTAB
M  END
>  <Dataset>  (26) 
ChEMBL_Kinases

>  <Ligand_Instance>  (26) 
nan

>  <PDB_ID>  (26) 
nan

>  <Standardized_SMILES>  (26) 
COc1ccc(C#N)cc1-c1ccnc(Nc2ccc(N3CCOCC3)c(OC)c2)c1

>  <Name>  (26) 
nan

>  <Pocket>  (26) 
nan

>  <ATP_Site>  (26) 
nan

>  <Peripheral>  (26) 
nan

>  <Num_H_Atoms_ProtBoundConf>  (26) 
nan

>  <Num_Resolved_Atoms>  (26) 
nan

>  <Num_Not_Resolved_Atoms>  (26) 
nan

$$$$
CHEMBL2312147
     RDKit          3D

  0  0  0  0  0  0  0  0  0  0999 V3000
M  V30 BEGIN CTAB
M  V30 COUNTS 51 54 0 0 0
M  V30 BEGIN ATOM
M  V30 1 C 0.382525 4.683889 -1.728477 0
M  V30 2 O 1.041370 3.834491 -0.808198 0
M  V30 3 C 2.379992 3.532095 -0.892393 0
M  V30 4 C 3.315680 3.947982 -1.811479 0
M  V30 5 C 4.632512 3.524707 -1.721721 0
M  V30 6 C 4.990509 2.678521 -0.694603 0
M  V30 7 C 6.354921 2.245635 -0.609223 0
M  V30 8 N 7.468207 1.875557 -0.549414 0
M  V30 9 C 4.080730 2.228151 0.262076 0
M  V30 10 C 2.763092 2.673202 0.142784 0
M  V30 11 C 1.874962 2.152483 1.186544 0
M  V30 12 C 1.015289 3.036821 1.782780 0
M  V30 13 C 0.134344 2.633216 2.784075 0
M  V30 14 N 0.178672 1.328557 3.128476 0
M  V30 15 C 1.031491 0.480746 2.528265 0
M  V30 16 N 0.946535 -0.852919 3.011317 0
M  V30 17 C 0.074521 -1.782768 2.420846 0
M  V30 18 C -0.733486 -1.495547 1.340303 0
M  V30 19 C -1.607198 -2.366852 0.722928 0
M  V30 20 C -1.663297 -3.640210 1.250709 0
M  V30 21 N -2.531258 -4.621630 0.691348 0
M  V30 22 C -2.766162 -6.010018 1.094063 0
M  V30 23 C -4.114851 -5.977209 1.795605 0
M  V30 24 O -5.021560 -5.312690 0.974073 0
M  V30 25 C -4.574486 -5.257139 -0.348475 0
M  V30 26 C -3.365734 -4.347310 -0.448154 0
M  V30 27 C -0.885263 -4.016186 2.337463 0
M  V30 28 C -0.030986 -3.072416 2.898361 0
M  V30 29 C 1.914218 0.820813 1.544111 0
M  V30 30 H -0.548087 5.031672 -1.262134 0
M  V30 31 H 1.029466 5.552235 -2.003423 0
M  V30 32 H 0.138078 4.145980 -2.681726 0
M  V30 33 H 2.911881 4.613244 -2.573103 0
M  V30 34 H 5.314087 3.889546 -2.475689 0
M  V30 35 H 4.418959 1.568060 1.041159 0
M  V30 36 H 0.933485 4.102061 1.546913 0
M  V30 37 H -0.552597 3.311540 3.269121 0
M  V30 38 H 1.535211 -1.140584 3.808516 0
M  V30 39 H -0.708419 -0.492393 0.902085 0
M  V30 40 H -2.207817 -2.065285 -0.121638 0
M  V30 41 H -2.718690 -6.720038 0.257112 0
M  V30 42 H -2.042852 -6.362857 1.855971 0
M  V30 43 H -4.411505 -6.978197 2.101367 0
M  V30 44 H -3.956309 -5.354374 2.717579 0
M  V30 45 H -4.407901 -6.244760 -0.803898 0
M  V30 46 H -5.425321 -4.797830 -0.914965 0
M  V30 47 H -2.861376 -4.586079 -1.410872 0
M  V30 48 H -3.789510 -3.308442 -0.455918 0
M  V30 49 H -0.875215 -4.986922 2.801921 0
M  V30 50 H 0.599041 -3.340983 3.761037 0
M  V30 51 H 2.587802 0.113726 1.081255 0
M  V30 END ATOM
M  V30 BEGIN BOND
M  V30 1 1 1 2
M  V30 2 1 2 3
M  V30 3 2 3 4
M  V30 4 1 4 5
M  V30 5 2 5 6
M  V30 6 1 6 7
M  V30 7 3 7 8
M  V30 8 1 6 9
M  V30 9 2 9 10
M  V30 10 1 10 11
M  V30 11 2 11 12
M  V30 12 1 12 13
M  V30 13 2 13 14
M  V30 14 1 14 15
M  V30 15 1 15 16
M  V30 16 1 16 17
M  V30 17 2 17 18
M  V30 18 1 18 19
M  V30 19 2 19 20
M  V30 20 1 20 21
M  V30 21 1 21 22
M  V30 22 1 22 23
M  V30 23 1 23 24
M  V30 24 1 24 25
M  V30 25 1 25 26
M  V30 26 1 20 27
M  V30 27 2 27 28
M  V30 28 2 15 29
M  V30 29 1 10 3
M  V30 30 1 29 11
M  V30 31 1 28 17
M  V30 32 1 26 21
M  V30 33 1 1 30
M  V30 34 1 1 31
M  V30 35 1 1 32
M  V30 36 1 4 33
M  V30 37 1 5 34
M  V30 38 1 9 35
M  V30 39 1 12 36
M  V30 40 1 13 37
M  V30 41 1 16 38
M  V30 42 1 18 39
M  V30 43 1 19 40
M  V30 44 1 22 41
M  V30 45 1 22 42
M  V30 46 1 23 43
M  V30 47 1 23 44
M  V30 48 1 25 45
M  V30 49 1 25 46
M  V30 50 1 26 47
M  V30 51 1 26 48
M  V30 52 1 27 49
M  V30 53 1 28 50
M  V30 54 1 29 51
M  V30 END BOND
M  V30 END CTAB
M  END
>  <Dataset>  (27) 
ChEMBL_Kinases

>  <Ligand_Instance>  (27) 
nan

>  <PDB_ID>  (27) 
nan

>  <Standardized_SMILES>  (27) 
COc1ccc(C#N)cc1-c1ccnc(Nc2ccc(N3CCOCC3)cc2)c1

>  <Name>  (27) 
nan

>  <Pocket>  (27) 
nan

>  <ATP_Site>  (27) 
nan

>  <Peripheral>  (27) 
nan

>  <Num_H_Atoms_ProtBoundConf>  (27) 
nan

>  <Num_Resolved_Atoms>  (27) 
nan

>  <Num_Not_Resolved_Atoms>  (27) 
nan

$$$$
CHEMBL2312146
     RDKit          3D

  0  0  0  0  0  0  0  0  0  0999 V3000
M  V30 BEGIN CTAB
M  V30 COUNTS 51 54 0 0 0
M  V30 BEGIN ATOM
M  V30 1 C -2.072020 -0.539318 -0.895911 0
M  V30 2 O -2.169739 -1.599553 0.044039 0
M  V30 3 C -1.064699 -2.217152 0.604568 0
M  V30 4 C 0.217181 -1.833733 0.281471 0
M  V30 5 C 1.371240 -2.381615 0.782800 0
M  V30 6 N 2.701647 -1.999264 0.508036 0
M  V30 7 C 3.326209 -0.765348 0.206717 0
M  V30 8 C 2.727313 0.449321 0.187086 0
M  V30 9 C 3.357123 1.652569 -0.120434 0
M  V30 10 C 2.661954 2.935757 -0.133254 0
M  V30 11 C 3.160556 3.872296 -1.049642 0
M  V30 12 C 2.589770 5.121462 -1.159201 0
M  V30 13 C 1.525046 5.513776 -0.396445 0
M  V30 14 C 1.033574 4.592943 0.505065 0
M  V30 15 C -0.084883 4.930535 1.339157 0
M  V30 16 N -0.993823 5.218618 2.000790 0
M  V30 17 C 1.597518 3.329749 0.628029 0
M  V30 18 C 4.700905 1.595918 -0.428873 0
M  V30 19 C 5.290232 0.350761 -0.402706 0
M  V30 20 N 4.631378 -0.774996 -0.098842 0
M  V30 21 C 1.116018 -3.409256 1.688685 0
M  V30 22 C -0.113386 -3.875396 2.085336 0
M  V30 23 C -1.191719 -3.245028 1.513242 0
M  V30 24 N -2.494170 -3.677666 1.882304 0
M  V30 25 C -3.380341 -2.723764 2.520027 0
M  V30 26 C -4.756932 -3.019161 1.919324 0
M  V30 27 O -5.074922 -4.309169 2.294608 0
M  V30 28 C -4.332494 -5.304060 1.730183 0
M  V30 29 C -2.875280 -5.031810 1.608625 0
M  V30 30 H -3.136435 -0.210176 -1.071346 0
M  V30 31 H -1.476384 0.311104 -0.489535 0
M  V30 32 H -1.686029 -0.897063 -1.870696 0
M  V30 33 H 0.284597 -1.038716 -0.443421 0
M  V30 34 H 3.337286 -2.852934 0.540215 0
M  V30 35 H 1.693855 0.558997 0.429479 0
M  V30 36 H 3.995604 3.715033 -1.723368 0
M  V30 37 H 2.953208 5.871783 -1.860352 0
M  V30 38 H 1.058872 6.487087 -0.462341 0
M  V30 39 H 1.237252 2.584037 1.324573 0
M  V30 40 H 5.274906 2.467194 -0.678865 0
M  V30 41 H 6.344771 0.232889 -0.634825 0
M  V30 42 H 1.986996 -3.909943 2.143085 0
M  V30 43 H -0.189942 -4.679225 2.795397 0
M  V30 44 H -3.444071 -3.005198 3.591537 0
M  V30 45 H -3.078951 -1.684790 2.350598 0
M  V30 46 H -4.738368 -2.840043 0.831578 0
M  V30 47 H -5.484293 -2.348326 2.388342 0
M  V30 48 H -4.811810 -5.586062 0.765145 0
M  V30 49 H -4.447643 -6.205521 2.377287 0
M  V30 50 H -2.589085 -5.252049 0.553070 0
M  V30 51 H -2.239888 -5.702199 2.224323 0
M  V30 END ATOM
M  V30 BEGIN BOND
M  V30 1 1 1 2
M  V30 2 1 2 3
M  V30 3 2 3 4
M  V30 4 1 4 5
M  V30 5 1 5 6
M  V30 6 1 6 7
M  V30 7 2 7 8
M  V30 8 1 8 9
M  V30 9 1 9 10
M  V30 10 2 10 11
M  V30 11 1 11 12
M  V30 12 2 12 13
M  V30 13 1 13 14
M  V30 14 1 14 15
M  V30 15 3 15 16
M  V30 16 2 14 17
M  V30 17 2 9 18
M  V30 18 1 18 19
M  V30 19 2 19 20
M  V30 20 2 5 21
M  V30 21 1 21 22
M  V30 22 2 22 23
M  V30 23 1 23 24
M  V30 24 1 24 25
M  V30 25 1 25 26
M  V30 26 1 26 27
M  V30 27 1 27 28
M  V30 28 1 28 29
M  V30 29 1 23 3
M  V30 30 1 29 24
M  V30 31 1 20 7
M  V30 32 1 17 10
M  V30 33 1 1 30
M  V30 34 1 1 31
M  V30 35 1 1 32
M  V30 36 1 4 33
M  V30 37 1 6 34
M  V30 38 1 8 35
M  V30 39 1 11 36
M  V30 40 1 12 37
M  V30 41 1 13 38
M  V30 42 1 17 39
M  V30 43 1 18 40
M  V30 44 1 19 41
M  V30 45 1 21 42
M  V30 46 1 22 43
M  V30 47 1 25 44
M  V30 48 1 25 45
M  V30 49 1 26 46
M  V30 50 1 26 47
M  V30 51 1 28 48
M  V30 52 1 28 49
M  V30 53 1 29 50
M  V30 54 1 29 51
M  V30 END BOND
M  V30 END CTAB
M  END
>  <Dataset>  (28) 
ChEMBL_Kinases

>  <Ligand_Instance>  (28) 
nan

>  <PDB_ID>  (28) 
nan

>  <Standardized_SMILES>  (28) 
COc1cc(Nc2cc(-c3cccc(C#N)c3)ccn2)ccc1N1CCOCC1

>  <Name>  (28) 
nan

>  <Pocket>  (28) 
nan

>  <ATP_Site>  (28) 
nan

>  <Peripheral>  (28) 
nan

>  <Num_H_Atoms_ProtBoundConf>  (28) 
nan

>  <Num_Resolved_Atoms>  (28) 
nan

>  <Num_Not_Resolved_Atoms>  (28) 
nan

$$$$
CHEMBL2312145
     RDKit          3D

  0  0  0  0  0  0  0  0  0  0999 V3000
M  V30 BEGIN CTAB
M  V30 COUNTS 58 61 0 0 0
M  V30 BEGIN ATOM
M  V30 1 C 2.195526 1.875324 6.397734 0
M  V30 2 O 2.472356 1.818680 5.002022 0
M  V30 3 C 3.505125 1.025871 4.561717 0
M  V30 4 C 4.300381 0.271435 5.403517 0
M  V30 5 C 5.320555 -0.502284 4.891284 0
M  V30 6 C 5.521198 -0.501667 3.537169 0
M  V30 7 Cl 6.846654 -1.518041 2.963941 0
M  V30 8 C 4.735171 0.246726 2.683071 0
M  V30 9 C 3.703047 1.027758 3.215841 0
M  V30 10 C 2.971291 1.754176 2.184631 0
M  V30 11 C 2.647284 3.090705 2.342710 0
M  V30 12 C 1.945076 3.741815 1.323924 0
M  V30 13 N 1.573165 3.092572 0.181646 0
M  V30 14 C 1.884124 1.793076 0.019786 0
M  V30 15 N 1.555029 1.007161 -1.121618 0
M  V30 16 C 0.326016 0.292630 -1.199245 0
M  V30 17 C -0.606834 0.333895 -0.185984 0
M  V30 18 C -1.770175 -0.392745 -0.352990 0
M  V30 19 C -2.080816 -1.161758 -1.454708 0
M  V30 20 N -3.304668 -1.875331 -1.536117 0
M  V30 21 C -4.377130 -1.929438 -0.574472 0
M  V30 22 C -4.752916 -3.346901 -0.197840 0
M  V30 23 N -4.973513 -4.183086 -1.364374 0
M  V30 24 C -4.019673 -5.282835 -1.414111 0
M  V30 25 C -4.930770 -3.369300 -2.564105 0
M  V30 26 C -3.582553 -2.677654 -2.711702 0
M  V30 27 C -1.125719 -1.180683 -2.449111 0
M  V30 28 O -1.326009 -1.909582 -3.587821 0
M  V30 29 C -0.361401 -1.945392 -4.622837 0
M  V30 30 C 0.041937 -0.463320 -2.303499 0
M  V30 31 C 2.585803 1.101327 1.012905 0
M  V30 32 H 1.732793 0.909570 6.702486 0
M  V30 33 H 1.473239 2.652972 6.658236 0
M  V30 34 H 3.116717 2.062817 6.998493 0
M  V30 35 H 4.088564 0.315693 6.464420 0
M  V30 36 H 5.899025 -1.065273 5.620409 0
M  V30 37 H 4.993260 0.163167 1.633100 0
M  V30 38 H 2.933942 3.628311 3.245794 0
M  V30 39 H 1.688263 4.787116 1.440725 0
M  V30 40 H 2.230716 0.969043 -1.891132 0
M  V30 41 H -0.392730 0.923675 0.683171 0
M  V30 42 H -2.449234 -0.299029 0.501458 0
M  V30 43 H -4.141232 -1.415772 0.376245 0
M  V30 44 H -5.300842 -1.447212 -0.993986 0
M  V30 45 H -3.982299 -3.810714 0.448982 0
M  V30 46 H -5.696151 -3.328937 0.379856 0
M  V30 47 H -3.057977 -4.916428 -0.961802 0
M  V30 48 H -4.397379 -6.117304 -0.790609 0
M  V30 49 H -3.851394 -5.642707 -2.445073 0
M  V30 50 H -5.043601 -4.054598 -3.433402 0
M  V30 51 H -5.776642 -2.682544 -2.544208 0
M  V30 52 H -2.841925 -3.499477 -2.805039 0
M  V30 53 H -3.654024 -2.072904 -3.630064 0
M  V30 54 H 0.560315 -2.407925 -4.175228 0
M  V30 55 H -0.144275 -0.934288 -5.042857 0
M  V30 56 H -0.790606 -2.556568 -5.444827 0
M  V30 57 H 0.777559 -0.502990 -3.115600 0
M  V30 58 H 2.852968 0.071323 0.926351 0
M  V30 END ATOM
M  V30 BEGIN BOND
M  V30 1 1 1 2
M  V30 2 1 2 3
M  V30 3 2 3 4
M  V30 4 1 4 5
M  V30 5 2 5 6
M  V30 6 1 6 7
M  V30 7 1 6 8
M  V30 8 2 8 9
M  V30 9 1 9 10
M  V30 10 2 10 11
M  V30 11 1 11 12
M  V30 12 2 12 13
M  V30 13 1 13 14
M  V30 14 1 14 15
M  V30 15 1 15 16
M  V30 16 2 16 17
M  V30 17 1 17 18
M  V30 18 2 18 19
M  V30 19 1 19 20
M  V30 20 1 20 21
M  V30 21 1 21 22
M  V30 22 1 22 23
M  V30 23 1 23 24
M  V30 24 1 23 25
M  V30 25 1 25 26
M  V30 26 1 19 27
M  V30 27 1 27 28
M  V30 28 1 28 29
M  V30 29 2 27 30
M  V30 30 2 14 31
M  V30 31 1 9 3
M  V30 32 1 31 10
M  V30 33 1 30 16
M  V30 34 1 26 20
M  V30 35 1 1 32
M  V30 36 1 1 33
M  V30 37 1 1 34
M  V30 38 1 4 35
M  V30 39 1 5 36
M  V30 40 1 8 37
M  V30 41 1 11 38
M  V30 42 1 12 39
M  V30 43 1 15 40
M  V30 44 1 17 41
M  V30 45 1 18 42
M  V30 46 1 21 43
M  V30 47 1 21 44
M  V30 48 1 22 45
M  V30 49 1 22 46
M  V30 50 1 24 47
M  V30 51 1 24 48
M  V30 52 1 24 49
M  V30 53 1 25 50
M  V30 54 1 25 51
M  V30 55 1 26 52
M  V30 56 1 26 53
M  V30 57 1 29 54
M  V30 58 1 29 55
M  V30 59 1 29 56
M  V30 60 1 30 57
M  V30 61 1 31 58
M  V30 END BOND
M  V30 END CTAB
M  END
>  <Dataset>  (29) 
ChEMBL_Kinases

>  <Ligand_Instance>  (29) 
nan

>  <PDB_ID>  (29) 
nan

>  <Standardized_SMILES>  (29) 
COc1ccc(Cl)cc1-c1ccnc(Nc2ccc(N3CCN(C)CC3)c(OC)c2)c1

>  <Name>  (29) 
nan

>  <Pocket>  (29) 
nan

>  <ATP_Site>  (29) 
nan

>  <Peripheral>  (29) 
nan

>  <Num_H_Atoms_ProtBoundConf>  (29) 
nan

>  <Num_Resolved_Atoms>  (29) 
nan

>  <Num_Not_Resolved_Atoms>  (29) 
nan

$$$$
CHEMBL2312144
     RDKit          3D

  0  0  0  0  0  0  0  0  0  0999 V3000
M  V30 BEGIN CTAB
M  V30 COUNTS 59 62 0 0 0
M  V30 BEGIN ATOM
M  V30 1 C 4.959719 0.716869 -2.493899 0
M  V30 2 O 4.401381 1.096894 -1.270341 0
M  V30 3 C 4.999499 0.945861 -0.030063 0
M  V30 4 C 6.263061 0.370522 0.035769 0
M  V30 5 C 6.855074 0.221650 1.266301 0
M  V30 6 C 6.182210 0.643292 2.376931 0
M  V30 7 C 6.823244 0.474776 3.643108 0
M  V30 8 N 7.336037 0.339396 4.678958 0
M  V30 9 C 4.921178 1.220060 2.336570 0
M  V30 10 C 4.317037 1.375104 1.112631 0
M  V30 11 C 2.985122 1.964217 0.907306 0
M  V30 12 C 2.703174 2.882152 -0.089655 0
M  V30 13 C 1.427510 3.403331 -0.237483 0
M  V30 14 N 0.499626 2.973032 0.627499 0
M  V30 15 C 0.751662 2.091698 1.591892 0
M  V30 16 N -0.446386 1.830282 2.352346 0
M  V30 17 C -1.283192 0.742828 1.974405 0
M  V30 18 C -2.483855 0.465176 2.616257 0
M  V30 19 C -3.275271 -0.611027 2.220947 0
M  V30 20 C -2.856967 -1.422669 1.165143 0
M  V30 21 N -3.702410 -2.487492 0.818913 0
M  V30 22 C -4.221924 -2.547511 -0.517770 0
M  V30 23 C -3.886942 -3.941221 -1.047821 0
M  V30 24 N -4.821188 -4.849194 -0.397793 0
M  V30 25 C -6.007693 -4.901917 -1.235264 0
M  V30 26 C -5.215281 -4.410388 0.907788 0
M  V30 27 C -4.171255 -3.602302 1.632347 0
M  V30 28 C -1.681458 -1.171751 0.517827 0
M  V30 29 O -1.259458 -1.962836 -0.521304 0
M  V30 30 C -0.039488 -1.691724 -1.183998 0
M  V30 31 C -0.933147 -0.097663 0.943222 0
M  V30 32 C 1.997130 1.555858 1.768618 0
M  V30 33 H 4.103824 0.527710 -3.186172 0
M  V30 34 H 5.531795 -0.222965 -2.422940 0
M  V30 35 H 5.585929 1.554440 -2.879813 0
M  V30 36 H 6.783460 0.042508 -0.839865 0
M  V30 37 H 7.850385 -0.232162 1.315410 0
M  V30 38 H 4.382173 1.555384 3.204445 0
M  V30 39 H 3.498887 3.188103 -0.756468 0
M  V30 40 H 1.231892 4.129548 -1.036949 0
M  V30 41 H -0.758477 2.400146 3.190253 0
M  V30 42 H -2.731823 1.147159 3.426868 0
M  V30 43 H -4.203645 -0.786359 2.752863 0
M  V30 44 H -3.913344 -1.737245 -1.177662 0
M  V30 45 H -5.329635 -2.506779 -0.447644 0
M  V30 46 H -2.873727 -4.185565 -0.661963 0
M  V30 47 H -3.927682 -3.995270 -2.140329 0
M  V30 48 H -6.752032 -5.639285 -0.909974 0
M  V30 49 H -5.743318 -5.194416 -2.291246 0
M  V30 50 H -6.498699 -3.921976 -1.336461 0
M  V30 51 H -5.373530 -5.334750 1.531927 0
M  V30 52 H -6.194394 -3.870100 0.917025 0
M  V30 53 H -3.347534 -4.289253 1.912074 0
M  V30 54 H -4.640750 -3.251094 2.572623 0
M  V30 55 H -0.118847 -0.708055 -1.692535 0
M  V30 56 H 0.055291 -2.506282 -1.953982 0
M  V30 57 H 0.841489 -1.738012 -0.547271 0
M  V30 58 H 0.001960 0.088665 0.416630 0
M  V30 59 H 2.072469 0.855665 2.581317 0
M  V30 END ATOM
M  V30 BEGIN BOND
M  V30 1 1 1 2
M  V30 2 1 2 3
M  V30 3 2 3 4
M  V30 4 1 4 5
M  V30 5 2 5 6
M  V30 6 1 6 7
M  V30 7 3 7 8
M  V30 8 1 6 9
M  V30 9 2 9 10
M  V30 10 1 10 11
M  V30 11 2 11 12
M  V30 12 1 12 13
M  V30 13 2 13 14
M  V30 14 1 14 15
M  V30 15 1 15 16
M  V30 16 1 16 17
M  V30 17 2 17 18
M  V30 18 1 18 19
M  V30 19 2 19 20
M  V30 20 1 20 21
M  V30 21 1 21 22
M  V30 22 1 22 23
M  V30 23 1 23 24
M  V30 24 1 24 25
M  V30 25 1 24 26
M  V30 26 1 26 27
M  V30 27 1 20 28
M  V30 28 1 28 29
M  V30 29 1 29 30
M  V30 30 2 28 31
M  V30 31 2 15 32
M  V30 32 1 10 3
M  V30 33 1 32 11
M  V30 34 1 31 17
M  V30 35 1 27 21
M  V30 36 1 1 33
M  V30 37 1 1 34
M  V30 38 1 1 35
M  V30 39 1 4 36
M  V30 40 1 5 37
M  V30 41 1 9 38
M  V30 42 1 12 39
M  V30 43 1 13 40
M  V30 44 1 16 41
M  V30 45 1 18 42
M  V30 46 1 19 43
M  V30 47 1 22 44
M  V30 48 1 22 45
M  V30 49 1 23 46
M  V30 50 1 23 47
M  V30 51 1 25 48
M  V30 52 1 25 49
M  V30 53 1 25 50
M  V30 54 1 26 51
M  V30 55 1 26 52
M  V30 56 1 27 53
M  V30 57 1 27 54
M  V30 58 1 30 55
M  V30 59 1 30 56
M  V30 60 1 30 57
M  V30 61 1 31 58
M  V30 62 1 32 59
M  V30 END BOND
M  V30 END CTAB
M  END
>  <Dataset>  (30) 
ChEMBL_Kinases

>  <Ligand_Instance>  (30) 
nan

>  <PDB_ID>  (30) 
nan

>  <Standardized_SMILES>  (30) 
COc1ccc(C#N)cc1-c1ccnc(Nc2ccc(N3CCN(C)CC3)c(OC)c2)c1

>  <Name>  (30) 
nan

>  <Pocket>  (30) 
nan

>  <ATP_Site>  (30) 
nan

>  <Peripheral>  (30) 
nan

>  <Num_H_Atoms_ProtBoundConf>  (30) 
nan

>  <Num_Resolved_Atoms>  (30) 
nan

>  <Num_Not_Resolved_Atoms>  (30) 
nan

$$$$
CHEMBL2312143
     RDKit          3D

  0  0  0  0  0  0  0  0  0  0999 V3000
M  V30 BEGIN CTAB
M  V30 COUNTS 55 58 0 0 0
M  V30 BEGIN ATOM
M  V30 1 C 0.264324 1.281292 4.402334 0
M  V30 2 O 1.096577 1.587372 3.312923 0
M  V30 3 C 2.428336 1.238392 3.254979 0
M  V30 4 C 3.171516 0.561180 4.209333 0
M  V30 5 C 4.504131 0.256050 4.060316 0
M  V30 6 C 5.141526 0.642473 2.901019 0
M  V30 7 C 6.530113 0.299972 2.804540 0
M  V30 8 N 7.674595 0.014727 2.740999 0
M  V30 9 C 4.482134 1.321847 1.893967 0
M  V30 10 C 3.147666 1.595164 2.109555 0
M  V30 11 C 2.415677 2.339501 1.055537 0
M  V30 12 C 1.887651 3.598767 1.233716 0
M  V30 13 C 1.164141 4.164318 0.170787 0
M  V30 14 N 1.007420 3.472411 -0.969568 0
M  V30 15 C 1.512254 2.243435 -1.163513 0
M  V30 16 N 1.375591 1.361248 -2.286097 0
M  V30 17 C 0.487989 0.291440 -1.918847 0
M  V30 18 C -0.223507 0.263474 -0.732530 0
M  V30 19 C -1.076010 -0.756750 -0.302133 0
M  V30 20 C -1.224851 -1.840131 -1.135192 0
M  V30 21 N -2.062405 -2.916420 -0.737726 0
M  V30 22 C -2.894346 -2.994074 0.441644 0
M  V30 23 C -4.327333 -2.935293 -0.050200 0
M  V30 24 N -4.656917 -3.972008 -0.952649 0
M  V30 25 C -5.848010 -4.704723 -0.721011 0
M  V30 26 C -3.634422 -4.575181 -1.708805 0
M  V30 27 C -2.231791 -4.175805 -1.442636 0
M  V30 28 C -0.547495 -1.875478 -2.330284 0
M  V30 29 C 0.280665 -0.838318 -2.704000 0
M  V30 30 C 2.249585 1.621793 -0.138597 0
M  V30 31 H -0.729950 0.892730 4.055430 0
M  V30 32 H 0.695346 0.570016 5.129965 0
M  V30 33 H -0.006230 2.247189 4.915512 0
M  V30 34 H 2.666314 0.261880 5.112853 0
M  V30 35 H 4.984884 -0.278351 4.870049 0
M  V30 36 H 5.006407 1.606648 1.014709 0
M  V30 37 H 2.044975 4.103513 2.164128 0
M  V30 38 H 0.739612 5.141614 0.270010 0
M  V30 39 H 1.770276 1.357163 -3.239551 0
M  V30 40 H -0.143997 1.093133 -0.043316 0
M  V30 41 H -1.560344 -0.634369 0.653005 0
M  V30 42 H -2.682680 -3.940366 0.993263 0
M  V30 43 H -2.760220 -2.112425 1.118833 0
M  V30 44 H -4.460384 -1.935838 -0.527001 0
M  V30 45 H -4.991807 -2.989392 0.841937 0
M  V30 46 H -6.694845 -3.955271 -0.692203 0
M  V30 47 H -5.851431 -5.348353 0.164745 0
M  V30 48 H -6.054913 -5.308628 -1.632950 0
M  V30 49 H -3.919573 -4.494689 -2.790101 0
M  V30 50 H -3.703510 -5.689513 -1.516660 0
M  V30 51 H -1.762520 -4.944873 -0.754436 0
M  V30 52 H -1.643973 -4.241513 -2.378970 0
M  V30 53 H -0.605773 -2.670369 -3.037339 0
M  V30 54 H 0.822341 -0.864164 -3.654571 0
M  V30 55 H 2.692270 0.622620 -0.227953 0
M  V30 END ATOM
M  V30 BEGIN BOND
M  V30 1 1 1 2
M  V30 2 1 2 3
M  V30 3 2 3 4
M  V30 4 1 4 5
M  V30 5 2 5 6
M  V30 6 1 6 7
M  V30 7 3 7 8
M  V30 8 1 6 9
M  V30 9 2 9 10
M  V30 10 1 10 11
M  V30 11 2 11 12
M  V30 12 1 12 13
M  V30 13 2 13 14
M  V30 14 1 14 15
M  V30 15 1 15 16
M  V30 16 1 16 17
M  V30 17 2 17 18
M  V30 18 1 18 19
M  V30 19 2 19 20
M  V30 20 1 20 21
M  V30 21 1 21 22
M  V30 22 1 22 23
M  V30 23 1 23 24
M  V30 24 1 24 25
M  V30 25 1 24 26
M  V30 26 1 26 27
M  V30 27 1 20 28
M  V30 28 2 28 29
M  V30 29 2 15 30
M  V30 30 1 10 3
M  V30 31 1 30 11
M  V30 32 1 29 17
M  V30 33 1 27 21
M  V30 34 1 1 31
M  V30 35 1 1 32
M  V30 36 1 1 33
M  V30 37 1 4 34
M  V30 38 1 5 35
M  V30 39 1 9 36
M  V30 40 1 12 37
M  V30 41 1 13 38
M  V30 42 1 16 39
M  V30 43 1 18 40
M  V30 44 1 19 41
M  V30 45 1 22 42
M  V30 46 1 22 43
M  V30 47 1 23 44
M  V30 48 1 23 45
M  V30 49 1 25 46
M  V30 50 1 25 47
M  V30 51 1 25 48
M  V30 52 1 26 49
M  V30 53 1 26 50
M  V30 54 1 27 51
M  V30 55 1 27 52
M  V30 56 1 28 53
M  V30 57 1 29 54
M  V30 58 1 30 55
M  V30 END BOND
M  V30 END CTAB
M  END
>  <Dataset>  (31) 
ChEMBL_Kinases

>  <Ligand_Instance>  (31) 
nan

>  <PDB_ID>  (31) 
nan

>  <Standardized_SMILES>  (31) 
COc1ccc(C#N)cc1-c1ccnc(Nc2ccc(N3CCN(C)CC3)cc2)c1

>  <Name>  (31) 
nan

>  <Pocket>  (31) 
nan

>  <ATP_Site>  (31) 
nan

>  <Peripheral>  (31) 
nan

>  <Num_H_Atoms_ProtBoundConf>  (31) 
nan

>  <Num_Resolved_Atoms>  (31) 
nan

>  <Num_Not_Resolved_Atoms>  (31) 
nan

$$$$
CHEMBL2312142
     RDKit          3D

  0  0  0  0  0  0  0  0  0  0999 V3000
M  V30 BEGIN CTAB
M  V30 COUNTS 55 58 0 0 0
M  V30 BEGIN ATOM
M  V30 1 C -3.053592 -1.364992 4.575168 0
M  V30 2 O -2.970334 -1.898052 3.258576 0
M  V30 3 C -1.861638 -1.710076 2.453380 0
M  V30 4 C -0.754140 -0.994858 2.862399 0
M  V30 5 C 0.335946 -0.824820 2.038215 0
M  V30 6 N 1.468258 -0.088024 2.489017 0
M  V30 7 C 2.612656 0.197614 1.696119 0
M  V30 8 C 2.552917 1.432957 1.046419 0
M  V30 9 C 3.576235 1.885050 0.224547 0
M  V30 10 C 3.474914 3.199350 -0.438787 0
M  V30 11 C 2.218490 3.675856 -0.813743 0
M  V30 12 C 2.036083 4.905955 -1.444147 0
M  V30 13 C 3.164739 5.688108 -1.708567 0
M  V30 14 C 4.393598 5.191598 -1.327247 0
M  V30 15 C 5.519745 6.052756 -1.628758 0
M  V30 16 N 6.433594 6.737920 -1.888991 0
M  V30 17 C 4.592315 3.976073 -0.701696 0
M  V30 18 C 4.696564 1.069375 0.048958 0
M  V30 19 C 4.726394 -0.161037 0.712805 0
M  V30 20 N 3.710002 -0.580598 1.512792 0
M  V30 21 C 0.302720 -1.388212 0.780193 0
M  V30 22 C -0.770915 -2.114854 0.307084 0
M  V30 23 C -1.833986 -2.254247 1.171968 0
M  V30 24 N -2.983305 -3.002542 0.739216 0
M  V30 25 C -3.497872 -4.202426 1.382925 0
M  V30 26 C -4.038445 -5.208238 0.433915 0
M  V30 27 N -3.788862 -5.001302 -0.943557 0
M  V30 28 C -2.834589 -5.880096 -1.558362 0
M  V30 29 C -3.858898 -3.687661 -1.450951 0
M  V30 30 C -3.745343 -2.591230 -0.426432 0
M  V30 31 H -2.776924 -0.273285 4.524108 0
M  V30 32 H -2.369715 -1.863171 5.276556 0
M  V30 33 H -4.080182 -1.408242 4.969379 0
M  V30 34 H -0.735412 -0.552638 3.856781 0
M  V30 35 H 1.491038 0.280793 3.457462 0
M  V30 36 H 1.707420 2.114701 1.143730 0
M  V30 37 H 1.294332 3.111142 -0.638292 0
M  V30 38 H 1.042366 5.241914 -1.719702 0
M  V30 39 H 3.044804 6.642151 -2.195434 0
M  V30 40 H 5.579463 3.621832 -0.416496 0
M  V30 41 H 5.509223 1.396460 -0.587683 0
M  V30 42 H 5.580935 -0.826247 0.602282 0
M  V30 43 H 1.163830 -1.264138 0.107025 0
M  V30 44 H -0.794101 -2.561321 -0.696811 0
M  V30 45 H -4.291885 -3.847979 2.096891 0
M  V30 46 H -2.730077 -4.685538 2.050756 0
M  V30 47 H -3.660302 -6.241716 0.674959 0
M  V30 48 H -5.146488 -5.292118 0.577142 0
M  V30 49 H -3.390517 -6.739162 -2.018304 0
M  V30 50 H -2.144071 -6.355949 -0.809547 0
M  V30 51 H -2.245861 -5.447255 -2.371339 0
M  V30 52 H -3.079470 -3.566555 -2.253848 0
M  V30 53 H -4.833202 -3.548607 -1.981971 0
M  V30 54 H -4.741527 -2.258624 -0.059698 0
M  V30 55 H -3.271845 -1.676733 -0.883155 0
M  V30 END ATOM
M  V30 BEGIN BOND
M  V30 1 1 1 2
M  V30 2 1 2 3
M  V30 3 2 3 4
M  V30 4 1 4 5
M  V30 5 1 5 6
M  V30 6 1 6 7
M  V30 7 2 7 8
M  V30 8 1 8 9
M  V30 9 1 9 10
M  V30 10 2 10 11
M  V30 11 1 11 12
M  V30 12 2 12 13
M  V30 13 1 13 14
M  V30 14 1 14 15
M  V30 15 3 15 16
M  V30 16 2 14 17
M  V30 17 2 9 18
M  V30 18 1 18 19
M  V30 19 2 19 20
M  V30 20 2 5 21
M  V30 21 1 21 22
M  V30 22 2 22 23
M  V30 23 1 23 24
M  V30 24 1 24 25
M  V30 25 1 25 26
M  V30 26 1 26 27
M  V30 27 1 27 28
M  V30 28 1 27 29
M  V30 29 1 29 30
M  V30 30 1 23 3
M  V30 31 1 30 24
M  V30 32 1 20 7
M  V30 33 1 17 10
M  V30 34 1 1 31
M  V30 35 1 1 32
M  V30 36 1 1 33
M  V30 37 1 4 34
M  V30 38 1 6 35
M  V30 39 1 8 36
M  V30 40 1 11 37
M  V30 41 1 12 38
M  V30 42 1 13 39
M  V30 43 1 17 40
M  V30 44 1 18 41
M  V30 45 1 19 42
M  V30 46 1 21 43
M  V30 47 1 22 44
M  V30 48 1 25 45
M  V30 49 1 25 46
M  V30 50 1 26 47
M  V30 51 1 26 48
M  V30 52 1 28 49
M  V30 53 1 28 50
M  V30 54 1 28 51
M  V30 55 1 29 52
M  V30 56 1 29 53
M  V30 57 1 30 54
M  V30 58 1 30 55
M  V30 END BOND
M  V30 END CTAB
M  END
>  <Dataset>  (32) 
ChEMBL_Kinases

>  <Ligand_Instance>  (32) 
nan

>  <PDB_ID>  (32) 
nan

>  <Standardized_SMILES>  (32) 
COc1cc(Nc2cc(-c3cccc(C#N)c3)ccn2)ccc1N1CCN(C)CC1

>  <Name>  (32) 
nan

>  <Pocket>  (32) 
nan

>  <ATP_Site>  (32) 
nan

>  <Peripheral>  (32) 
nan

>  <Num_H_Atoms_ProtBoundConf>  (32) 
nan

>  <Num_Resolved_Atoms>  (32) 
nan

>  <Num_Not_Resolved_Atoms>  (32) 
nan

$$$$
CHEMBL2312141
     RDKit          3D

  0  0  0  0  0  0  0  0  0  0999 V3000
M  V30 BEGIN CTAB
M  V30 COUNTS 58 61 0 0 0
M  V30 BEGIN ATOM
M  V30 1 C -2.953013 -1.678042 -1.801358 0
M  V30 2 O -2.375167 -2.851190 -1.293765 0
M  V30 3 C -1.317574 -2.810789 -0.408067 0
M  V30 4 C -0.752437 -1.637720 0.042328 0
M  V30 5 C 0.299652 -1.520569 0.921835 0
M  V30 6 N 0.870571 -0.325730 1.376464 0
M  V30 7 C 0.512233 1.004329 1.042079 0
M  V30 8 C 1.179023 2.073392 1.581592 0
M  V30 9 C 0.892536 3.390827 1.307993 0
M  V30 10 C 1.652928 4.471750 1.926394 0
M  V30 11 C 1.079753 5.693746 2.206281 0
M  V30 12 C 1.797137 6.725983 2.794330 0
M  V30 13 C 3.132712 6.480467 3.095203 0
M  V30 14 C 3.752116 5.267137 2.831988 0
M  V30 15 C 5.199271 5.069760 3.183019 0
M  V30 16 C 5.161344 4.545421 4.570226 0
M  V30 17 N 5.136498 4.148106 5.677149 0
M  V30 18 C 2.999508 4.269464 2.246329 0
M  V30 19 C -0.127503 3.701112 0.436848 0
M  V30 20 C -0.787039 2.631480 -0.096520 0
M  V30 21 N -0.468061 1.367842 0.203336 0
M  V30 22 C 0.791082 -2.732471 1.357856 0
M  V30 23 C 0.282621 -3.946606 0.955799 0
M  V30 24 C -0.773926 -4.001358 0.071317 0
M  V30 25 N -1.295905 -5.253643 -0.341079 0
M  V30 26 C -2.663858 -5.601585 -0.091533 0
M  V30 27 C -3.118967 -6.722048 -0.962524 0
M  V30 28 N -2.646757 -6.655261 -2.323159 0
M  V30 29 C -3.418009 -5.733564 -3.131236 0
M  V30 30 C -1.237931 -6.384109 -2.420101 0
M  V30 31 C -0.617595 -6.353734 -1.041754 0
M  V30 32 H -3.844106 -1.939098 -2.410138 0
M  V30 33 H -3.222988 -1.038490 -0.936045 0
M  V30 34 H -2.207706 -1.167227 -2.435369 0
M  V30 35 H -1.208514 -0.762606 -0.357254 0
M  V30 36 H 1.676503 -0.415451 2.060284 0
M  V30 37 H 1.997977 1.912431 2.278719 0
M  V30 38 H 0.041815 5.839227 1.955893 0
M  V30 39 H 1.367232 7.693901 3.023070 0
M  V30 40 H 3.742384 7.269029 3.562498 0
M  V30 41 H 5.738499 6.036451 3.181152 0
M  V30 42 H 5.667016 4.312129 2.506946 0
M  V30 43 H 3.499794 3.321101 2.045344 0
M  V30 44 H -0.369304 4.711723 0.208469 0
M  V30 45 H -1.608310 2.796264 -0.796003 0
M  V30 46 H 1.627457 -2.785821 2.059975 0
M  V30 47 H 0.690136 -4.877296 1.315933 0
M  V30 48 H -3.339027 -4.720599 -0.066314 0
M  V30 49 H -2.689819 -6.000282 0.964989 0
M  V30 50 H -4.246152 -6.705253 -1.024186 0
M  V30 51 H -2.793752 -7.688801 -0.532628 0
M  V30 52 H -4.060073 -6.262441 -3.843752 0
M  V30 53 H -4.013513 -5.057439 -2.462254 0
M  V30 54 H -2.705906 -5.083187 -3.681688 0
M  V30 55 H -1.075818 -5.443551 -2.978331 0
M  V30 56 H -0.763336 -7.207145 -2.990555 0
M  V30 57 H -0.787928 -7.316742 -0.556539 0
M  V30 58 H 0.446807 -6.091076 -1.122222 0
M  V30 END ATOM
M  V30 BEGIN BOND
M  V30 1 1 1 2
M  V30 2 1 2 3
M  V30 3 2 3 4
M  V30 4 1 4 5
M  V30 5 1 5 6
M  V30 6 1 6 7
M  V30 7 2 7 8
M  V30 8 1 8 9
M  V30 9 1 9 10
M  V30 10 2 10 11
M  V30 11 1 11 12
M  V30 12 2 12 13
M  V30 13 1 13 14
M  V30 14 1 14 15
M  V30 15 1 15 16
M  V30 16 3 16 17
M  V30 17 2 14 18
M  V30 18 2 9 19
M  V30 19 1 19 20
M  V30 20 2 20 21
M  V30 21 2 5 22
M  V30 22 1 22 23
M  V30 23 2 23 24
M  V30 24 1 24 25
M  V30 25 1 25 26
M  V30 26 1 26 27
M  V30 27 1 27 28
M  V30 28 1 28 29
M  V30 29 1 28 30
M  V30 30 1 30 31
M  V30 31 1 24 3
M  V30 32 1 31 25
M  V30 33 1 21 7
M  V30 34 1 18 10
M  V30 35 1 1 32
M  V30 36 1 1 33
M  V30 37 1 1 34
M  V30 38 1 4 35
M  V30 39 1 6 36
M  V30 40 1 8 37
M  V30 41 1 11 38
M  V30 42 1 12 39
M  V30 43 1 13 40
M  V30 44 1 15 41
M  V30 45 1 15 42
M  V30 46 1 18 43
M  V30 47 1 19 44
M  V30 48 1 20 45
M  V30 49 1 22 46
M  V30 50 1 23 47
M  V30 51 1 26 48
M  V30 52 1 26 49
M  V30 53 1 27 50
M  V30 54 1 27 51
M  V30 55 1 29 52
M  V30 56 1 29 53
M  V30 57 1 29 54
M  V30 58 1 30 55
M  V30 59 1 30 56
M  V30 60 1 31 57
M  V30 61 1 31 58
M  V30 END BOND
M  V30 END CTAB
M  END
>  <Dataset>  (33) 
ChEMBL_Kinases

>  <Ligand_Instance>  (33) 
nan

>  <PDB_ID>  (33) 
nan

>  <Standardized_SMILES>  (33) 
COc1cc(Nc2cc(-c3cccc(CC#N)c3)ccn2)ccc1N1CCN(C)CC1

>  <Name>  (33) 
nan

>  <Pocket>  (33) 
nan

>  <ATP_Site>  (33) 
nan

>  <Peripheral>  (33) 
nan

>  <Num_H_Atoms_ProtBoundConf>  (33) 
nan

>  <Num_Resolved_Atoms>  (33) 
nan

>  <Num_Not_Resolved_Atoms>  (33) 
nan

$$$$
CHEMBL2311568
     RDKit          3D

  0  0  0  0  0  0  0  0  0  0999 V3000
M  V30 BEGIN CTAB
M  V30 COUNTS 43 45 0 0 0
M  V30 BEGIN ATOM
M  V30 1 C -0.469120 -4.092048 0.778464 0
M  V30 2 C -0.318293 -3.255320 2.000257 0
M  V30 3 C -1.615273 -3.306957 2.782391 0
M  V30 4 N -0.034217 -1.862133 1.722701 0
M  V30 5 C 1.122141 -1.413441 1.164371 0
M  V30 6 C 2.291492 -2.190252 0.719921 0
M  V30 7 C 2.799064 -1.687689 -0.610369 0
M  V30 8 O 3.902829 -2.411180 -1.053092 0
M  V30 9 C 3.459427 -2.029397 1.701903 0
M  V30 10 O 4.506177 -2.792468 1.195474 0
M  V30 11 N 1.079437 -0.052330 1.038778 0
M  V30 12 C -0.097539 0.357670 1.515231 0
M  V30 13 C -0.741685 1.548898 1.677219 0
M  V30 14 N -0.093885 2.744513 1.245451 0
M  V30 15 C -0.406440 3.267600 -0.057860 0
M  V30 16 C 0.187547 4.413572 -0.565720 0
M  V30 17 C -0.171249 4.860929 -1.821719 0
M  V30 18 N -1.085431 4.174766 -2.518240 0
M  V30 19 N -1.671897 3.089852 -2.081651 0
M  V30 20 C -1.348775 2.609537 -0.844327 0
M  V30 21 N -1.991542 1.633400 2.224991 0
M  V30 22 C -2.630945 0.501214 2.628363 0
M  V30 23 N -2.016276 -0.685674 2.478641 0
M  V30 24 C -0.795080 -0.774756 1.943850 0
M  V30 25 H -1.429789 -4.645548 0.796438 0
M  V30 26 H -0.482929 -3.513878 -0.160014 0
M  V30 27 H 0.305395 -4.918099 0.761315 0
M  V30 28 H 0.464231 -3.691080 2.659145 0
M  V30 29 H -1.540644 -2.667049 3.703795 0
M  V30 30 H -2.497676 -3.008785 2.218232 0
M  V30 31 H -1.772890 -4.338446 3.152013 0
M  V30 32 H 2.086444 -3.278186 0.604643 0
M  V30 33 H 3.106381 -0.599936 -0.534418 0
M  V30 34 H 2.032240 -1.705212 -1.412378 0
M  V30 35 H 4.314682 -1.925500 -1.808916 0
M  V30 36 H 3.763572 -0.969332 1.785143 0
M  V30 37 H 3.163139 -2.364836 2.716101 0
M  V30 38 H 4.223896 -3.675728 0.904899 0
M  V30 39 H 0.612417 3.282218 1.823099 0
M  V30 40 H 0.920219 4.931172 0.034995 0
M  V30 41 H 0.334741 5.766170 -2.154289 0
M  V30 42 H -1.859220 1.710159 -0.530754 0
M  V30 43 H -3.629710 0.584208 3.064713 0
M  V30 END ATOM
M  V30 BEGIN BOND
M  V30 1 1 1 2
M  V30 2 1 2 3
M  V30 3 1 2 4
M  V30 4 1 4 5
M  V30 5 1 5 6
M  V30 6 1 6 7
M  V30 7 1 7 8
M  V30 8 1 6 9
M  V30 9 1 9 10
M  V30 10 2 5 11
M  V30 11 1 11 12
M  V30 12 2 12 13
M  V30 13 1 13 14
M  V30 14 1 14 15
M  V30 15 2 15 16
M  V30 16 1 16 17
M  V30 17 2 17 18
M  V30 18 1 18 19
M  V30 19 2 19 20
M  V30 20 1 13 21
M  V30 21 2 21 22
M  V30 22 1 22 23
M  V30 23 2 23 24
M  V30 24 1 24 4
M  V30 25 1 24 12
M  V30 26 1 20 15
M  V30 27 1 1 25
M  V30 28 1 1 26
M  V30 29 1 1 27
M  V30 30 1 2 28
M  V30 31 1 3 29
M  V30 32 1 3 30
M  V30 33 1 3 31
M  V30 34 1 6 32
M  V30 35 1 7 33
M  V30 36 1 7 34
M  V30 37 1 8 35
M  V30 38 1 9 36
M  V30 39 1 9 37
M  V30 40 1 10 38
M  V30 41 1 14 39
M  V30 42 1 16 40
M  V30 43 1 17 41
M  V30 44 1 20 42
M  V30 45 1 22 43
M  V30 END BOND
M  V30 END CTAB
M  END
>  <Dataset>  (34) 
ChEMBL_Kinases

>  <Ligand_Instance>  (34) 
nan

>  <PDB_ID>  (34) 
nan

>  <Standardized_SMILES>  (34) 
CC(C)n1c(C(CO)CO)nc2c(Nc3ccnnc3)ncnc21

>  <Name>  (34) 
nan

>  <Pocket>  (34) 
nan

>  <ATP_Site>  (34) 
nan

>  <Peripheral>  (34) 
nan

>  <Num_H_Atoms_ProtBoundConf>  (34) 
nan

>  <Num_Resolved_Atoms>  (34) 
nan

>  <Num_Not_Resolved_Atoms>  (34) 
nan

$$$$
CHEMBL231095
     RDKit          3D

  0  0  0  0  0  0  0  0  0  0999 V3000
M  V30 BEGIN CTAB
M  V30 COUNTS 37 40 0 0 0
M  V30 BEGIN ATOM
M  V30 1 C 1.522198 -6.110331 1.703074 0
M  V30 2 C 0.581493 -5.103879 1.599755 0
M  V30 3 C 0.978208 -3.770940 1.754873 0
M  V30 4 C 2.315366 -3.446990 2.013065 0
M  V30 5 N 2.633078 -2.067628 2.154237 0
M  V30 6 C 1.566618 -1.129579 1.992819 0
M  V30 7 N 1.359124 -0.666205 0.756447 0
M  V30 8 C 0.390741 0.218437 0.459823 0
M  V30 9 N 0.233423 0.619496 -0.865572 0
M  V30 10 C -0.441905 1.596503 -1.634348 0
M  V30 11 C -0.946427 1.414584 -2.927880 0
M  V30 12 C -1.555902 2.455154 -3.579616 0
M  V30 13 C -1.696759 3.698136 -3.006280 0
M  V30 14 C -1.204014 3.889496 -1.734601 0
M  V30 15 C -0.578305 2.837702 -1.054038 0
M  V30 16 N -0.391805 0.636654 1.484671 0
M  V30 17 N -1.415197 1.464454 1.550173 0
M  V30 18 C -1.899080 1.571413 2.793080 0
M  V30 19 C -1.148560 0.760481 3.613272 0
M  V30 20 C -0.228036 0.204099 2.745831 0
M  V30 21 N 0.760212 -0.678691 2.968546 0
M  V30 22 C 3.252843 -4.458967 2.115410 0
M  V30 23 C 2.847218 -5.768695 1.960383 0
M  V30 24 H 1.221170 -7.140370 1.585267 0
M  V30 25 H -0.480390 -5.316967 1.396544 0
M  V30 26 H 0.184388 -3.028302 1.660686 0
M  V30 27 H 3.590221 -1.714876 2.366610 0
M  V30 28 H 0.773164 0.049359 -1.590305 0
M  V30 29 H -0.791310 0.403328 -3.299479 0
M  V30 30 H -1.880705 2.124827 -4.567899 0
M  V30 31 H -2.197322 4.422233 -3.632592 0
M  V30 32 H -1.371802 4.908010 -1.385674 0
M  V30 33 H -0.262990 3.227427 -0.098315 0
M  V30 34 H -2.743405 2.188092 3.128650 0
M  V30 35 H -1.211052 0.564198 4.670243 0
M  V30 36 H 4.286486 -4.207602 2.315001 0
M  V30 37 H 3.546662 -6.600489 2.031113 0
M  V30 END ATOM
M  V30 BEGIN BOND
M  V30 1 2 1 2
M  V30 2 1 2 3
M  V30 3 2 3 4
M  V30 4 1 4 5
M  V30 5 1 5 6
M  V30 6 1 6 7
M  V30 7 2 7 8
M  V30 8 1 8 9
M  V30 9 1 9 10
M  V30 10 2 10 11
M  V30 11 1 11 12
M  V30 12 2 12 13
M  V30 13 1 13 14
M  V30 14 2 14 15
M  V30 15 1 8 16
M  V30 16 1 16 17
M  V30 17 2 17 18
M  V30 18 1 18 19
M  V30 19 2 19 20
M  V30 20 1 20 21
M  V30 21 1 4 22
M  V30 22 2 22 23
M  V30 23 1 23 1
M  V30 24 2 21 6
M  V30 25 1 15 10
M  V30 26 1 20 16
M  V30 27 1 1 24
M  V30 28 1 2 25
M  V30 29 1 3 26
M  V30 30 1 5 27
M  V30 31 1 9 28
M  V30 32 1 11 29
M  V30 33 1 12 30
M  V30 34 1 13 31
M  V30 35 1 14 32
M  V30 36 1 15 33
M  V30 37 1 18 34
M  V30 38 1 19 35
M  V30 39 1 22 36
M  V30 40 1 23 37
M  V30 END BOND
M  V30 END CTAB
M  END
>  <Dataset>  (35) 
ChEMBL_Kinases

>  <Ligand_Instance>  (35) 
nan

>  <PDB_ID>  (35) 
nan

>  <Standardized_SMILES>  (35) 
c1ccc(Nc2nc(Nc3ccccc3)n3nccc3n2)cc1

>  <Name>  (35) 
nan

>  <Pocket>  (35) 
nan

>  <ATP_Site>  (35) 
nan

>  <Peripheral>  (35) 
nan

>  <Num_H_Atoms_ProtBoundConf>  (35) 
nan

>  <Num_Resolved_Atoms>  (35) 
nan

>  <Num_Not_Resolved_Atoms>  (35) 
nan

$$$$
CHEMBL2048665
     RDKit          3D

  0  0  0  0  0  0  0  0  0  0999 V3000
M  V30 BEGIN CTAB
M  V30 COUNTS 37 40 0 0 0
M  V30 BEGIN ATOM
M  V30 1 O 1.354042 -1.389248 -0.181749 0
M  V30 2 C 1.224257 -0.796429 -1.279990 0
M  V30 3 N 2.044888 -1.311309 -2.313876 0
M  V30 4 C 2.818149 -2.403903 -1.789930 0
M  V30 5 C 2.225964 -3.644690 -1.900306 0
M  V30 6 C 2.916900 -4.757038 -1.413124 0
M  V30 7 C 4.169420 -4.505071 -0.847563 0
M  V30 8 N 4.694339 -3.270182 -0.768621 0
M  V30 9 C 4.056734 -2.174364 -1.227894 0
M  V30 10 C 0.288423 0.316908 -1.399315 0
M  V30 11 C 0.134287 0.986757 -2.595973 0
M  V30 12 C -0.794052 2.029909 -2.565624 0
M  V30 13 N -1.486768 2.354922 -1.445690 0
M  V30 14 C -1.317323 1.685910 -0.292968 0
M  V30 15 N -1.847136 1.779275 0.939829 0
M  V30 16 C -1.324409 0.849119 1.752679 0
M  V30 17 C -1.560079 0.536323 3.159638 0
M  V30 18 C -0.910293 -0.483166 3.840497 0
M  V30 19 C -1.179729 -0.725591 5.170109 0
M  V30 20 C -2.104915 0.030637 5.885896 0
M  V30 21 F -2.351462 -0.224028 7.182126 0
M  V30 22 C -2.782474 1.068538 5.236921 0
M  V30 23 C -2.468749 1.260867 3.906679 0
M  V30 24 N -0.446705 0.158027 1.009138 0
M  V30 25 C -0.409665 0.635697 -0.249570 0
M  V30 26 H 1.968636 -0.839500 -3.263497 0
M  V30 27 H 1.246500 -3.785060 -2.350460 0
M  V30 28 H 2.454637 -5.717823 -1.500240 0
M  V30 29 H 4.695873 -5.394520 -0.470555 0
M  V30 30 H 4.486411 -1.185128 -1.160256 0
M  V30 31 H 0.687525 0.725905 -3.487240 0
M  V30 32 H -0.974270 2.605711 -3.462974 0
M  V30 33 H -2.568160 2.469346 1.254570 0
M  V30 34 H -0.192214 -1.065361 3.273413 0
M  V30 35 H -0.657388 -1.527517 5.674901 0
M  V30 36 H -3.510172 1.691797 5.731056 0
M  V30 37 H -2.983376 2.057854 3.392934 0
M  V30 END ATOM
M  V30 BEGIN BOND
M  V30 1 2 1 2
M  V30 2 1 2 3
M  V30 3 1 3 4
M  V30 4 2 4 5
M  V30 5 1 5 6
M  V30 6 2 6 7
M  V30 7 1 7 8
M  V30 8 2 8 9
M  V30 9 1 2 10
M  V30 10 2 10 11
M  V30 11 1 11 12
M  V30 12 2 12 13
M  V30 13 1 13 14
M  V30 14 1 14 15
M  V30 15 1 15 16
M  V30 16 1 16 17
M  V30 17 2 17 18
M  V30 18 1 18 19
M  V30 19 2 19 20
M  V30 20 1 20 21
M  V30 21 1 20 22
M  V30 22 2 22 23
M  V30 23 2 16 24
M  V30 24 1 24 25
M  V30 25 1 9 4
M  V30 26 1 25 10
M  V30 27 2 25 14
M  V30 28 1 23 17
M  V30 29 1 3 26
M  V30 30 1 5 27
M  V30 31 1 6 28
M  V30 32 1 7 29
M  V30 33 1 9 30
M  V30 34 1 11 31
M  V30 35 1 12 32
M  V30 36 1 15 33
M  V30 37 1 18 34
M  V30 38 1 19 35
M  V30 39 1 22 36
M  V30 40 1 23 37
M  V30 END BOND
M  V30 END CTAB
M  END
>  <Dataset>  (36) 
ChEMBL_Kinases

>  <Ligand_Instance>  (36) 
nan

>  <PDB_ID>  (36) 
nan

>  <Standardized_SMILES>  (36) 
O=C(Nc1cccnc1)c1ccnc2[nH]c(-c3ccc(F)cc3)nc12

>  <Name>  (36) 
nan

>  <Pocket>  (36) 
nan

>  <ATP_Site>  (36) 
nan

>  <Peripheral>  (36) 
nan

>  <Num_H_Atoms_ProtBoundConf>  (36) 
nan

>  <Num_Resolved_Atoms>  (36) 
nan

>  <Num_Not_Resolved_Atoms>  (36) 
nan

$$$$
CHEMBL230886
     RDKit          3D

  0  0  0  0  0  0  0  0  0  0999 V3000
M  V30 BEGIN CTAB
M  V30 COUNTS 61 64 0 0 0
M  V30 BEGIN ATOM
M  V30 1 C 3.802865 -2.381181 4.016375 0
M  V30 2 C 3.941261 -2.814555 2.582932 0
M  V30 3 N 3.257353 -1.910043 1.667733 0
M  V30 4 C 1.863282 -2.256819 1.409398 0
M  V30 5 C 1.710055 -3.184897 0.252077 0
M  V30 6 C 3.992150 -0.792080 1.118775 0
M  V30 7 O 5.184962 -0.740257 1.501850 0
M  V30 8 C 3.117555 0.009812 0.232775 0
M  V30 9 C 2.999570 -0.298800 -1.124871 0
M  V30 10 C 2.147017 0.460670 -1.893047 0
M  V30 11 C 1.418456 1.500115 -1.367331 0
M  V30 12 C 1.512751 1.826829 -0.040612 0
M  V30 13 N 0.852382 2.767459 0.791421 0
M  V30 14 C -0.574464 2.721216 0.609660 0
M  V30 15 N -1.064135 1.631455 1.283438 0
M  V30 16 C -2.375017 1.324964 1.318627 0
M  V30 17 N -2.589336 0.117759 2.075579 0
M  V30 18 C -2.923840 -0.888775 1.121924 0
M  V30 19 C -4.039563 -0.700474 0.301477 0
M  V30 20 C -4.502064 -1.545819 -0.696712 0
M  V30 21 C -3.710520 -2.689831 -0.837579 0
M  V30 22 C -2.583550 -2.930868 -0.043168 0
M  V30 23 N -1.925496 -4.138151 -0.381479 0
M  V30 24 C -1.775882 -5.514095 -0.213797 0
M  V30 25 C -0.753659 -6.246492 -1.000752 0
M  V30 26 O -2.510030 -6.115160 0.601552 0
M  V30 27 C -2.205443 -2.029592 0.925080 0
M  V30 28 N -3.239685 2.122388 0.665547 0
M  V30 29 C -2.771103 3.202163 -0.004918 0
M  V30 30 C -3.291411 4.221267 -0.765780 0
M  V30 31 C -4.700832 4.373623 -1.047172 0
M  V30 32 N -5.821636 4.485806 -1.283627 0
M  V30 33 C -2.275005 5.072291 -1.211407 0
M  V30 34 N -1.126654 4.557288 -0.710724 0
M  V30 35 N -1.457492 3.486886 -0.025781 0
M  V30 36 C 2.376291 1.071214 0.770676 0
M  V30 37 H 2.885704 -2.752971 4.497503 0
M  V30 38 H 3.933038 -1.276605 4.132302 0
M  V30 39 H 4.657531 -2.845035 4.579209 0
M  V30 40 H 5.036486 -2.797325 2.364291 0
M  V30 41 H 3.529778 -3.814627 2.469549 0
M  V30 42 H 1.369456 -1.276588 1.138957 0
M  V30 43 H 1.332305 -2.634124 2.284633 0
M  V30 44 H 1.054558 -2.754043 -0.516379 0
M  V30 45 H 1.278560 -4.140145 0.645279 0
M  V30 46 H 2.710250 -3.464987 -0.176419 0
M  V30 47 H 3.553350 -1.096924 -1.563200 0
M  V30 48 H 1.987403 0.299875 -2.962882 0
M  V30 49 H 0.716915 2.169758 -1.865260 0
M  V30 50 H 1.314777 3.418717 1.444858 0
M  V30 51 H -2.492399 0.089759 3.097972 0
M  V30 52 H -4.624281 0.201733 0.450499 0
M  V30 53 H -5.378726 -1.298359 -1.264105 0
M  V30 54 H -4.054580 -3.382901 -1.624505 0
M  V30 55 H -1.267384 -3.686968 -1.080310 0
M  V30 56 H -0.350709 -5.598128 -1.823437 0
M  V30 57 H -1.153208 -7.159991 -1.500802 0
M  V30 58 H 0.125212 -6.553069 -0.399704 0
M  V30 59 H -1.348220 -2.252046 1.504173 0
M  V30 60 H -2.363698 5.960708 -1.826324 0
M  V30 61 H 2.560934 1.208354 1.831393 0
M  V30 END ATOM
M  V30 BEGIN BOND
M  V30 1 1 1 2
M  V30 2 1 2 3
M  V30 3 1 3 4
M  V30 4 1 4 5
M  V30 5 1 3 6
M  V30 6 2 6 7
M  V30 7 1 6 8
M  V30 8 2 8 9
M  V30 9 1 9 10
M  V30 10 2 10 11
M  V30 11 1 11 12
M  V30 12 1 12 13
M  V30 13 1 13 14
M  V30 14 2 14 15
M  V30 15 1 15 16
M  V30 16 1 16 17
M  V30 17 1 17 18
M  V30 18 2 18 19
M  V30 19 1 19 20
M  V30 20 2 20 21
M  V30 21 1 21 22
M  V30 22 1 22 23
M  V30 23 1 23 24
M  V30 24 1 24 25
M  V30 25 2 24 26
M  V30 26 2 22 27
M  V30 27 2 16 28
M  V30 28 1 28 29
M  V30 29 2 29 30
M  V30 30 1 30 31
M  V30 31 3 31 32
M  V30 32 1 30 33
M  V30 33 2 33 34
M  V30 34 1 34 35
M  V30 35 2 12 36
M  V30 36 1 36 8
M  V30 37 1 35 14
M  V30 38 1 27 18
M  V30 39 1 35 29
M  V30 40 1 1 37
M  V30 41 1 1 38
M  V30 42 1 1 39
M  V30 43 1 2 40
M  V30 44 1 2 41
M  V30 45 1 4 42
M  V30 46 1 4 43
M  V30 47 1 5 44
M  V30 48 1 5 45
M  V30 49 1 5 46
M  V30 50 1 9 47
M  V30 51 1 10 48
M  V30 52 1 11 49
M  V30 53 1 13 50
M  V30 54 1 17 51
M  V30 55 1 19 52
M  V30 56 1 20 53
M  V30 57 1 21 54
M  V30 58 1 23 55
M  V30 59 1 25 56
M  V30 60 1 25 57
M  V30 61 1 25 58
M  V30 62 1 27 59
M  V30 63 1 33 60
M  V30 64 1 36 61
M  V30 END BOND
M  V30 END CTAB
M  END
>  <Dataset>  (37) 
ChEMBL_Kinases

>  <Ligand_Instance>  (37) 
nan

>  <PDB_ID>  (37) 
nan

>  <Standardized_SMILES>  (37) 
CCN(CC)C(=O)c1cccc(Nc2nc(Nc3cccc(NC(C)=O)c3)nc3c(C#N)cnn23)c1

>  <Name>  (37) 
nan

>  <Pocket>  (37) 
nan

>  <ATP_Site>  (37) 
nan

>  <Peripheral>  (37) 
nan

>  <Num_H_Atoms_ProtBoundConf>  (37) 
nan

>  <Num_Resolved_Atoms>  (37) 
nan

>  <Num_Not_Resolved_Atoms>  (37) 
nan

$$$$
CHEMBL230871
     RDKit          3D

  0  0  0  0  0  0  0  0  0  0999 V3000
M  V30 BEGIN CTAB
M  V30 COUNTS 54 57 0 0 0
M  V30 BEGIN ATOM
M  V30 1 C 1.141822 -0.502656 2.915099 0
M  V30 2 S 2.256822 -1.738571 3.463392 0
M  V30 3 O 2.136226 -1.843003 4.960343 0
M  V30 4 O 1.785019 -3.054286 2.858808 0
M  V30 5 C 3.941759 -1.443456 3.047758 0
M  V30 6 C 4.235427 -1.368194 1.596864 0
M  V30 7 N 3.595227 -0.363255 0.824632 0
M  V30 8 C 4.179198 0.846135 0.722228 0
M  V30 9 N 3.466182 1.668605 -0.063775 0
M  V30 10 C 2.379219 1.006921 -0.503294 0
M  V30 11 C 1.427122 1.662613 -1.397932 0
M  V30 12 N 0.361669 2.378261 -0.784678 0
M  V30 13 C -0.768032 1.977250 -0.051779 0
M  V30 14 C -1.702419 2.855115 0.512252 0
M  V30 15 C -2.787112 2.358855 1.195910 0
M  V30 16 Br -3.971828 3.671898 1.907276 0
M  V30 17 C -3.014887 1.009822 1.363058 0
M  V30 18 N -4.100104 0.590632 2.044381 0
M  V30 19 C -4.374578 -0.716112 2.238267 0
M  V30 20 C -3.472290 -1.629565 1.694383 0
M  V30 21 C -3.653698 -3.066407 1.832678 0
M  V30 22 N -3.800702 -4.208868 1.959385 0
M  V30 23 C -2.341920 -1.211676 0.985088 0
M  V30 24 N -1.441379 -2.164127 0.438758 0
M  V30 25 C -1.646520 -2.643486 -0.875490 0
M  V30 26 C -0.835825 -3.575241 -1.536219 0
M  V30 27 C -1.103974 -3.993576 -2.821247 0
M  V30 28 C -2.187697 -3.511614 -3.518391 0
M  V30 29 F -2.417870 -3.947451 -4.779850 0
M  V30 30 C -3.018828 -2.591117 -2.913235 0
M  V30 31 Cl -4.403344 -1.964933 -3.782008 0
M  V30 32 C -2.711140 -2.202275 -1.627248 0
M  V30 33 C -2.106187 0.137395 0.814740 0
M  V30 34 C -1.032779 0.639086 0.138092 0
M  V30 35 C 2.499973 -0.226095 0.063933 0
M  V30 36 H 0.522204 -0.815871 2.059156 0
M  V30 37 H 0.380838 -0.258207 3.722596 0
M  V30 38 H 1.631119 0.468032 2.706169 0
M  V30 39 H 4.251963 -0.526028 3.607673 0
M  V30 40 H 4.600224 -2.259202 3.474823 0
M  V30 41 H 5.357169 -1.374528 1.408335 0
M  V30 42 H 3.884830 -2.356927 1.150750 0
M  V30 43 H 5.107672 1.228013 1.170291 0
M  V30 44 H 0.963517 0.867791 -2.071869 0
M  V30 45 H 1.994801 2.286021 -2.130737 0
M  V30 46 H 0.420649 3.431603 -0.895319 0
M  V30 47 H -1.511336 3.928107 0.373007 0
M  V30 48 H -5.232286 -1.089721 2.777575 0
M  V30 49 H -0.602998 -2.581423 0.902515 0
M  V30 50 H 0.021428 -3.943234 -0.957418 0
M  V30 51 H -0.428783 -4.723636 -3.276590 0
M  V30 52 H -3.408262 -1.475728 -1.213648 0
M  V30 53 H -0.379679 -0.125547 -0.256705 0
M  V30 54 H 1.805335 -1.039589 -0.064081 0
M  V30 END ATOM
M  V30 BEGIN BOND
M  V30 1 1 1 2
M  V30 2 2 2 3
M  V30 3 2 2 4
M  V30 4 1 2 5
M  V30 5 1 5 6
M  V30 6 1 6 7
M  V30 7 1 7 8
M  V30 8 2 8 9
M  V30 9 1 9 10
M  V30 10 1 10 11
M  V30 11 1 11 12
M  V30 12 1 12 13
M  V30 13 2 13 14
M  V30 14 1 14 15
M  V30 15 1 15 16
M  V30 16 2 15 17
M  V30 17 1 17 18
M  V30 18 2 18 19
M  V30 19 1 19 20
M  V30 20 1 20 21
M  V30 21 3 21 22
M  V30 22 2 20 23
M  V30 23 1 23 24
M  V30 24 1 24 25
M  V30 25 2 25 26
M  V30 26 1 26 27
M  V30 27 2 27 28
M  V30 28 1 28 29
M  V30 29 1 28 30
M  V30 30 1 30 31
M  V30 31 2 30 32
M  V30 32 1 23 33
M  V30 33 2 33 34
M  V30 34 2 10 35
M  V30 35 1 35 7
M  V30 36 1 34 13
M  V30 37 1 33 17
M  V30 38 1 32 25
M  V30 39 1 1 36
M  V30 40 1 1 37
M  V30 41 1 1 38
M  V30 42 1 5 39
M  V30 43 1 5 40
M  V30 44 1 6 41
M  V30 45 1 6 42
M  V30 46 1 8 43
M  V30 47 1 11 44
M  V30 48 1 11 45
M  V30 49 1 12 46
M  V30 50 1 14 47
M  V30 51 1 19 48
M  V30 52 1 24 49
M  V30 53 1 26 50
M  V30 54 1 27 51
M  V30 55 1 32 52
M  V30 56 1 34 53
M  V30 57 1 35 54
M  V30 END BOND
M  V30 END CTAB
M  END
>  <Dataset>  (38) 
ChEMBL_Kinases

>  <Ligand_Instance>  (38) 
nan

>  <PDB_ID>  (38) 
nan

>  <Standardized_SMILES>  (38) 
CS(=O)(=O)CCn1cnc(CNc2cc(Br)c3ncc(C#N)c(Nc4ccc(F)c(Cl)c4)c3c2)c1

>  <Name>  (38) 
nan

>  <Pocket>  (38) 
nan

>  <ATP_Site>  (38) 
nan

>  <Peripheral>  (38) 
nan

>  <Num_H_Atoms_ProtBoundConf>  (38) 
nan

>  <Num_Resolved_Atoms>  (38) 
nan

>  <Num_Not_Resolved_Atoms>  (38) 
nan

$$$$
CHEMBL230870
     RDKit          3D

  0  0  0  0  0  0  0  0  0  0999 V3000
M  V30 BEGIN CTAB
M  V30 COUNTS 61 65 0 0 0
M  V30 BEGIN ATOM
M  V30 1 N 2.922371 -7.266755 2.098900 0
M  V30 2 C 2.904115 -6.141911 2.397170 0
M  V30 3 C 2.880935 -4.731817 2.746786 0
M  V30 4 C 2.987776 -4.377203 4.073750 0
M  V30 5 N 2.959895 -3.044924 4.342937 0
M  V30 6 C 2.835310 -2.116663 3.374964 0
M  V30 7 C 2.809521 -0.769493 3.671803 0
M  V30 8 Br 2.952290 -0.204460 5.480940 0
M  V30 9 C 2.679553 0.129533 2.632208 0
M  V30 10 C 2.571986 -0.219411 1.303894 0
M  V30 11 N 2.431040 0.708938 0.245070 0
M  V30 12 C 2.346221 2.149116 0.326985 0
M  V30 13 C 1.113482 2.623322 1.032821 0
M  V30 14 C -0.047168 2.822787 0.272652 0
M  V30 15 N -1.081462 3.252756 1.014558 0
M  V30 16 C -2.434245 3.564972 0.586015 0
M  V30 17 C -3.335648 2.365542 0.659480 0
M  V30 18 N -2.937640 1.249897 -0.135731 0
M  V30 19 C -3.898711 0.155799 0.055912 0
M  V30 20 C -4.008774 -0.667169 -1.204204 0
M  V30 21 O -4.714700 0.086794 -2.121755 0
M  V30 22 C -4.414677 1.444337 -2.008516 0
M  V30 23 C -2.972236 1.568545 -1.542025 0
M  V30 24 C -0.586410 3.331549 2.260785 0
M  V30 25 N 0.702806 2.960897 2.266337 0
M  V30 26 C 2.602459 -1.564563 1.056750 0
M  V30 27 C 2.730469 -2.504571 2.055586 0
M  V30 28 C 2.750035 -3.855016 1.687273 0
M  V30 29 N 2.643301 -4.223480 0.344773 0
M  V30 30 C 1.587870 -4.529996 -0.520255 0
M  V30 31 C 0.302908 -4.491304 -0.032555 0
M  V30 32 C -0.685469 -4.813121 -0.970461 0
M  V30 33 C -0.401936 -5.145092 -2.285823 0
M  V30 34 F -1.344022 -5.451749 -3.179474 0
M  V30 35 C 0.917277 -5.162665 -2.703850 0
M  V30 36 Cl 1.320088 -5.578395 -4.364073 0
M  V30 37 C 1.947785 -4.850393 -1.812961 0
M  V30 38 H 3.087403 -5.117515 4.847875 0
M  V30 39 H 2.672380 1.148923 2.923950 0
M  V30 40 H 2.380248 0.300232 -0.735395 0
M  V30 41 H 3.252448 2.534588 0.895000 0
M  V30 42 H 2.400651 2.601205 -0.675837 0
M  V30 43 H -0.200256 2.674799 -0.808955 0
M  V30 44 H -2.460040 4.026677 -0.417737 0
M  V30 45 H -2.891521 4.340334 1.263352 0
M  V30 46 H -3.456742 2.024327 1.724976 0
M  V30 47 H -4.364958 2.695585 0.375427 0
M  V30 48 H -3.681920 -0.434482 0.958727 0
M  V30 49 H -4.916918 0.600051 0.230672 0
M  V30 50 H -3.044754 -1.047661 -1.558501 0
M  V30 51 H -4.645035 -1.545848 -0.953055 0
M  V30 52 H -4.480902 1.962585 -2.965318 0
M  V30 53 H -5.142099 1.898510 -1.328672 0
M  V30 54 H -2.409793 0.800842 -2.141101 0
M  V30 55 H -2.571879 2.564539 -1.796991 0
M  V30 56 H -1.092289 3.637644 3.162614 0
M  V30 57 H 2.523046 -1.910006 0.036447 0
M  V30 58 H 3.659070 -4.216217 0.106391 0
M  V30 59 H 0.078765 -4.236211 0.979889 0
M  V30 60 H -1.735592 -4.803450 -0.653419 0
M  V30 61 H 2.976476 -4.864705 -2.141576 0
M  V30 END ATOM
M  V30 BEGIN BOND
M  V30 1 3 1 2
M  V30 2 1 2 3
M  V30 3 2 3 4
M  V30 4 1 4 5
M  V30 5 2 5 6
M  V30 6 1 6 7
M  V30 7 1 7 8
M  V30 8 2 7 9
M  V30 9 1 9 10
M  V30 10 1 10 11
M  V30 11 1 11 12
M  V30 12 1 12 13
M  V30 13 2 13 14
M  V30 14 1 14 15
M  V30 15 1 15 16
M  V30 16 1 16 17
M  V30 17 1 17 18
M  V30 18 1 18 19
M  V30 19 1 19 20
M  V30 20 1 20 21
M  V30 21 1 21 22
M  V30 22 1 22 23
M  V30 23 1 15 24
M  V30 24 2 24 25
M  V30 25 2 10 26
M  V30 26 1 26 27
M  V30 27 2 27 28
M  V30 28 1 28 29
M  V30 29 1 29 30
M  V30 30 2 30 31
M  V30 31 1 31 32
M  V30 32 2 32 33
M  V30 33 1 33 34
M  V30 34 1 33 35
M  V30 35 1 35 36
M  V30 36 2 35 37
M  V30 37 1 28 3
M  V30 38 1 37 30
M  V30 39 1 27 6
M  V30 40 1 25 13
M  V30 41 1 23 18
M  V30 42 1 4 38
M  V30 43 1 9 39
M  V30 44 1 11 40
M  V30 45 1 12 41
M  V30 46 1 12 42
M  V30 47 1 14 43
M  V30 48 1 16 44
M  V30 49 1 16 45
M  V30 50 1 17 46
M  V30 51 1 17 47
M  V30 52 1 19 48
M  V30 53 1 19 49
M  V30 54 1 20 50
M  V30 55 1 20 51
M  V30 56 1 22 52
M  V30 57 1 22 53
M  V30 58 1 23 54
M  V30 59 1 23 55
M  V30 60 1 24 56
M  V30 61 1 26 57
M  V30 62 1 29 58
M  V30 63 1 31 59
M  V30 64 1 32 60
M  V30 65 1 37 61
M  V30 END BOND
M  V30 END CTAB
M  END
>  <Dataset>  (39) 
ChEMBL_Kinases

>  <Ligand_Instance>  (39) 
nan

>  <PDB_ID>  (39) 
nan

>  <Standardized_SMILES>  (39) 
N#Cc1cnc2c(Br)cc(NCc3cn(CCN4CCOCC4)cn3)cc2c1Nc1ccc(F)c(Cl)c1

>  <Name>  (39) 
nan

>  <Pocket>  (39) 
nan

>  <ATP_Site>  (39) 
nan

>  <Peripheral>  (39) 
nan

>  <Num_H_Atoms_ProtBoundConf>  (39) 
nan

>  <Num_Resolved_Atoms>  (39) 
nan

>  <Num_Not_Resolved_Atoms>  (39) 
nan

$$$$
CHEMBL230808
     RDKit          3D

  0  0  0  0  0  0  0  0  0  0999 V3000
M  V30 BEGIN CTAB
M  V30 COUNTS 43 45 0 0 0
M  V30 BEGIN ATOM
M  V30 1 N 4.989498 -2.495045 1.273130 0
M  V30 2 C 3.770123 -2.446710 1.986474 0
M  V30 3 O 3.664630 -3.078919 3.066771 0
M  V30 4 C 2.666504 -1.664184 1.448986 0
M  V30 5 C 2.798601 -0.971283 0.266024 0
M  V30 6 C 1.765929 -0.223385 -0.258843 0
M  V30 7 C 1.947405 0.506761 -1.531711 0
M  V30 8 C 0.960265 0.763600 -2.452874 0
M  V30 9 C 1.273280 1.463103 -3.607999 0
M  V30 10 C 2.575377 1.909750 -3.848503 0
M  V30 11 C 3.576032 1.657753 -2.930325 0
M  V30 12 C 3.233382 0.953227 -1.779221 0
M  V30 13 C 0.566959 -0.175989 0.433417 0
M  V30 14 C 0.421165 -0.867085 1.622342 0
M  V30 15 C -0.834472 -0.828613 2.366936 0
M  V30 16 C -0.774148 -0.644062 3.737631 0
M  V30 17 C -1.922470 -0.593756 4.515336 0
M  V30 18 C -3.092825 -0.737152 3.839796 0
M  V30 19 C -3.239170 -0.924068 2.480997 0
M  V30 20 S -4.823353 -1.092047 1.752856 0
M  V30 21 N -5.481275 0.432191 1.264612 0
M  V30 22 O -4.761596 -2.048826 0.622190 0
M  V30 23 O -5.744164 -1.599584 2.853970 0
M  V30 24 C -2.059156 -0.969037 1.733089 0
M  V30 25 C 1.473446 -1.606262 2.120485 0
M  V30 26 N 1.420435 -2.348219 3.327982 0
M  V30 27 H 5.913107 -2.031552 1.041048 0
M  V30 28 H 5.778600 -2.770426 0.660950 0
M  V30 29 H 3.760502 -1.024132 -0.265935 0
M  V30 30 H -0.029790 0.394495 -2.215823 0
M  V30 31 H 0.460465 1.644768 -4.311226 0
M  V30 32 H 2.797867 2.454837 -4.758338 0
M  V30 33 H 4.570858 2.010039 -3.134194 0
M  V30 34 H 4.080124 0.801865 -1.116477 0
M  V30 35 H -0.253458 0.405987 0.035828 0
M  V30 36 H 0.188656 -0.531898 4.248820 0
M  V30 37 H -1.886351 -0.448759 5.597953 0
M  V30 38 H -4.014750 -0.703063 4.417085 0
M  V30 39 H -4.793286 1.173897 1.553157 0
M  V30 40 H -5.628003 0.470216 0.235097 0
M  V30 41 H -2.122514 -1.113711 0.664992 0
M  V30 42 H 1.851835 -2.262061 4.293574 0
M  V30 43 H 0.930703 -3.222042 3.638735 0
M  V30 END ATOM
M  V30 BEGIN BOND
M  V30 1 1 1 2
M  V30 2 2 2 3
M  V30 3 1 2 4
M  V30 4 2 4 5
M  V30 5 1 5 6
M  V30 6 1 6 7
M  V30 7 2 7 8
M  V30 8 1 8 9
M  V30 9 2 9 10
M  V30 10 1 10 11
M  V30 11 2 11 12
M  V30 12 2 6 13
M  V30 13 1 13 14
M  V30 14 1 14 15
M  V30 15 2 15 16
M  V30 16 1 16 17
M  V30 17 2 17 18
M  V30 18 1 18 19
M  V30 19 1 19 20
M  V30 20 1 20 21
M  V30 21 2 20 22
M  V30 22 2 20 23
M  V30 23 2 19 24
M  V30 24 2 14 25
M  V30 25 1 25 26
M  V30 26 1 25 4
M  V30 27 1 12 7
M  V30 28 1 24 15
M  V30 29 1 1 27
M  V30 30 1 1 28
M  V30 31 1 5 29
M  V30 32 1 8 30
M  V30 33 1 9 31
M  V30 34 1 10 32
M  V30 35 1 11 33
M  V30 36 1 12 34
M  V30 37 1 13 35
M  V30 38 1 16 36
M  V30 39 1 17 37
M  V30 40 1 18 38
M  V30 41 1 21 39
M  V30 42 1 21 40
M  V30 43 1 24 41
M  V30 44 1 26 42
M  V30 45 1 26 43
M  V30 END BOND
M  V30 END CTAB
M  END
>  <Dataset>  (40) 
ChEMBL_Kinases

>  <Ligand_Instance>  (40) 
nan

>  <PDB_ID>  (40) 
nan

>  <Standardized_SMILES>  (40) 
NC(=O)c1cc(-c2ccccc2)cc(-c2cccc(S(N)(=O)=O)c2)c1N

>  <Name>  (40) 
nan

>  <Pocket>  (40) 
nan

>  <ATP_Site>  (40) 
nan

>  <Peripheral>  (40) 
nan

>  <Num_H_Atoms_ProtBoundConf>  (40) 
nan

>  <Num_Resolved_Atoms>  (40) 
nan

>  <Num_Not_Resolved_Atoms>  (40) 
nan

$$$$
CHEMBL230781
     RDKit          3D

  0  0  0  0  0  0  0  0  0  0999 V3000
M  V30 BEGIN CTAB
M  V30 COUNTS 63 66 0 0 0
M  V30 BEGIN ATOM
M  V30 1 C 2.575605 -1.550025 5.483200 0
M  V30 2 C 2.587730 -1.692438 4.004923 0
M  V30 3 O 2.069522 -2.733176 3.541127 0
M  V30 4 N 3.175767 -0.656280 3.245710 0
M  V30 5 C 3.418002 -0.348275 1.890326 0
M  V30 6 C 4.606489 -0.786041 1.370327 0
M  V30 7 C 4.883388 -0.506395 0.054170 0
M  V30 8 C 3.990457 0.194204 -0.720431 0
M  V30 9 C 2.768946 0.663724 -0.247769 0
M  V30 10 N 1.893615 1.372562 -1.076269 0
M  V30 11 C 0.621458 1.909258 -0.760023 0
M  V30 12 N 0.006876 1.839673 0.428132 0
M  V30 13 C -1.188547 2.334219 0.727710 0
M  V30 14 N -1.557642 2.091814 2.074369 0
M  V30 15 C -2.127391 0.796135 2.334549 0
M  V30 16 C -2.523361 0.409176 3.618330 0
M  V30 17 C -3.053296 -0.844185 3.831402 0
M  V30 18 C -3.209558 -1.756853 2.782351 0
M  V30 19 C -2.834454 -1.411017 1.521301 0
M  V30 20 C -2.990168 -2.366996 0.426906 0
M  V30 21 O -3.403223 -3.509620 0.769675 0
M  V30 22 N -2.711781 -2.078180 -0.930141 0
M  V30 23 C -2.857418 -3.013576 -2.025760 0
M  V30 24 C -1.969806 -4.214068 -1.840885 0
M  V30 25 N -0.588906 -3.920940 -1.767414 0
M  V30 26 C 0.063107 -3.442378 -2.931813 0
M  V30 27 C 0.209252 -4.907120 -1.107899 0
M  V30 28 C -2.309306 -0.150110 1.348373 0
M  V30 29 N -1.846861 2.965270 -0.250279 0
M  V30 30 N -3.045732 3.525270 -0.150553 0
M  V30 31 C -3.344982 4.053646 -1.363661 0
M  V30 32 C -2.261164 3.776606 -2.183268 0
M  V30 33 C -2.084093 4.124814 -3.572733 0
M  V30 34 N -1.922014 4.406796 -4.685494 0
M  V30 35 C -1.304375 3.079390 -1.466276 0
M  V30 36 N -0.099042 2.553875 -1.684195 0
M  V30 37 C 2.556447 0.349387 1.075058 0
M  V30 38 H 1.560849 -1.234939 5.781833 0
M  V30 39 H 2.756657 -2.566106 5.936647 0
M  V30 40 H 3.361581 -0.827880 5.804563 0
M  V30 41 H 3.592442 0.193535 3.719634 0
M  V30 42 H 5.308334 -1.328257 1.955827 0
M  V30 43 H 5.821628 -0.851567 -0.357143 0
M  V30 44 H 4.299322 0.365468 -1.750098 0
M  V30 45 H 2.224297 1.529234 -2.070820 0
M  V30 46 H -1.459623 2.738829 2.861547 0
M  V30 47 H -2.403965 1.111216 4.430974 0
M  V30 48 H -3.338413 -1.082233 4.838586 0
M  V30 49 H -3.636631 -2.715474 3.058891 0
M  V30 50 H -2.373631 -1.122480 -1.182960 0
M  V30 51 H -3.910066 -3.412989 -1.924283 0
M  V30 52 H -2.814216 -2.529882 -2.994042 0
M  V30 53 H -2.115495 -4.961234 -2.648689 0
M  V30 54 H -2.264727 -4.706004 -0.890961 0
M  V30 55 H 0.708385 -2.540997 -2.742451 0
M  V30 56 H 0.775578 -4.217015 -3.285941 0
M  V30 57 H -0.619839 -3.251845 -3.805008 0
M  V30 58 H 1.162680 -4.445529 -0.733667 0
M  V30 59 H 0.424209 -5.724840 -1.827826 0
M  V30 60 H -0.325624 -5.286368 -0.192485 0
M  V30 61 H -2.004892 0.144256 0.357451 0
M  V30 62 H -4.230068 4.577594 -1.640272 0
M  V30 63 H 1.652224 0.654793 1.557910 0
M  V30 END ATOM
M  V30 BEGIN BOND
M  V30 1 1 1 2
M  V30 2 2 2 3
M  V30 3 1 2 4
M  V30 4 1 4 5
M  V30 5 2 5 6
M  V30 6 1 6 7
M  V30 7 2 7 8
M  V30 8 1 8 9
M  V30 9 1 9 10
M  V30 10 1 10 11
M  V30 11 1 11 12
M  V30 12 2 12 13
M  V30 13 1 13 14
M  V30 14 1 14 15
M  V30 15 2 15 16
M  V30 16 1 16 17
M  V30 17 2 17 18
M  V30 18 1 18 19
M  V30 19 1 19 20
M  V30 20 2 20 21
M  V30 21 1 20 22
M  V30 22 1 22 23
M  V30 23 1 23 24
M  V30 24 1 24 25
M  V30 25 1 25 26
M  V30 26 1 25 27
M  V30 27 2 19 28
M  V30 28 1 13 29
M  V30 29 1 29 30
M  V30 30 2 30 31
M  V30 31 1 31 32
M  V30 32 1 32 33
M  V30 33 3 33 34
M  V30 34 2 32 35
M  V30 35 1 35 36
M  V30 36 2 9 37
M  V30 37 1 37 5
M  V30 38 2 36 11
M  V30 39 1 28 15
M  V30 40 1 35 29
M  V30 41 1 1 38
M  V30 42 1 1 39
M  V30 43 1 1 40
M  V30 44 1 4 41
M  V30 45 1 6 42
M  V30 46 1 7 43
M  V30 47 1 8 44
M  V30 48 1 10 45
M  V30 49 1 14 46
M  V30 50 1 16 47
M  V30 51 1 17 48
M  V30 52 1 18 49
M  V30 53 1 22 50
M  V30 54 1 23 51
M  V30 55 1 23 52
M  V30 56 1 24 53
M  V30 57 1 24 54
M  V30 58 1 26 55
M  V30 59 1 26 56
M  V30 60 1 26 57
M  V30 61 1 27 58
M  V30 62 1 27 59
M  V30 63 1 27 60
M  V30 64 1 28 61
M  V30 65 1 31 62
M  V30 66 1 37 63
M  V30 END BOND
M  V30 END CTAB
M  END
>  <Dataset>  (41) 
ChEMBL_Kinases

>  <Ligand_Instance>  (41) 
nan

>  <PDB_ID>  (41) 
nan

>  <Standardized_SMILES>  (41) 
CC(=O)Nc1cccc(Nc2nc(Nc3cccc(C(=O)NCCN(C)C)c3)n3ncc(C#N)c3n2)c1

>  <Name>  (41) 
nan

>  <Pocket>  (41) 
nan

>  <ATP_Site>  (41) 
nan

>  <Peripheral>  (41) 
nan

>  <Num_H_Atoms_ProtBoundConf>  (41) 
nan

>  <Num_Resolved_Atoms>  (41) 
nan

>  <Num_Not_Resolved_Atoms>  (41) 
nan

$$$$
CHEMBL230779
     RDKit          3D

  0  0  0  0  0  0  0  0  0  0999 V3000
M  V30 BEGIN CTAB
M  V30 COUNTS 62 65 0 0 0
M  V30 BEGIN ATOM
M  V30 1 C 3.943144 -0.784402 5.415031 0
M  V30 2 C 3.755761 -1.307471 4.045440 0
M  V30 3 N 3.224629 -0.423516 3.056887 0
M  V30 4 C 4.138660 0.630816 2.681087 0
M  V30 5 C 4.407027 1.659858 3.717645 0
M  V30 6 C 1.910266 0.075219 3.373555 0
M  V30 7 C 1.369103 0.765530 2.182383 0
M  V30 8 C 0.573732 -0.040820 1.355476 0
M  V30 9 C -0.052652 0.331766 0.184145 0
M  V30 10 C 0.125645 1.654248 -0.222514 0
M  V30 11 N -0.483472 2.144935 -1.398476 0
M  V30 12 C -1.654821 1.609211 -2.007718 0
M  V30 13 N -2.397602 0.704303 -1.308523 0
M  V30 14 C -3.513238 0.126959 -1.829258 0
M  V30 15 N -4.167875 -0.774949 -0.956847 0
M  V30 16 C -3.937089 -2.066555 -0.418209 0
M  V30 17 C -4.940482 -2.628420 0.357022 0
M  V30 18 C -4.676205 -3.864908 0.884480 0
M  V30 19 C -3.468680 -4.470968 0.628798 0
M  V30 20 C -2.459447 -3.939617 -0.132770 0
M  V30 21 N -1.201789 -4.518013 -0.414624 0
M  V30 22 C -0.676375 -5.755793 -0.011875 0
M  V30 23 C 0.669042 -6.239330 -0.380293 0
M  V30 24 O -1.353874 -6.509821 0.693856 0
M  V30 25 C -2.740933 -2.700011 -0.653536 0
M  V30 26 N -3.862174 0.487516 -3.074286 0
M  V30 27 C -3.164089 1.375989 -3.804568 0
M  V30 28 C -3.314616 1.894283 -5.071488 0
M  V30 29 C -4.397998 1.505509 -5.928631 0
M  V30 30 N -5.261967 1.195173 -6.634674 0
M  V30 31 C -2.268037 2.774585 -5.263065 0
M  V30 32 N -1.528767 2.760058 -4.123068 0
M  V30 33 N -2.051555 1.930448 -3.243675 0
M  V30 34 C 0.909085 2.514705 0.556955 0
M  V30 35 C 1.486717 2.040464 1.707212 0
M  V30 36 H 5.023236 -0.567857 5.659195 0
M  V30 37 H 3.685022 -1.582340 6.183390 0
M  V30 38 H 3.365614 0.086217 5.715196 0
M  V30 39 H 4.779332 -1.608725 3.655058 0
M  V30 40 H 3.196229 -2.279399 4.071286 0
M  V30 41 H 5.108765 0.100480 2.441281 0
M  V30 42 H 3.801667 1.077250 1.721795 0
M  V30 43 H 3.504834 1.990194 4.275297 0
M  V30 44 H 4.764688 2.603499 3.202249 0
M  V30 45 H 5.224896 1.424624 4.427782 0
M  V30 46 H 1.262841 -0.780644 3.648822 0
M  V30 47 H 1.868770 0.790803 4.219974 0
M  V30 48 H 0.409371 -1.092931 1.644483 0
M  V30 49 H -0.629255 -0.397962 -0.353987 0
M  V30 50 H -0.057883 2.948459 -1.865627 0
M  V30 51 H -5.002576 -0.190439 -0.762228 0
M  V30 52 H -5.881830 -2.143113 0.548417 0
M  V30 53 H -5.434831 -4.348316 1.495097 0
M  V30 54 H -3.321344 -5.445628 1.076168 0
M  V30 55 H -0.520172 -3.976061 -1.011099 0
M  V30 56 H 0.706568 -7.292505 -0.686957 0
M  V30 57 H 1.363124 -5.983651 0.468937 0
M  V30 58 H 1.056317 -5.636927 -1.242094 0
M  V30 59 H -2.023499 -2.191191 -1.263262 0
M  V30 60 H -2.189592 3.308406 -6.217417 0
M  V30 61 H 1.102732 3.544596 0.325666 0
M  V30 62 H 2.096720 2.663938 2.344413 0
M  V30 END ATOM
M  V30 BEGIN BOND
M  V30 1 1 1 2
M  V30 2 1 2 3
M  V30 3 1 3 4
M  V30 4 1 4 5
M  V30 5 1 3 6
M  V30 6 1 6 7
M  V30 7 2 7 8
M  V30 8 1 8 9
M  V30 9 2 9 10
M  V30 10 1 10 11
M  V30 11 1 11 12
M  V30 12 2 12 13
M  V30 13 1 13 14
M  V30 14 1 14 15
M  V30 15 1 15 16
M  V30 16 2 16 17
M  V30 17 1 17 18
M  V30 18 2 18 19
M  V30 19 1 19 20
M  V30 20 1 20 21
M  V30 21 1 21 22
M  V30 22 1 22 23
M  V30 23 2 22 24
M  V30 24 2 20 25
M  V30 25 2 14 26
M  V30 26 1 26 27
M  V30 27 2 27 28
M  V30 28 1 28 29
M  V30 29 3 29 30
M  V30 30 1 28 31
M  V30 31 2 31 32
M  V30 32 1 32 33
M  V30 33 1 10 34
M  V30 34 2 34 35
M  V30 35 1 35 7
M  V30 36 1 33 12
M  V30 37 1 25 16
M  V30 38 1 33 27
M  V30 39 1 1 36
M  V30 40 1 1 37
M  V30 41 1 1 38
M  V30 42 1 2 39
M  V30 43 1 2 40
M  V30 44 1 4 41
M  V30 45 1 4 42
M  V30 46 1 5 43
M  V30 47 1 5 44
M  V30 48 1 5 45
M  V30 49 1 6 46
M  V30 50 1 6 47
M  V30 51 1 8 48
M  V30 52 1 9 49
M  V30 53 1 11 50
M  V30 54 1 15 51
M  V30 55 1 17 52
M  V30 56 1 18 53
M  V30 57 1 19 54
M  V30 58 1 21 55
M  V30 59 1 23 56
M  V30 60 1 23 57
M  V30 61 1 23 58
M  V30 62 1 25 59
M  V30 63 1 31 60
M  V30 64 1 34 61
M  V30 65 1 35 62
M  V30 END BOND
M  V30 END CTAB
M  END
>  <Dataset>  (42) 
ChEMBL_Kinases

>  <Ligand_Instance>  (42) 
nan

>  <PDB_ID>  (42) 
nan

>  <Standardized_SMILES>  (42) 
CCN(CC)Cc1ccc(Nc2nc(Nc3cccc(NC(C)=O)c3)nc3c(C#N)cnn23)cc1

>  <Name>  (42) 
nan

>  <Pocket>  (42) 
nan

>  <ATP_Site>  (42) 
nan

>  <Peripheral>  (42) 
nan

>  <Num_H_Atoms_ProtBoundConf>  (42) 
nan

>  <Num_Resolved_Atoms>  (42) 
nan

>  <Num_Not_Resolved_Atoms>  (42) 
nan

$$$$
CHEMBL230763
     RDKit          3D

  0  0  0  0  0  0  0  0  0  0999 V3000
M  V30 BEGIN CTAB
M  V30 COUNTS 52 56 0 0 0
M  V30 BEGIN ATOM
M  V30 1 N 1.491454 -7.103267 -2.343419 0
M  V30 2 C 1.777709 -6.208446 -1.666403 0
M  V30 3 C 2.128439 -5.097225 -0.838292 0
M  V30 4 C 2.811213 -5.343385 0.329851 0
M  V30 5 N 3.155307 -4.324349 1.129171 0
M  V30 6 C 2.865397 -3.057257 0.847371 0
M  V30 7 C 3.230371 -2.046924 1.681863 0
M  V30 8 Br 4.179997 -2.405278 3.303282 0
M  V30 9 C 2.893984 -0.759320 1.321131 0
M  V30 10 C 2.215118 -0.405505 0.180609 0
M  V30 11 N 1.859011 0.901365 -0.192522 0
M  V30 12 C 2.050337 2.166660 0.463901 0
M  V30 13 C 1.267871 2.278073 1.728814 0
M  V30 14 C 1.492304 2.059396 3.070174 0
M  V30 15 N 0.411346 2.306554 3.814487 0
M  V30 16 C -0.499348 2.684841 2.924804 0
M  V30 17 C -1.883501 3.069166 3.273649 0
M  V30 18 C -2.795496 3.455640 2.314569 0
M  V30 19 C -4.094450 3.820630 2.603220 0
M  V30 20 C -4.514179 3.800267 3.930409 0
M  V30 21 C -3.607268 3.414823 4.894187 0
M  V30 22 C -2.327795 3.059499 4.572446 0
M  V30 23 N -0.033579 2.683264 1.667259 0
M  V30 24 C 1.874440 -1.474005 -0.621871 0
M  V30 25 C 2.182987 -2.772093 -0.312934 0
M  V30 26 C 1.811669 -3.794229 -1.161214 0
M  V30 27 N 1.105109 -3.548816 -2.371805 0
M  V30 28 C -0.316595 -3.526568 -2.430641 0
M  V30 29 C -1.052103 -3.746357 -1.297294 0
M  V30 30 C -2.441292 -3.714008 -1.408279 0
M  V30 31 C -3.110085 -3.471383 -2.604176 0
M  V30 32 F -4.441179 -3.439800 -2.713460 0
M  V30 33 C -2.304596 -3.256473 -3.715580 0
M  V30 34 Cl -3.040299 -2.939555 -5.282781 0
M  V30 35 C -0.931160 -3.284813 -3.624177 0
M  V30 36 H 3.086708 -6.347096 0.634545 0
M  V30 37 H 3.204840 0.000825 1.997851 0
M  V30 38 H 1.354052 0.990332 -1.128788 0
M  V30 39 H 1.759577 3.008234 -0.185152 0
M  V30 40 H 3.134061 2.299289 0.743323 0
M  V30 41 H 2.463897 1.730726 3.405444 0
M  V30 42 H 0.383342 2.198848 4.851530 0
M  V30 43 H -2.448035 3.464888 1.283855 0
M  V30 44 H -4.728597 4.109217 1.759182 0
M  V30 45 H -5.530694 4.094337 4.081038 0
M  V30 46 H -4.019600 3.428695 5.895759 0
M  V30 47 H -1.680609 2.772239 5.369083 0
M  V30 48 H 1.330180 -1.312718 -1.559323 0
M  V30 49 H 1.685989 -3.384234 -3.223258 0
M  V30 50 H -0.631866 -3.940987 -0.333641 0
M  V30 51 H -3.096989 -3.877085 -0.563252 0
M  V30 52 H -0.313052 -3.113174 -4.510857 0
M  V30 END ATOM
M  V30 BEGIN BOND
M  V30 1 3 1 2
M  V30 2 1 2 3
M  V30 3 2 3 4
M  V30 4 1 4 5
M  V30 5 2 5 6
M  V30 6 1 6 7
M  V30 7 1 7 8
M  V30 8 2 7 9
M  V30 9 1 9 10
M  V30 10 1 10 11
M  V30 11 1 11 12
M  V30 12 1 12 13
M  V30 13 2 13 14
M  V30 14 1 14 15
M  V30 15 1 15 16
M  V30 16 1 16 17
M  V30 17 2 17 18
M  V30 18 1 18 19
M  V30 19 2 19 20
M  V30 20 1 20 21
M  V30 21 2 21 22
M  V30 22 2 16 23
M  V30 23 2 10 24
M  V30 24 1 24 25
M  V30 25 2 25 26
M  V30 26 1 26 27
M  V30 27 1 27 28
M  V30 28 2 28 29
M  V30 29 1 29 30
M  V30 30 2 30 31
M  V30 31 1 31 32
M  V30 32 1 31 33
M  V30 33 1 33 34
M  V30 34 2 33 35
M  V30 35 1 26 3
M  V30 36 1 35 28
M  V30 37 1 25 6
M  V30 38 1 23 13
M  V30 39 1 22 17
M  V30 40 1 4 36
M  V30 41 1 9 37
M  V30 42 1 11 38
M  V30 43 1 12 39
M  V30 44 1 12 40
M  V30 45 1 14 41
M  V30 46 1 15 42
M  V30 47 1 18 43
M  V30 48 1 19 44
M  V30 49 1 20 45
M  V30 50 1 21 46
M  V30 51 1 22 47
M  V30 52 1 24 48
M  V30 53 1 27 49
M  V30 54 1 29 50
M  V30 55 1 30 51
M  V30 56 1 35 52
M  V30 END BOND
M  V30 END CTAB
M  END
>  <Dataset>  (43) 
ChEMBL_Kinases

>  <Ligand_Instance>  (43) 
nan

>  <PDB_ID>  (43) 
nan

>  <Standardized_SMILES>  (43) 
N#Cc1cnc2c(Br)cc(NCc3c[nH]c(-c4ccccc4)n3)cc2c1Nc1ccc(F)c(Cl)c1

>  <Name>  (43) 
nan

>  <Pocket>  (43) 
nan

>  <ATP_Site>  (43) 
nan

>  <Peripheral>  (43) 
nan

>  <Num_H_Atoms_ProtBoundConf>  (43) 
nan

>  <Num_Resolved_Atoms>  (43) 
nan

>  <Num_Not_Resolved_Atoms>  (43) 
nan

$$$$
CHEMBL230762
     RDKit          3D

  0  0  0  0  0  0  0  0  0  0999 V3000
M  V30 BEGIN CTAB
M  V30 COUNTS 51 54 0 0 0
M  V30 BEGIN ATOM
M  V30 1 C 4.862020 -5.567221 2.257347 0
M  V30 2 C 3.390564 -5.809943 2.512268 0
M  V30 3 C 2.617951 -4.804869 1.732040 0
M  V30 4 N 2.263509 -3.590836 2.213951 0
M  V30 5 C 1.575724 -2.916872 1.272700 0
M  V30 6 C 0.935235 -1.576991 1.192904 0
M  V30 7 N 1.800347 -0.735177 0.389332 0
M  V30 8 C 1.449261 0.629224 0.133088 0
M  V30 9 C 2.213599 1.502007 -0.622361 0
M  V30 10 C 1.796845 2.807593 -0.819632 0
M  V30 11 Cl 2.814690 3.852988 -1.784470 0
M  V30 12 C 0.621146 3.288677 -0.281087 0
M  V30 13 N 0.221791 4.545611 -0.471573 0
M  V30 14 C -0.932443 5.048053 0.047349 0
M  V30 15 C -1.720877 4.203297 0.807676 0
M  V30 16 C -2.956403 4.620555 1.403927 0
M  V30 17 N -3.960566 4.959571 1.886195 0
M  V30 18 C -1.349436 2.893990 1.032882 0
M  V30 19 N -2.063342 1.925750 1.790550 0
M  V30 20 C -3.014795 1.123453 1.125189 0
M  V30 21 C -3.226084 1.309166 -0.228488 0
M  V30 22 C -4.146455 0.551552 -0.932986 0
M  V30 23 C -4.850051 -0.404777 -0.223201 0
M  V30 24 F -5.778029 -1.195549 -0.843445 0
M  V30 25 C -4.660554 -0.617791 1.145456 0
M  V30 26 Cl -5.567019 -1.833950 2.005869 0
M  V30 27 C -3.735176 0.157960 1.808112 0
M  V30 28 C -0.157600 2.418112 0.482243 0
M  V30 29 C 0.277669 1.129638 0.662520 0
M  V30 30 C 1.494804 -3.742240 0.152215 0
M  V30 31 C 0.862390 -3.534628 -1.173939 0
M  V30 32 N 2.147398 -4.894159 0.474048 0
M  V30 33 H 5.057739 -5.601024 1.180153 0
M  V30 34 H 5.096222 -4.526848 2.610315 0
M  V30 35 H 5.503652 -6.286250 2.800834 0
M  V30 36 H 3.141320 -6.806589 2.093515 0
M  V30 37 H 3.161310 -5.759491 3.590957 0
M  V30 38 H 0.878212 -1.163513 2.233217 0
M  V30 39 H -0.080813 -1.668342 0.758190 0
M  V30 40 H 2.699716 -1.056203 -0.037679 0
M  V30 41 H 3.125464 1.075133 -1.021918 0
M  V30 42 H -1.246094 6.071466 -0.114548 0
M  V30 43 H -1.870565 1.831292 2.806663 0
M  V30 44 H -2.655397 2.074236 -0.772582 0
M  V30 45 H -4.334984 0.674562 -1.994764 0
M  V30 46 H -3.536294 0.044443 2.879731 0
M  V30 47 H -0.329458 0.459295 1.254927 0
M  V30 48 H 0.029810 -2.797482 -1.134680 0
M  V30 49 H 0.445899 -4.495069 -1.537730 0
M  V30 50 H 1.652970 -3.203079 -1.885403 0
M  V30 51 H 2.282878 -5.735437 -0.131222 0
M  V30 END ATOM
M  V30 BEGIN BOND
M  V30 1 1 1 2
M  V30 2 1 2 3
M  V30 3 2 3 4
M  V30 4 1 4 5
M  V30 5 1 5 6
M  V30 6 1 6 7
M  V30 7 1 7 8
M  V30 8 2 8 9
M  V30 9 1 9 10
M  V30 10 1 10 11
M  V30 11 2 10 12
M  V30 12 1 12 13
M  V30 13 2 13 14
M  V30 14 1 14 15
M  V30 15 1 15 16
M  V30 16 3 16 17
M  V30 17 2 15 18
M  V30 18 1 18 19
M  V30 19 1 19 20
M  V30 20 2 20 21
M  V30 21 1 21 22
M  V30 22 2 22 23
M  V30 23 1 23 24
M  V30 24 1 23 25
M  V30 25 1 25 26
M  V30 26 2 25 27
M  V30 27 1 18 28
M  V30 28 2 28 29
M  V30 29 2 5 30
M  V30 30 1 30 31
M  V30 31 1 30 32
M  V30 32 1 32 3
M  V30 33 1 29 8
M  V30 34 1 28 12
M  V30 35 1 27 20
M  V30 36 1 1 33
M  V30 37 1 1 34
M  V30 38 1 1 35
M  V30 39 1 2 36
M  V30 40 1 2 37
M  V30 41 1 6 38
M  V30 42 1 6 39
M  V30 43 1 7 40
M  V30 44 1 9 41
M  V30 45 1 14 42
M  V30 46 1 19 43
M  V30 47 1 21 44
M  V30 48 1 22 45
M  V30 49 1 27 46
M  V30 50 1 29 47
M  V30 51 1 31 48
M  V30 52 1 31 49
M  V30 53 1 31 50
M  V30 54 1 32 51
M  V30 END BOND
M  V30 END CTAB
M  END
>  <Dataset>  (44) 
ChEMBL_Kinases

>  <Ligand_Instance>  (44) 
nan

>  <PDB_ID>  (44) 
nan

>  <Standardized_SMILES>  (44) 
CCc1nc(CNc2cc(Cl)c3ncc(C#N)c(Nc4ccc(F)c(Cl)c4)c3c2)c(C)[nH]1

>  <Name>  (44) 
nan

>  <Pocket>  (44) 
nan

>  <ATP_Site>  (44) 
nan

>  <Peripheral>  (44) 
nan

>  <Num_H_Atoms_ProtBoundConf>  (44) 
nan

>  <Num_Resolved_Atoms>  (44) 
nan

>  <Num_Not_Resolved_Atoms>  (44) 
nan

$$$$
CHEMBL230761
     RDKit          3D

  0  0  0  0  0  0  0  0  0  0999 V3000
M  V30 BEGIN CTAB
M  V30 COUNTS 45 48 0 0 0
M  V30 BEGIN ATOM
M  V30 1 C -0.528820 -3.001855 3.780799 0
M  V30 2 N 0.692084 -2.234307 3.656467 0
M  V30 3 C 1.402997 -1.679813 4.650739 0
M  V30 4 N 2.460086 -1.054762 4.156772 0
M  V30 5 C 2.468185 -1.187317 2.793746 0
M  V30 6 C 3.587653 -0.557706 2.063805 0
M  V30 7 N 3.388605 0.813348 1.715277 0
M  V30 8 C 2.478049 1.437913 0.845228 0
M  V30 9 C 2.418605 2.823197 0.650218 0
M  V30 10 C 1.528875 3.410767 -0.213440 0
M  V30 11 Br 1.568921 5.299324 -0.369858 0
M  V30 12 C 0.634444 2.664667 -0.945346 0
M  V30 13 N -0.190683 3.327755 -1.760340 0
M  V30 14 C -1.101412 2.665195 -2.517831 0
M  V30 15 C -1.107022 1.282747 -2.382045 0
M  V30 16 C -2.038948 0.468149 -3.143423 0
M  V30 17 N -2.770643 -0.189415 -3.756063 0
M  V30 18 C -0.244486 0.584336 -1.529486 0
M  V30 19 N -0.290566 -0.810757 -1.431423 0
M  V30 20 C -1.057038 -1.639845 -0.592476 0
M  V30 21 C -0.968239 -3.014963 -0.632180 0
M  V30 22 C -1.784541 -3.717274 0.250278 0
M  V30 23 C -2.639570 -3.039486 1.119819 0
M  V30 24 F -3.434357 -3.742410 1.979720 0
M  V30 25 C -2.711064 -1.655598 1.141140 0
M  V30 26 Cl -3.783649 -0.818770 2.232382 0
M  V30 27 C -1.903820 -0.974796 0.269003 0
M  V30 28 C 0.649132 1.294523 -0.792369 0
M  V30 29 C 1.557753 0.741384 0.084783 0
M  V30 30 C 1.348281 -1.928991 2.532915 0
M  V30 31 H -1.393589 -2.313581 3.642162 0
M  V30 32 H -0.539210 -3.769243 2.981162 0
M  V30 33 H -0.631966 -3.426699 4.800342 0
M  V30 34 H 1.116621 -1.757326 5.692618 0
M  V30 35 H 4.535615 -0.648972 2.628814 0
M  V30 36 H 3.807776 -1.137014 1.106000 0
M  V30 37 H 4.035628 1.521420 2.187728 0
M  V30 38 H 3.122419 3.447863 1.222301 0
M  V30 39 H -1.803896 3.103369 -3.198832 0
M  V30 40 H 0.369820 -1.268739 -2.112749 0
M  V30 41 H -0.300119 -3.513450 -1.312846 0
M  V30 42 H -1.752003 -4.783814 0.257502 0
M  V30 43 H -1.979849 0.114512 0.306511 0
M  V30 44 H 1.497987 -0.322245 0.132156 0
M  V30 45 H 1.114789 -2.184325 1.530463 0
M  V30 END ATOM
M  V30 BEGIN BOND
M  V30 1 1 1 2
M  V30 2 1 2 3
M  V30 3 2 3 4
M  V30 4 1 4 5
M  V30 5 1 5 6
M  V30 6 1 6 7
M  V30 7 1 7 8
M  V30 8 2 8 9
M  V30 9 1 9 10
M  V30 10 1 10 11
M  V30 11 2 10 12
M  V30 12 1 12 13
M  V30 13 2 13 14
M  V30 14 1 14 15
M  V30 15 1 15 16
M  V30 16 3 16 17
M  V30 17 2 15 18
M  V30 18 1 18 19
M  V30 19 1 19 20
M  V30 20 2 20 21
M  V30 21 1 21 22
M  V30 22 2 22 23
M  V30 23 1 23 24
M  V30 24 1 23 25
M  V30 25 1 25 26
M  V30 26 2 25 27
M  V30 27 1 18 28
M  V30 28 2 28 29
M  V30 29 2 5 30
M  V30 30 1 30 2
M  V30 31 1 29 8
M  V30 32 1 28 12
M  V30 33 1 27 20
M  V30 34 1 1 31
M  V30 35 1 1 32
M  V30 36 1 1 33
M  V30 37 1 3 34
M  V30 38 1 6 35
M  V30 39 1 6 36
M  V30 40 1 7 37
M  V30 41 1 9 38
M  V30 42 1 14 39
M  V30 43 1 19 40
M  V30 44 1 21 41
M  V30 45 1 22 42
M  V30 46 1 27 43
M  V30 47 1 29 44
M  V30 48 1 30 45
M  V30 END BOND
M  V30 END CTAB
M  END
>  <Dataset>  (45) 
ChEMBL_Kinases

>  <Ligand_Instance>  (45) 
nan

>  <PDB_ID>  (45) 
nan

>  <Standardized_SMILES>  (45) 
Cn1cnc(CNc2cc(Br)c3ncc(C#N)c(Nc4ccc(F)c(Cl)c4)c3c2)c1

>  <Name>  (45) 
nan

>  <Pocket>  (45) 
nan

>  <ATP_Site>  (45) 
nan

>  <Peripheral>  (45) 
nan

>  <Num_H_Atoms_ProtBoundConf>  (45) 
nan

>  <Num_Resolved_Atoms>  (45) 
nan

>  <Num_Not_Resolved_Atoms>  (45) 
nan

$$$$
CHEMBL230755
     RDKit          3D

  0  0  0  0  0  0  0  0  0  0999 V3000
M  V30 BEGIN CTAB
M  V30 COUNTS 57 61 0 0 0
M  V30 BEGIN ATOM
M  V30 1 N 0.549141 -6.031507 -4.477883 0
M  V30 2 C 0.419539 -5.423551 -3.505829 0
M  V30 3 C 0.279532 -4.658606 -2.294087 0
M  V30 4 C -0.340139 -5.210061 -1.187207 0
M  V30 5 N -0.514989 -4.570736 -0.015118 0
M  V30 6 C -0.056601 -3.312960 0.085478 0
M  V30 7 C -0.211142 -2.613887 1.265375 0
M  V30 8 Cl -1.010812 -3.410147 2.604541 0
M  V30 9 C 0.270992 -1.324414 1.333625 0
M  V30 10 C 0.904646 -0.657804 0.312011 0
M  V30 11 N 1.388211 0.668592 0.393466 0
M  V30 12 C 1.318645 1.595354 1.472513 0
M  V30 13 C -0.018343 2.067545 1.839564 0
M  V30 14 C -0.434530 3.201009 1.127379 0
M  V30 15 C -1.646698 3.834978 1.297561 0
M  V30 16 C -2.538136 3.349734 2.223374 0
M  V30 17 C -2.110398 2.238597 2.910064 0
M  V30 18 N -2.934353 1.636413 3.896264 0
M  V30 19 C -4.256659 2.091642 4.262382 0
M  V30 20 C -5.109712 0.832931 4.470572 0
M  V30 21 O -4.601932 -0.164030 3.642623 0
M  V30 22 C -3.457805 -0.683527 4.282529 0
M  V30 23 C -2.548431 0.475334 4.671875 0
M  V30 24 N -0.921442 1.654083 2.711699 0
M  V30 25 C 1.033880 -1.399053 -0.843361 0
M  V30 26 C 0.573202 -2.689785 -0.971615 0
M  V30 27 C 0.744380 -3.362478 -2.169824 0
M  V30 28 N 1.381038 -2.780003 -3.291408 0
M  V30 29 C 2.701719 -2.724897 -3.754541 0
M  V30 30 C 2.953514 -2.040082 -4.926174 0
M  V30 31 C 4.270866 -2.011212 -5.346973 0
M  V30 32 C 5.297567 -2.605442 -4.684098 0
M  V30 33 F 6.580175 -2.555465 -5.128840 0
M  V30 34 C 5.020198 -3.292731 -3.501191 0
M  V30 35 Cl 6.274055 -4.077090 -2.597236 0
M  V30 36 C 3.697933 -3.334280 -3.058732 0
M  V30 37 H -0.724410 -6.227103 -1.231536 0
M  V30 38 H 0.121547 -0.853274 2.272979 0
M  V30 39 H 1.874370 1.017948 -0.487826 0
M  V30 40 H 1.801855 1.091470 2.372476 0
M  V30 41 H 1.981668 2.465700 1.273111 0
M  V30 42 H 0.184705 3.673421 0.370420 0
M  V30 43 H -1.937888 4.707769 0.732643 0
M  V30 44 H -3.477525 3.821091 2.372829 0
M  V30 45 H -4.738273 2.737806 3.528678 0
M  V30 46 H -4.231109 2.607912 5.265749 0
M  V30 47 H -5.033259 0.459336 5.501616 0
M  V30 48 H -6.147702 1.111264 4.197928 0
M  V30 49 H -3.751125 -1.272617 5.151466 0
M  V30 50 H -2.912631 -1.300142 3.562517 0
M  V30 51 H -1.494920 0.238316 4.442229 0
M  V30 52 H -2.716809 0.681951 5.737684 0
M  V30 53 H 1.527133 -0.956645 -1.720640 0
M  V30 54 H 0.575532 -2.333020 -3.785404 0
M  V30 55 H 2.188182 -1.531156 -5.526219 0
M  V30 56 H 4.514257 -1.483393 -6.264085 0
M  V30 57 H 3.511309 -3.882853 -2.124300 0
M  V30 END ATOM
M  V30 BEGIN BOND
M  V30 1 3 1 2
M  V30 2 1 2 3
M  V30 3 2 3 4
M  V30 4 1 4 5
M  V30 5 2 5 6
M  V30 6 1 6 7
M  V30 7 1 7 8
M  V30 8 2 7 9
M  V30 9 1 9 10
M  V30 10 1 10 11
M  V30 11 1 11 12
M  V30 12 1 12 13
M  V30 13 2 13 14
M  V30 14 1 14 15
M  V30 15 2 15 16
M  V30 16 1 16 17
M  V30 17 1 17 18
M  V30 18 1 18 19
M  V30 19 1 19 20
M  V30 20 1 20 21
M  V30 21 1 21 22
M  V30 22 1 22 23
M  V30 23 2 17 24
M  V30 24 2 10 25
M  V30 25 1 25 26
M  V30 26 2 26 27
M  V30 27 1 27 28
M  V30 28 1 28 29
M  V30 29 2 29 30
M  V30 30 1 30 31
M  V30 31 2 31 32
M  V30 32 1 32 33
M  V30 33 1 32 34
M  V30 34 1 34 35
M  V30 35 2 34 36
M  V30 36 1 27 3
M  V30 37 1 36 29
M  V30 38 1 26 6
M  V30 39 1 24 13
M  V30 40 1 23 18
M  V30 41 1 4 37
M  V30 42 1 9 38
M  V30 43 1 11 39
M  V30 44 1 12 40
M  V30 45 1 12 41
M  V30 46 1 14 42
M  V30 47 1 15 43
M  V30 48 1 16 44
M  V30 49 1 19 45
M  V30 50 1 19 46
M  V30 51 1 20 47
M  V30 52 1 20 48
M  V30 53 1 22 49
M  V30 54 1 22 50
M  V30 55 1 23 51
M  V30 56 1 23 52
M  V30 57 1 25 53
M  V30 58 1 28 54
M  V30 59 1 30 55
M  V30 60 1 31 56
M  V30 61 1 36 57
M  V30 END BOND
M  V30 END CTAB
M  END
>  <Dataset>  (46) 
ChEMBL_Kinases

>  <Ligand_Instance>  (46) 
nan

>  <PDB_ID>  (46) 
nan

>  <Standardized_SMILES>  (46) 
N#Cc1cnc2c(Cl)cc(NCc3cccc(N4CCOCC4)n3)cc2c1Nc1ccc(F)c(Cl)c1

>  <Name>  (46) 
nan

>  <Pocket>  (46) 
nan

>  <ATP_Site>  (46) 
nan

>  <Peripheral>  (46) 
nan

>  <Num_H_Atoms_ProtBoundConf>  (46) 
nan

>  <Num_Resolved_Atoms>  (46) 
nan

>  <Num_Not_Resolved_Atoms>  (46) 
nan

$$$$
CHEMBL230674
     RDKit          3D

  0  0  0  0  0  0  0  0  0  0999 V3000
M  V30 BEGIN CTAB
M  V30 COUNTS 59 62 0 0 0
M  V30 BEGIN ATOM
M  V30 1 C 5.593897 -2.100157 3.226239 0
M  V30 2 C 4.128047 -2.492592 3.221404 0
M  V30 3 N 3.353582 -1.569426 2.395259 0
M  V30 4 C 3.258307 -0.251489 2.980134 0
M  V30 5 C 2.426756 -0.186941 4.229184 0
M  V30 6 C 2.788299 -1.916917 1.140152 0
M  V30 7 C 2.996367 -3.154960 0.593195 0
M  V30 8 C 2.465018 -3.534505 -0.617834 0
M  V30 9 C 1.680049 -2.691617 -1.372595 0
M  V30 10 C 1.469775 -1.424933 -0.805608 0
M  V30 11 N 0.661960 -0.470863 -1.530726 0
M  V30 12 C 0.184800 0.774642 -1.052781 0
M  V30 13 N -1.061227 0.695661 -0.594327 0
M  V30 14 C -1.792398 1.685231 -0.070980 0
M  V30 15 N -3.124316 1.600998 0.398797 0
M  V30 16 C -4.014519 0.508339 0.319428 0
M  V30 17 C -5.204126 0.482312 1.001753 0
M  V30 18 C -6.107918 -0.547270 0.939351 0
M  V30 19 C -5.830835 -1.639936 0.148450 0
M  V30 20 C -4.632273 -1.636857 -0.551395 0
M  V30 21 N -4.291110 -2.756747 -1.401657 0
M  V30 22 C -3.652468 -4.000351 -1.326030 0
M  V30 23 C -3.606187 -4.742148 -2.617373 0
M  V30 24 O -3.121796 -4.569125 -0.339349 0
M  V30 25 C -3.697845 -0.589436 -0.496998 0
M  V30 26 N -1.128332 2.850121 -0.039607 0
M  V30 27 C 0.103875 3.041093 -0.466303 0
M  V30 28 C 1.038698 4.056386 -0.578300 0
M  V30 29 C 0.749569 5.411228 -0.139734 0
M  V30 30 N 0.527039 6.487645 0.198031 0
M  V30 31 C 2.222503 3.576494 -1.151181 0
M  V30 32 N 1.981736 2.258873 -1.380004 0
M  V30 33 N 0.749624 1.982739 -0.973843 0
M  V30 34 C 2.010634 -1.050510 0.417557 0
M  V30 35 H 5.714314 -1.220822 2.546633 0
M  V30 36 H 6.175957 -2.932351 2.756826 0
M  V30 37 H 5.907844 -1.890563 4.265312 0
M  V30 38 H 3.965691 -3.553898 2.933928 0
M  V30 39 H 3.763039 -2.451583 4.283996 0
M  V30 40 H 2.999370 0.515116 2.217270 0
M  V30 41 H 4.310128 0.014856 3.319611 0
M  V30 42 H 3.023119 -0.169395 5.163938 0
M  V30 43 H 1.766236 -1.083617 4.265638 0
M  V30 44 H 1.764342 0.705312 4.262284 0
M  V30 45 H 3.580864 -3.944695 1.031139 0
M  V30 46 H 2.610614 -4.516781 -1.086322 0
M  V30 47 H 1.212916 -2.865065 -2.320072 0
M  V30 48 H 0.361695 -0.645102 -2.495319 0
M  V30 49 H -3.512941 2.459642 0.867300 0
M  V30 50 H -5.445595 1.334253 1.634997 0
M  V30 51 H -7.039140 -0.555516 1.482343 0
M  V30 52 H -6.445737 -2.511631 0.007538 0
M  V30 53 H -4.703910 -2.361493 -2.268150 0
M  V30 54 H -2.587552 -5.225440 -2.662935 0
M  V30 55 H -3.606986 -4.061313 -3.505398 0
M  V30 56 H -4.361448 -5.526646 -2.703165 0
M  V30 57 H -2.804096 -0.692230 -1.088399 0
M  V30 58 H 3.109813 4.150681 -1.352359 0
M  V30 59 H 1.785148 -0.071639 0.750606 0
M  V30 END ATOM
M  V30 BEGIN BOND
M  V30 1 1 1 2
M  V30 2 1 2 3
M  V30 3 1 3 4
M  V30 4 1 4 5
M  V30 5 1 3 6
M  V30 6 2 6 7
M  V30 7 1 7 8
M  V30 8 2 8 9
M  V30 9 1 9 10
M  V30 10 1 10 11
M  V30 11 1 11 12
M  V30 12 2 12 13
M  V30 13 1 13 14
M  V30 14 1 14 15
M  V30 15 1 15 16
M  V30 16 2 16 17
M  V30 17 1 17 18
M  V30 18 2 18 19
M  V30 19 1 19 20
M  V30 20 1 20 21
M  V30 21 1 21 22
M  V30 22 1 22 23
M  V30 23 2 22 24
M  V30 24 2 20 25
M  V30 25 2 14 26
M  V30 26 1 26 27
M  V30 27 2 27 28
M  V30 28 1 28 29
M  V30 29 3 29 30
M  V30 30 1 28 31
M  V30 31 2 31 32
M  V30 32 1 32 33
M  V30 33 2 10 34
M  V30 34 1 34 6
M  V30 35 1 33 12
M  V30 36 1 25 16
M  V30 37 1 33 27
M  V30 38 1 1 35
M  V30 39 1 1 36
M  V30 40 1 1 37
M  V30 41 1 2 38
M  V30 42 1 2 39
M  V30 43 1 4 40
M  V30 44 1 4 41
M  V30 45 1 5 42
M  V30 46 1 5 43
M  V30 47 1 5 44
M  V30 48 1 7 45
M  V30 49 1 8 46
M  V30 50 1 9 47
M  V30 51 1 11 48
M  V30 52 1 15 49
M  V30 53 1 17 50
M  V30 54 1 18 51
M  V30 55 1 19 52
M  V30 56 1 21 53
M  V30 57 1 23 54
M  V30 58 1 23 55
M  V30 59 1 23 56
M  V30 60 1 25 57
M  V30 61 1 31 58
M  V30 62 1 34 59
M  V30 END BOND
M  V30 END CTAB
M  END
>  <Dataset>  (47) 
ChEMBL_Kinases

>  <Ligand_Instance>  (47) 
nan

>  <PDB_ID>  (47) 
nan

>  <Standardized_SMILES>  (47) 
CCN(CC)c1cccc(Nc2nc(Nc3cccc(NC(C)=O)c3)nc3c(C#N)cnn23)c1

>  <Name>  (47) 
nan

>  <Pocket>  (47) 
nan

>  <ATP_Site>  (47) 
nan

>  <Peripheral>  (47) 
nan

>  <Num_H_Atoms_ProtBoundConf>  (47) 
nan

>  <Num_Resolved_Atoms>  (47) 
nan

>  <Num_Not_Resolved_Atoms>  (47) 
nan

$$$$
CHEMBL230673
     RDKit          3D

  0  0  0  0  0  0  0  0  0  0999 V3000
M  V30 BEGIN CTAB
M  V30 COUNTS 41 44 0 0 0
M  V30 BEGIN ATOM
M  V30 1 C -0.351808 -5.417351 3.162361 0
M  V30 2 C 0.707887 -4.870051 2.292171 0
M  V30 3 O 1.726929 -5.579448 2.214259 0
M  V30 4 N 0.638359 -3.659934 1.584026 0
M  V30 5 C 1.601138 -3.062632 0.731964 0
M  V30 6 C 2.836827 -3.561082 0.415321 0
M  V30 7 C 3.721978 -2.929906 -0.418436 0
M  V30 8 C 3.396768 -1.728699 -0.992279 0
M  V30 9 C 2.173260 -1.212507 -0.692671 0
M  V30 10 N 1.760492 0.029137 -1.247209 0
M  V30 11 C 0.498993 0.629771 -0.980290 0
M  V30 12 N 0.383854 1.478167 0.072326 0
M  V30 13 C -0.744216 2.099463 0.420079 0
M  V30 14 N -0.762981 2.975592 1.547699 0
M  V30 15 C 0.470629 3.138052 2.258285 0
M  V30 16 C 1.175100 2.005945 2.897590 0
M  V30 17 C 0.362018 2.946350 3.778318 0
M  V30 18 N -1.833345 1.862985 -0.327819 0
M  V30 19 N -3.051060 2.329833 -0.216524 0
M  V30 20 C -3.834121 1.825599 -1.187287 0
M  V30 21 C -3.055362 0.989693 -1.954711 0
M  V30 22 Br -3.566555 -0.033627 -3.487863 0
M  V30 23 C -1.791490 1.021230 -1.401533 0
M  V30 24 N -0.615505 0.415762 -1.709356 0
M  V30 25 C 1.295108 -1.861277 0.148364 0
M  V30 26 H -1.312652 -4.926777 2.894920 0
M  V30 27 H -0.466406 -6.486187 2.956116 0
M  V30 28 H -0.205873 -5.169533 4.245043 0
M  V30 29 H -0.274308 -3.182878 1.751021 0
M  V30 30 H 3.154334 -4.484641 0.822523 0
M  V30 31 H 4.698788 -3.367926 -0.641716 0
M  V30 32 H 4.069713 -1.206300 -1.652282 0
M  V30 33 H 2.384468 0.552283 -1.883006 0
M  V30 34 H -1.660967 3.448323 1.796203 0
M  V30 35 H 1.084897 3.995706 1.918269 0
M  V30 36 H 0.855710 0.965639 2.833653 0
M  V30 37 H 2.275134 2.110271 3.027726 0
M  V30 38 H 0.907195 3.695240 4.394954 0
M  V30 39 H -0.561029 2.511363 4.182681 0
M  V30 40 H -4.868664 2.022221 -1.351885 0
M  V30 41 H 0.329598 -1.403919 0.354077 0
M  V30 END ATOM
M  V30 BEGIN BOND
M  V30 1 1 1 2
M  V30 2 2 2 3
M  V30 3 1 2 4
M  V30 4 1 4 5
M  V30 5 2 5 6
M  V30 6 1 6 7
M  V30 7 2 7 8
M  V30 8 1 8 9
M  V30 9 1 9 10
M  V30 10 1 10 11
M  V30 11 1 11 12
M  V30 12 2 12 13
M  V30 13 1 13 14
M  V30 14 1 14 15
M  V30 15 1 15 16
M  V30 16 1 16 17
M  V30 17 1 13 18
M  V30 18 1 18 19
M  V30 19 2 19 20
M  V30 20 1 20 21
M  V30 21 1 21 22
M  V30 22 2 21 23
M  V30 23 1 23 24
M  V30 24 2 9 25
M  V30 25 1 25 5
M  V30 26 2 24 11
M  V30 27 1 17 15
M  V30 28 1 23 18
M  V30 29 1 1 26
M  V30 30 1 1 27
M  V30 31 1 1 28
M  V30 32 1 4 29
M  V30 33 1 6 30
M  V30 34 1 7 31
M  V30 35 1 8 32
M  V30 36 1 10 33
M  V30 37 1 14 34
M  V30 38 1 15 35
M  V30 39 1 16 36
M  V30 40 1 16 37
M  V30 41 1 17 38
M  V30 42 1 17 39
M  V30 43 1 20 40
M  V30 44 1 25 41
M  V30 END BOND
M  V30 END CTAB
M  END
>  <Dataset>  (48) 
ChEMBL_Kinases

>  <Ligand_Instance>  (48) 
nan

>  <PDB_ID>  (48) 
nan

>  <Standardized_SMILES>  (48) 
CC(=O)Nc1cccc(Nc2nc(NC3CC3)n3ncc(Br)c3n2)c1

>  <Name>  (48) 
nan

>  <Pocket>  (48) 
nan

>  <ATP_Site>  (48) 
nan

>  <Peripheral>  (48) 
nan

>  <Num_H_Atoms_ProtBoundConf>  (48) 
nan

>  <Num_Resolved_Atoms>  (48) 
nan

>  <Num_Not_Resolved_Atoms>  (48) 
nan

$$$$
CHEMBL230656
     RDKit          3D

  0  0  0  0  0  0  0  0  0  0999 V3000
M  V30 BEGIN CTAB
M  V30 COUNTS 59 62 0 0 0
M  V30 BEGIN ATOM
M  V30 1 C 1.502229 -0.626738 4.138073 0
M  V30 2 N 1.470184 -1.813853 3.317817 0
M  V30 3 C 0.965101 -2.962701 4.051037 0
M  V30 4 C 2.702626 -2.090845 2.652111 0
M  V30 5 C 3.104936 -1.137956 1.586018 0
M  V30 6 C 2.117324 -1.029212 0.434862 0
M  V30 7 C 2.625661 -0.052594 -0.580991 0
M  V30 8 N 3.304830 -0.431991 -1.704069 0
M  V30 9 C 3.666581 0.682141 -2.321530 0
M  V30 10 N 3.257951 1.774815 -1.661378 0
M  V30 11 C 2.595833 1.312117 -0.558575 0
M  V30 12 C 1.915834 2.229671 0.395769 0
M  V30 13 N 0.578495 2.546198 0.011634 0
M  V30 14 C -0.729754 2.290727 -0.440647 0
M  V30 15 C -1.773277 3.207153 -0.583969 0
M  V30 16 C -2.964734 2.758830 -1.078288 0
M  V30 17 Cl -4.185589 3.976699 -1.217431 0
M  V30 18 C -3.132564 1.444318 -1.424460 0
M  V30 19 N -4.352775 1.170221 -1.894199 0
M  V30 20 C -4.718438 -0.071568 -2.294786 0
M  V30 21 C -3.723231 -1.017655 -2.173729 0
M  V30 22 C -4.052292 -2.363168 -2.584299 0
M  V30 23 N -4.314692 -3.442504 -2.918585 0
M  V30 24 C -2.457339 -0.754328 -1.691038 0
M  V30 25 N -1.438173 -1.741273 -1.575161 0
M  V30 26 C -1.433524 -2.535799 -0.369536 0
M  V30 27 C -0.485941 -3.487364 -0.131323 0
M  V30 28 C -0.475931 -4.253491 1.002248 0
M  V30 29 C -1.467567 -4.070273 1.968787 0
M  V30 30 F -1.483342 -4.819168 3.113109 0
M  V30 31 C -2.443629 -3.118737 1.766694 0
M  V30 32 Cl -3.716740 -2.844397 2.952630 0
M  V30 33 C -2.405287 -2.373155 0.603382 0
M  V30 34 C -2.135035 0.527073 -1.296256 0
M  V30 35 C -0.922497 0.954885 -0.799993 0
M  V30 36 H 1.503165 -0.977518 5.198461 0
M  V30 37 H 0.619551 0.028854 4.017150 0
M  V30 38 H 2.457858 -0.135043 3.972723 0
M  V30 39 H -0.072229 -2.848717 4.361236 0
M  V30 40 H 1.101859 -3.901150 3.500401 0
M  V30 41 H 1.580787 -3.053098 4.970724 0
M  V30 42 H 3.502233 -2.066405 3.429606 0
M  V30 43 H 2.661696 -3.135154 2.277660 0
M  V30 44 H 4.104894 -1.454093 1.213606 0
M  V30 45 H 3.165922 -0.126102 2.043459 0
M  V30 46 H 2.058999 -2.025255 -0.038636 0
M  V30 47 H 1.130068 -0.765976 0.813393 0
M  V30 48 H 3.480604 -1.437457 -1.976163 0
M  V30 49 H 4.225410 0.759006 -3.249242 0
M  V30 50 H 1.837173 1.758749 1.410241 0
M  V30 51 H 2.569250 3.117034 0.483054 0
M  V30 52 H 0.585916 3.598549 0.167736 0
M  V30 53 H -1.577441 4.216668 -0.295689 0
M  V30 54 H -5.693358 -0.347546 -2.681969 0
M  V30 55 H -0.685956 -1.958780 -2.269231 0
M  V30 56 H 0.270037 -3.614362 -0.889814 0
M  V30 57 H 0.285459 -5.002677 1.173644 0
M  V30 58 H -3.189984 -1.616354 0.452433 0
M  V30 59 H -0.248278 0.135810 -0.769161 0
M  V30 END ATOM
M  V30 BEGIN BOND
M  V30 1 1 1 2
M  V30 2 1 2 3
M  V30 3 1 2 4
M  V30 4 1 4 5
M  V30 5 1 5 6
M  V30 6 1 6 7
M  V30 7 1 7 8
M  V30 8 1 8 9
M  V30 9 2 9 10
M  V30 10 1 10 11
M  V30 11 1 11 12
M  V30 12 1 12 13
M  V30 13 1 13 14
M  V30 14 2 14 15
M  V30 15 1 15 16
M  V30 16 1 16 17
M  V30 17 2 16 18
M  V30 18 1 18 19
M  V30 19 2 19 20
M  V30 20 1 20 21
M  V30 21 1 21 22
M  V30 22 3 22 23
M  V30 23 2 21 24
M  V30 24 1 24 25
M  V30 25 1 25 26
M  V30 26 2 26 27
M  V30 27 1 27 28
M  V30 28 2 28 29
M  V30 29 1 29 30
M  V30 30 1 29 31
M  V30 31 1 31 32
M  V30 32 2 31 33
M  V30 33 1 24 34
M  V30 34 2 34 35
M  V30 35 2 11 7
M  V30 36 1 35 14
M  V30 37 1 34 18
M  V30 38 1 33 26
M  V30 39 1 1 36
M  V30 40 1 1 37
M  V30 41 1 1 38
M  V30 42 1 3 39
M  V30 43 1 3 40
M  V30 44 1 3 41
M  V30 45 1 4 42
M  V30 46 1 4 43
M  V30 47 1 5 44
M  V30 48 1 5 45
M  V30 49 1 6 46
M  V30 50 1 6 47
M  V30 51 1 8 48
M  V30 52 1 9 49
M  V30 53 1 12 50
M  V30 54 1 12 51
M  V30 55 1 13 52
M  V30 56 1 15 53
M  V30 57 1 20 54
M  V30 58 1 25 55
M  V30 59 1 27 56
M  V30 60 1 28 57
M  V30 61 1 33 58
M  V30 62 1 35 59
M  V30 END BOND
M  V30 END CTAB
M  END
>  <Dataset>  (49) 
ChEMBL_Kinases

>  <Ligand_Instance>  (49) 
nan

>  <PDB_ID>  (49) 
nan

>  <Standardized_SMILES>  (49) 
CN(C)CCCc1[nH]cnc1CNc1cc(Cl)c2ncc(C#N)c(Nc3ccc(F)c(Cl)c3)c2c1

>  <Name>  (49) 
nan

>  <Pocket>  (49) 
nan

>  <ATP_Site>  (49) 
nan

>  <Peripheral>  (49) 
nan

>  <Num_H_Atoms_ProtBoundConf>  (49) 
nan

>  <Num_Resolved_Atoms>  (49) 
nan

>  <Num_Not_Resolved_Atoms>  (49) 
nan

$$$$
CHEMBL230655
     RDKit          3D

  0  0  0  0  0  0  0  0  0  0999 V3000
M  V30 BEGIN CTAB
M  V30 COUNTS 48 51 0 0 0
M  V30 BEGIN ATOM
M  V30 1 C 3.825713 -3.281196 0.424850 0
M  V30 2 O 3.729104 -1.883151 0.588175 0
M  V30 3 C 3.997715 -1.240817 1.785195 0
M  V30 4 O 4.328948 -2.069777 2.668522 0
M  V30 5 C 3.936205 0.182585 2.083949 0
M  V30 6 N 4.243989 0.602252 3.328892 0
M  V30 7 C 4.099122 1.947709 3.295926 0
M  V30 8 N 3.715212 2.379337 2.085188 0
M  V30 9 C 3.609803 1.280470 1.317031 0
M  V30 10 C 3.233891 1.088599 -0.100368 0
M  V30 11 N 1.908791 0.569929 -0.303847 0
M  V30 12 C 0.669694 1.139547 0.018838 0
M  V30 13 C 0.489616 2.374237 0.598907 0
M  V30 14 C -0.723681 2.942098 0.928322 0
M  V30 15 Br -0.845732 4.665381 1.730359 0
M  V30 16 C -1.861522 2.205279 0.650906 0
M  V30 17 N -3.067703 2.722299 0.957367 0
M  V30 18 C -4.216621 2.041156 0.707236 0
M  V30 19 C -4.102279 0.786621 0.121445 0
M  V30 20 C -5.302927 0.059171 -0.146555 0
M  V30 21 N -6.268099 -0.534857 -0.377435 0
M  V30 22 C -2.874594 0.218598 -0.209804 0
M  V30 23 N -2.835188 -1.055427 -0.799569 0
M  V30 24 C -2.748481 -2.345049 -0.249388 0
M  V30 25 C -2.732627 -3.468090 -1.057815 0
M  V30 26 C -2.644629 -4.703843 -0.446853 0
M  V30 27 C -2.574837 -4.797185 0.942764 0
M  V30 28 F -2.487499 -6.021727 1.550577 0
M  V30 29 C -2.590167 -3.671721 1.764572 0
M  V30 30 Cl -2.499006 -3.866513 3.499503 0
M  V30 31 C -2.679609 -2.435674 1.122510 0
M  V30 32 C -1.744236 0.960341 0.069331 0
M  V30 33 C -0.499827 0.453652 -0.233487 0
M  V30 34 H 4.315677 -3.788539 1.271045 0
M  V30 35 H 4.462379 -3.462263 -0.475654 0
M  V30 36 H 2.842369 -3.739655 0.166055 0
M  V30 37 H 4.541195 0.165532 4.229262 0
M  V30 38 H 4.244717 2.683675 4.077985 0
M  V30 39 H 4.014393 0.521100 -0.605720 0
M  V30 40 H 3.254394 2.113087 -0.582892 0
M  V30 41 H 1.893088 -0.385799 -0.771090 0
M  V30 42 H 1.335547 2.979774 0.826340 0
M  V30 43 H -5.192882 2.435835 0.944512 0
M  V30 44 H -2.883706 -0.913265 -1.815812 0
M  V30 45 H -2.787958 -3.361081 -2.124714 0
M  V30 46 H -2.629408 -5.596769 -1.032021 0
M  V30 47 H -2.692340 -1.543233 1.757275 0
M  V30 48 H -0.461978 -0.519845 -0.685089 0
M  V30 END ATOM
M  V30 BEGIN BOND
M  V30 1 1 1 2
M  V30 2 1 2 3
M  V30 3 2 3 4
M  V30 4 1 3 5
M  V30 5 1 5 6
M  V30 6 1 6 7
M  V30 7 2 7 8
M  V30 8 1 8 9
M  V30 9 1 9 10
M  V30 10 1 10 11
M  V30 11 1 11 12
M  V30 12 2 12 13
M  V30 13 1 13 14
M  V30 14 1 14 15
M  V30 15 2 14 16
M  V30 16 1 16 17
M  V30 17 2 17 18
M  V30 18 1 18 19
M  V30 19 1 19 20
M  V30 20 3 20 21
M  V30 21 2 19 22
M  V30 22 1 22 23
M  V30 23 1 23 24
M  V30 24 2 24 25
M  V30 25 1 25 26
M  V30 26 2 26 27
M  V30 27 1 27 28
M  V30 28 1 27 29
M  V30 29 1 29 30
M  V30 30 2 29 31
M  V30 31 1 22 32
M  V30 32 2 32 33
M  V30 33 2 9 5
M  V30 34 1 33 12
M  V30 35 1 32 16
M  V30 36 1 31 24
M  V30 37 1 1 34
M  V30 38 1 1 35
M  V30 39 1 1 36
M  V30 40 1 6 37
M  V30 41 1 7 38
M  V30 42 1 10 39
M  V30 43 1 10 40
M  V30 44 1 11 41
M  V30 45 1 13 42
M  V30 46 1 18 43
M  V30 47 1 23 44
M  V30 48 1 25 45
M  V30 49 1 26 46
M  V30 50 1 31 47
M  V30 51 1 33 48
M  V30 END BOND
M  V30 END CTAB
M  END
>  <Dataset>  (50) 
ChEMBL_Kinases

>  <Ligand_Instance>  (50) 
nan

>  <PDB_ID>  (50) 
nan

>  <Standardized_SMILES>  (50) 
COC(=O)c1[nH]cnc1CNc1cc(Br)c2ncc(C#N)c(Nc3ccc(F)c(Cl)c3)c2c1

>  <Name>  (50) 
nan

>  <Pocket>  (50) 
nan

>  <ATP_Site>  (50) 
nan

>  <Peripheral>  (50) 
nan

>  <Num_H_Atoms_ProtBoundConf>  (50) 
nan

>  <Num_Resolved_Atoms>  (50) 
nan

>  <Num_Not_Resolved_Atoms>  (50) 
nan

$$$$
CHEMBL230654
     RDKit          3D

  0  0  0  0  0  0  0  0  0  0999 V3000
M  V30 BEGIN CTAB
M  V30 COUNTS 51 54 0 0 0
M  V30 BEGIN ATOM
M  V30 1 C 1.796039 -0.798409 2.312411 0
M  V30 2 C 2.719384 -0.131263 3.250303 0
M  V30 3 C 3.343512 1.129551 2.736289 0
M  V30 4 C 4.093622 0.921192 1.507233 0
M  V30 5 N 5.330330 0.389014 1.584703 0
M  V30 6 C 5.751624 0.224081 0.320068 0
M  V30 7 N 4.781124 0.652620 -0.487504 0
M  V30 8 C 3.700954 1.109946 0.219843 0
M  V30 9 C 2.587893 1.683746 -0.535928 0
M  V30 10 N 1.369139 0.993167 -0.668197 0
M  V30 11 C 0.149401 1.055303 0.056560 0
M  V30 12 C -0.074836 1.928635 1.095751 0
M  V30 13 C -1.233884 2.021270 1.833630 0
M  V30 14 Cl -1.419081 3.172256 3.143192 0
M  V30 15 C -2.274008 1.170757 1.516798 0
M  V30 16 N -3.424080 1.225515 2.211321 0
M  V30 17 C -4.457399 0.395153 1.913200 0
M  V30 18 C -4.303101 -0.515933 0.872501 0
M  V30 19 C -5.418669 -1.360199 0.605684 0
M  V30 20 N -6.331818 -2.033160 0.374966 0
M  V30 21 C -3.118853 -0.582655 0.146492 0
M  V30 22 N -3.025583 -1.534291 -0.905730 0
M  V30 23 C -2.587153 -2.883190 -0.978078 0
M  V30 24 C -2.645989 -3.520775 -2.197306 0
M  V30 25 C -2.215692 -4.824759 -2.242652 0
M  V30 26 C -1.739414 -5.473960 -1.099252 0
M  V30 27 F -1.336674 -6.756595 -1.236622 0
M  V30 28 C -1.682452 -4.821011 0.134735 0
M  V30 29 Cl -1.084156 -5.650996 1.550748 0
M  V30 30 C -2.119617 -3.513266 0.154612 0
M  V30 31 C -2.087588 0.280129 0.479732 0
M  V30 32 C -0.906703 0.227919 -0.227537 0
M  V30 33 H 0.751348 -0.487245 2.376167 0
M  V30 34 H 2.129036 -0.732248 1.264746 0
M  V30 35 H 1.772903 -1.926526 2.528976 0
M  V30 36 H 3.555187 -0.839919 3.516718 0
M  V30 37 H 2.211947 0.036439 4.242489 0
M  V30 38 H 2.572806 1.937804 2.644222 0
M  V30 39 H 4.023197 1.498016 3.567524 0
M  V30 40 H 5.923602 0.123847 2.398702 0
M  V30 41 H 6.703073 -0.181073 -0.037387 0
M  V30 42 H 2.909486 1.994724 -1.578246 0
M  V30 43 H 2.347128 2.737861 -0.102163 0
M  V30 44 H 1.377318 0.288236 -1.469875 0
M  V30 45 H 0.691798 2.626033 1.392893 0
M  V30 46 H -5.337997 0.511515 2.523624 0
M  V30 47 H -3.378919 -1.019479 -1.740661 0
M  V30 48 H -3.004603 -3.065118 -3.106037 0
M  V30 49 H -2.254999 -5.346650 -3.201392 0
M  V30 50 H -2.088426 -2.971253 1.107623 0
M  V30 51 H -0.792454 -0.491464 -1.045230 0
M  V30 END ATOM
M  V30 BEGIN BOND
M  V30 1 1 1 2
M  V30 2 1 2 3
M  V30 3 1 3 4
M  V30 4 1 4 5
M  V30 5 1 5 6
M  V30 6 2 6 7
M  V30 7 1 7 8
M  V30 8 1 8 9
M  V30 9 1 9 10
M  V30 10 1 10 11
M  V30 11 2 11 12
M  V30 12 1 12 13
M  V30 13 1 13 14
M  V30 14 2 13 15
M  V30 15 1 15 16
M  V30 16 2 16 17
M  V30 17 1 17 18
M  V30 18 1 18 19
M  V30 19 3 19 20
M  V30 20 2 18 21
M  V30 21 1 21 22
M  V30 22 1 22 23
M  V30 23 2 23 24
M  V30 24 1 24 25
M  V30 25 2 25 26
M  V30 26 1 26 27
M  V30 27 1 26 28
M  V30 28 1 28 29
M  V30 29 2 28 30
M  V30 30 1 21 31
M  V30 31 2 31 32
M  V30 32 2 8 4
M  V30 33 1 32 11
M  V30 34 1 31 15
M  V30 35 1 30 23
M  V30 36 1 1 33
M  V30 37 1 1 34
M  V30 38 1 1 35
M  V30 39 1 2 36
M  V30 40 1 2 37
M  V30 41 1 3 38
M  V30 42 1 3 39
M  V30 43 1 5 40
M  V30 44 1 6 41
M  V30 45 1 9 42
M  V30 46 1 9 43
M  V30 47 1 10 44
M  V30 48 1 12 45
M  V30 49 1 17 46
M  V30 50 1 22 47
M  V30 51 1 24 48
M  V30 52 1 25 49
M  V30 53 1 30 50
M  V30 54 1 32 51
M  V30 END BOND
M  V30 END CTAB
M  END
>  <Dataset>  (51) 
ChEMBL_Kinases

>  <Ligand_Instance>  (51) 
nan

>  <PDB_ID>  (51) 
nan

>  <Standardized_SMILES>  (51) 
CCCc1[nH]cnc1CNc1cc(Cl)c2ncc(C#N)c(Nc3ccc(F)c(Cl)c3)c2c1

>  <Name>  (51) 
nan

>  <Pocket>  (51) 
nan

>  <ATP_Site>  (51) 
nan

>  <Peripheral>  (51) 
nan

>  <Num_H_Atoms_ProtBoundConf>  (51) 
nan

>  <Num_Resolved_Atoms>  (51) 
nan

>  <Num_Not_Resolved_Atoms>  (51) 
nan

$$$$
CHEMBL230987
     RDKit          3D

  0  0  0  0  0  0  0  0  0  0999 V3000
M  V30 BEGIN CTAB
M  V30 COUNTS 52 55 0 0 0
M  V30 BEGIN ATOM
M  V30 1 C -0.709672 -0.930757 2.912813 0
M  V30 2 C 0.107494 -1.913613 3.695072 0
M  V30 3 O 1.403894 -1.563259 3.980284 0
M  V30 4 C 2.480195 -1.285712 3.214065 0
M  V30 5 C 3.585912 -0.979431 3.988608 0
M  V30 6 C 4.837522 -0.652892 3.483796 0
M  V30 7 C 4.986031 -0.632106 2.097103 0
M  V30 8 C 3.912643 -0.929785 1.286881 0
M  V30 9 N 3.982862 -0.926035 -0.155592 0
M  V30 10 C 2.775053 -1.188803 -0.898684 0
M  V30 11 N 1.975921 -0.122470 -1.115838 0
M  V30 12 C 0.800680 -0.240875 -1.812968 0
M  V30 13 N 0.078372 0.976452 -1.942842 0
M  V30 14 C -1.105868 1.467829 -1.340669 0
M  V30 15 C -1.411954 2.818953 -1.545256 0
M  V30 16 C -2.571357 3.293431 -0.981641 0
M  V30 17 C -3.358547 2.414914 -0.254508 0
M  V30 18 C -3.089797 1.112599 -0.042608 0
M  V30 19 N -3.876996 0.193074 0.692006 0
M  V30 20 C -5.083126 0.446590 1.369483 0
M  V30 21 C -5.908719 -0.516078 2.137371 0
M  V30 22 O -5.599213 1.575920 1.387640 0
M  V30 23 C -1.938834 0.656887 -0.604446 0
M  V30 24 N 0.475886 -1.500140 -2.280576 0
M  V30 25 C 1.286650 -2.540086 -2.048035 0
M  V30 26 C 1.144050 -3.860729 -2.427569 0
M  V30 27 C 0.095189 -4.499220 -3.166619 0
M  V30 28 N -0.738410 -5.029866 -3.755924 0
M  V30 29 C 2.270534 -4.496046 -1.930100 0
M  V30 30 N 3.039500 -3.588727 -1.287075 0
M  V30 31 N 2.432071 -2.391062 -1.361392 0
M  V30 32 C 2.687164 -1.249238 1.859539 0
M  V30 33 H -1.728213 -1.371062 2.811339 0
M  V30 34 H -0.776567 0.021701 3.496561 0
M  V30 35 H -0.259346 -0.690206 1.943865 0
M  V30 36 H 0.106951 -2.880820 3.118031 0
M  V30 37 H -0.412531 -2.161600 4.655555 0
M  V30 38 H 3.636342 -0.953029 5.081477 0
M  V30 39 H 5.728594 -0.409375 4.012715 0
M  V30 40 H 5.877399 -0.403141 1.536727 0
M  V30 41 H 4.903379 -0.735098 -0.579765 0
M  V30 42 H 0.619324 1.530278 -2.636928 0
M  V30 43 H -0.774456 3.496528 -2.125870 0
M  V30 44 H -2.816588 4.334062 -1.132139 0
M  V30 45 H -4.235892 2.871997 0.142478 0
M  V30 46 H -3.593882 -0.816985 0.782725 0
M  V30 47 H -5.549710 -1.554232 2.101740 0
M  V30 48 H -6.944129 -0.461562 1.686147 0
M  V30 49 H -6.037884 -0.186740 3.202210 0
M  V30 50 H -1.642715 -0.397167 -0.475793 0
M  V30 51 H 2.475183 -5.554138 -2.051040 0
M  V30 52 H 1.823957 -1.495673 1.261334 0
M  V30 END ATOM
M  V30 BEGIN BOND
M  V30 1 1 1 2
M  V30 2 1 2 3
M  V30 3 1 3 4
M  V30 4 2 4 5
M  V30 5 1 5 6
M  V30 6 2 6 7
M  V30 7 1 7 8
M  V30 8 1 8 9
M  V30 9 1 9 10
M  V30 10 2 10 11
M  V30 11 1 11 12
M  V30 12 1 12 13
M  V30 13 1 13 14
M  V30 14 2 14 15
M  V30 15 1 15 16
M  V30 16 2 16 17
M  V30 17 1 17 18
M  V30 18 1 18 19
M  V30 19 1 19 20
M  V30 20 1 20 21
M  V30 21 2 20 22
M  V30 22 2 18 23
M  V30 23 2 12 24
M  V30 24 1 24 25
M  V30 25 2 25 26
M  V30 26 1 26 27
M  V30 27 3 27 28
M  V30 28 1 26 29
M  V30 29 2 29 30
M  V30 30 1 30 31
M  V30 31 2 8 32
M  V30 32 1 32 4
M  V30 33 1 31 10
M  V30 34 1 23 14
M  V30 35 1 31 25
M  V30 36 1 1 33
M  V30 37 1 1 34
M  V30 38 1 1 35
M  V30 39 1 2 36
M  V30 40 1 2 37
M  V30 41 1 5 38
M  V30 42 1 6 39
M  V30 43 1 7 40
M  V30 44 1 9 41
M  V30 45 1 13 42
M  V30 46 1 15 43
M  V30 47 1 16 44
M  V30 48 1 17 45
M  V30 49 1 19 46
M  V30 50 1 21 47
M  V30 51 1 21 48
M  V30 52 1 21 49
M  V30 53 1 23 50
M  V30 54 1 29 51
M  V30 55 1 32 52
M  V30 END BOND
M  V30 END CTAB
M  END
>  <Dataset>  (52) 
ChEMBL_Kinases

>  <Ligand_Instance>  (52) 
nan

>  <PDB_ID>  (52) 
nan

>  <Standardized_SMILES>  (52) 
CCOc1cccc(Nc2nc(Nc3cccc(NC(C)=O)c3)nc3c(C#N)cnn23)c1

>  <Name>  (52) 
nan

>  <Pocket>  (52) 
nan

>  <ATP_Site>  (52) 
nan

>  <Peripheral>  (52) 
nan

>  <Num_H_Atoms_ProtBoundConf>  (52) 
nan

>  <Num_Resolved_Atoms>  (52) 
nan

>  <Num_Not_Resolved_Atoms>  (52) 
nan

$$$$
CHEMBL2314455
     RDKit          3D

  0  0  0  0  0  0  0  0  0  0999 V3000
M  V30 BEGIN CTAB
M  V30 COUNTS 50 52 0 0 0
M  V30 BEGIN ATOM
M  V30 1 C 0.871763 -4.789270 1.384860 0
M  V30 2 C 0.483086 -3.343540 1.570858 0
M  V30 3 C -0.352975 -3.250081 2.803733 0
M  V30 4 C 1.658355 -2.420268 1.534686 0 CFG=2
M  V30 5 C 2.676328 -2.716602 2.622386 0
M  V30 6 O 2.125618 -2.370806 3.846560 0
M  V30 7 N 1.304842 -1.021811 1.531436 0
M  V30 8 C 0.448466 -0.382303 0.593895 0
M  V30 9 N 0.951836 0.814308 0.231885 0
M  V30 10 C 0.362250 1.643028 -0.627110 0
M  V30 11 N 0.870555 2.932818 -0.944708 0
M  V30 12 C 1.930167 3.227793 -0.046043 0
M  V30 13 C 1.830140 4.517921 0.428891 0
M  V30 14 C 2.755676 5.000404 1.337330 0
M  V30 15 N 3.733285 4.189142 1.732483 0
M  V30 16 C 3.848770 2.942880 1.287947 0
M  V30 17 N 2.948842 2.444285 0.392372 0
M  V30 18 C -0.826047 1.287182 -1.191251 0
M  V30 19 N -1.639354 1.889265 -2.051415 0
M  V30 20 C -2.695045 1.086882 -2.258664 0
M  V30 21 N -2.511159 -0.031798 -1.499988 0
M  V30 22 C -3.384558 -1.198935 -1.322473 0
M  V30 23 C -3.865012 -1.196831 0.145546 0
M  V30 24 C -2.671278 -2.476669 -1.577513 0
M  V30 25 C -1.342977 0.065508 -0.819366 0
M  V30 26 N -0.722064 -0.730200 0.040542 0
M  V30 27 H 1.516980 -4.981988 0.514642 0
M  V30 28 H 1.300361 -5.181584 2.354868 0
M  V30 29 H -0.096366 -5.361058 1.262690 0
M  V30 30 H -0.142008 -3.099319 0.654797 0
M  V30 31 H -0.771091 -2.267363 3.014266 0
M  V30 32 H 0.232508 -3.682653 3.640488 0
M  V30 33 H -1.200327 -3.984066 2.649085 0
M  V30 34 H 2.204338 -2.593222 0.582742 0
M  V30 35 H 3.009370 -3.751222 2.555531 0
M  V30 36 H 3.578849 -2.070839 2.412368 0
M  V30 37 H 2.775115 -2.515467 4.565526 0
M  V30 38 H 1.730663 -0.444867 2.321424 0
M  V30 39 H 0.551412 3.557090 -1.688721 0
M  V30 40 H 1.062046 5.230999 0.153599 0
M  V30 41 H 2.742924 6.013717 1.761096 0
M  V30 42 H 4.632404 2.263808 1.595245 0
M  V30 43 H -3.548560 1.245423 -2.886684 0
M  V30 44 H -4.271911 -1.135089 -1.951073 0
M  V30 45 H -3.803799 -2.214345 0.560808 0
M  V30 46 H -4.866588 -0.727480 0.197466 0
M  V30 47 H -3.126491 -0.574742 0.713167 0
M  V30 48 H -3.338576 -3.293533 -1.958199 0
M  V30 49 H -2.164307 -2.829988 -0.642757 0
M  V30 50 H -1.894935 -2.355948 -2.359988 0
M  V30 END ATOM
M  V30 BEGIN BOND
M  V30 1 1 1 2
M  V30 2 1 2 3
M  V30 3 1 2 4
M  V30 4 1 4 5
M  V30 5 1 5 6
M  V30 6 1 4 7
M  V30 7 1 7 8
M  V30 8 2 8 9
M  V30 9 1 9 10
M  V30 10 1 10 11
M  V30 11 1 11 12
M  V30 12 2 12 13
M  V30 13 1 13 14
M  V30 14 2 14 15
M  V30 15 1 15 16
M  V30 16 2 16 17
M  V30 17 2 10 18
M  V30 18 1 18 19
M  V30 19 2 19 20
M  V30 20 1 20 21
M  V30 21 1 21 22
M  V30 22 1 22 23
M  V30 23 1 22 24
M  V30 24 1 21 25
M  V30 25 2 25 26
M  V30 26 1 26 8
M  V30 27 1 17 12
M  V30 28 1 25 18
M  V30 29 1 1 27
M  V30 30 1 1 28
M  V30 31 1 1 29
M  V30 32 1 2 30
M  V30 33 1 3 31
M  V30 34 1 3 32
M  V30 35 1 3 33
M  V30 36 1 4 34 CFG=3
M  V30 37 1 5 35
M  V30 38 1 5 36
M  V30 39 1 6 37
M  V30 40 1 7 38
M  V30 41 1 11 39
M  V30 42 1 13 40
M  V30 43 1 14 41
M  V30 44 1 16 42
M  V30 45 1 20 43
M  V30 46 1 22 44
M  V30 47 1 23 45
M  V30 48 1 23 46
M  V30 49 1 23 47
M  V30 50 1 24 48
M  V30 51 1 24 49
M  V30 52 1 24 50
M  V30 END BOND
M  V30 END CTAB
M  END
>  <Dataset>  (53) 
ChEMBL_Kinases

>  <Ligand_Instance>  (53) 
nan

>  <PDB_ID>  (53) 
nan

>  <Standardized_SMILES>  (53) 
CC(C)[C@H](CO)Nc1nc(Nc2ccncn2)c2ncn(C(C)C)c2n1

>  <Name>  (53) 
nan

>  <Pocket>  (53) 
nan

>  <ATP_Site>  (53) 
nan

>  <Peripheral>  (53) 
nan

>  <Num_H_Atoms_ProtBoundConf>  (53) 
nan

>  <Num_Resolved_Atoms>  (53) 
nan

>  <Num_Not_Resolved_Atoms>  (53) 
nan

$$$$
CHEMBL2314454
     RDKit          3D

  0  0  0  0  0  0  0  0  0  0999 V3000
M  V30 BEGIN CTAB
M  V30 COUNTS 50 52 0 0 0
M  V30 BEGIN ATOM
M  V30 1 C -3.235244 2.860979 0.699547 0
M  V30 2 C -3.412328 1.829027 1.805274 0
M  V30 3 C -4.757171 1.222546 1.697725 0
M  V30 4 C -2.236778 0.911289 1.795814 0 CFG=1
M  V30 5 C -2.244277 -0.173107 2.801506 0
M  V30 6 O -2.459781 0.266175 4.106527 0
M  V30 7 N -2.001001 0.362302 0.479257 0
M  V30 8 C -0.803013 -0.410935 0.343833 0
M  V30 9 N 0.209536 0.449240 0.386299 0
M  V30 10 C 1.517202 0.137608 0.278689 0
M  V30 11 N 2.579167 1.075560 0.322100 0
M  V30 12 C 3.983585 0.967802 0.221761 0
M  V30 13 C 4.730611 2.157166 0.276442 0
M  V30 14 C 6.085893 2.165329 0.185415 0
M  V30 15 N 6.679727 0.980923 0.040705 0
M  V30 16 C 6.014173 -0.167192 -0.017081 0
M  V30 17 N 4.691933 -0.162584 0.073295 0
M  V30 18 C 1.753950 -1.213521 0.111032 0
M  V30 19 N 2.837538 -1.997131 -0.042592 0
M  V30 20 C 2.499433 -3.276892 -0.172814 0
M  V30 21 N 1.156617 -3.396948 -0.110309 0
M  V30 22 C 0.447010 -4.645209 -0.230298 0
M  V30 23 C -1.011123 -4.409279 0.111658 0
M  V30 24 C 0.498069 -5.055788 -1.710886 0
M  V30 25 C 0.739792 -2.138641 0.061348 0
M  V30 26 N -0.532141 -1.716497 0.180312 0
M  V30 27 H -2.228201 3.291546 0.794092 0
M  V30 28 H -3.416997 2.401482 -0.301233 0
M  V30 29 H -4.002212 3.646042 0.832488 0
M  V30 30 H -3.412264 2.441110 2.760586 0
M  V30 31 H -5.422992 1.960242 1.148652 0
M  V30 32 H -5.287113 1.140162 2.695817 0
M  V30 33 H -4.837874 0.290733 1.115388 0
M  V30 34 H -1.325712 1.558115 2.014089 0
M  V30 35 H -1.252081 -0.671470 2.797774 0
M  V30 36 H -2.968292 -0.978480 2.510563 0
M  V30 37 H -3.404270 0.005748 4.309002 0
M  V30 38 H -2.438885 0.332417 -0.481405 0
M  V30 39 H 2.172481 2.051163 0.463112 0
M  V30 40 H 4.226686 3.109473 0.398464 0
M  V30 41 H 6.612420 3.084812 0.231052 0
M  V30 42 H 6.618242 -1.057475 -0.136726 0
M  V30 43 H 3.220257 -4.086091 -0.310785 0
M  V30 44 H 0.887925 -5.446117 0.364415 0
M  V30 45 H -1.547099 -5.398792 0.128518 0
M  V30 46 H -1.448666 -3.808827 -0.719255 0
M  V30 47 H -1.050469 -3.873247 1.074016 0
M  V30 48 H -0.222862 -4.349629 -2.218444 0
M  V30 49 H 0.205280 -6.109664 -1.852882 0
M  V30 50 H 1.492838 -4.796912 -2.142594 0
M  V30 END ATOM
M  V30 BEGIN BOND
M  V30 1 1 1 2
M  V30 2 1 2 3
M  V30 3 1 2 4
M  V30 4 1 4 5
M  V30 5 1 5 6
M  V30 6 1 4 7
M  V30 7 1 7 8
M  V30 8 2 8 9
M  V30 9 1 9 10
M  V30 10 1 10 11
M  V30 11 1 11 12
M  V30 12 2 12 13
M  V30 13 1 13 14
M  V30 14 2 14 15
M  V30 15 1 15 16
M  V30 16 2 16 17
M  V30 17 2 10 18
M  V30 18 1 18 19
M  V30 19 2 19 20
M  V30 20 1 20 21
M  V30 21 1 21 22
M  V30 22 1 22 23
M  V30 23 1 22 24
M  V30 24 1 21 25
M  V30 25 2 25 26
M  V30 26 1 26 8
M  V30 27 1 17 12
M  V30 28 1 25 18
M  V30 29 1 1 27
M  V30 30 1 1 28
M  V30 31 1 1 29
M  V30 32 1 2 30
M  V30 33 1 3 31
M  V30 34 1 3 32
M  V30 35 1 3 33
M  V30 36 1 4 34 CFG=1
M  V30 37 1 5 35
M  V30 38 1 5 36
M  V30 39 1 6 37
M  V30 40 1 7 38
M  V30 41 1 11 39
M  V30 42 1 13 40
M  V30 43 1 14 41
M  V30 44 1 16 42
M  V30 45 1 20 43
M  V30 46 1 22 44
M  V30 47 1 23 45
M  V30 48 1 23 46
M  V30 49 1 23 47
M  V30 50 1 24 48
M  V30 51 1 24 49
M  V30 52 1 24 50
M  V30 END BOND
M  V30 END CTAB
M  END
>  <Dataset>  (54) 
ChEMBL_Kinases

>  <Ligand_Instance>  (54) 
nan

>  <PDB_ID>  (54) 
nan

>  <Standardized_SMILES>  (54) 
CC(C)[C@@H](CO)Nc1nc(Nc2ccncn2)c2ncn(C(C)C)c2n1

>  <Name>  (54) 
nan

>  <Pocket>  (54) 
nan

>  <ATP_Site>  (54) 
nan

>  <Peripheral>  (54) 
nan

>  <Num_H_Atoms_ProtBoundConf>  (54) 
nan

>  <Num_Resolved_Atoms>  (54) 
nan

>  <Num_Not_Resolved_Atoms>  (54) 
nan

$$$$
CHEMBL2314453
     RDKit          3D

  0  0  0  0  0  0  0  0  0  0999 V3000
M  V30 BEGIN CTAB
M  V30 COUNTS 43 45 0 0 0
M  V30 BEGIN ATOM
M  V30 1 C -0.815219 -4.009412 0.366412 0
M  V30 2 C -0.565468 -3.231965 1.625662 0
M  V30 3 C -1.739974 -3.497535 2.553914 0
M  V30 4 N -0.431599 -1.811829 1.443671 0
M  V30 5 C 0.584799 -1.199674 0.803771 0
M  V30 6 C 1.733731 -1.849462 0.165155 0
M  V30 7 C 1.949518 -1.277345 -1.219307 0
M  V30 8 O 0.874863 -1.435955 -2.071923 0
M  V30 9 C 3.026981 -1.660979 0.919057 0
M  V30 10 O 4.027033 -2.320453 0.206771 0
M  V30 11 N 0.393546 0.155799 0.818215 0
M  V30 12 C -0.752663 0.399908 1.472344 0
M  V30 13 C -1.402500 1.578360 1.766441 0
M  V30 14 N -0.913743 2.854380 1.379251 0
M  V30 15 C 0.310714 3.014830 0.678322 0
M  V30 16 C 1.483881 3.285750 1.368564 0
M  V30 17 C 2.738186 3.459260 0.775671 0
M  V30 18 N 2.721438 3.339153 -0.565681 0
M  V30 19 C 1.582960 3.075955 -1.242530 0
M  V30 20 N 0.376436 2.909961 -0.661838 0
M  V30 21 N -2.556632 1.480657 2.448882 0
M  V30 22 C -3.080971 0.302012 2.841600 0
M  V30 23 N -2.431168 -0.837183 2.544839 0
M  V30 24 C -1.262624 -0.840868 1.861009 0
M  V30 25 H -1.757403 -4.598914 0.413101 0
M  V30 26 H -0.939114 -3.322155 -0.496681 0
M  V30 27 H -0.030044 -4.798633 0.172704 0
M  V30 28 H 0.304998 -3.656863 2.207331 0
M  V30 29 H -1.545260 -2.991803 3.546510 0
M  V30 30 H -1.700993 -4.599563 2.790435 0
M  V30 31 H -2.688667 -3.173509 2.128323 0
M  V30 32 H 1.561459 -2.940553 0.054727 0
M  V30 33 H 2.830228 -1.732568 -1.722174 0
M  V30 34 H 2.233582 -0.185885 -1.137106 0
M  V30 35 H 0.657650 -0.531482 -2.440045 0
M  V30 36 H 3.321582 -0.594174 0.972433 0
M  V30 37 H 2.978231 -2.019673 1.963535 0
M  V30 38 H 3.614516 -3.032762 -0.334568 0
M  V30 39 H -1.419203 3.713517 1.588052 0
M  V30 40 H 1.467756 3.379206 2.453611 0
M  V30 41 H 3.600298 3.670086 1.398614 0
M  V30 42 H 1.631880 2.988700 -2.335602 0
M  V30 43 H -3.998055 0.164283 3.387320 0
M  V30 END ATOM
M  V30 BEGIN BOND
M  V30 1 1 1 2
M  V30 2 1 2 3
M  V30 3 1 2 4
M  V30 4 1 4 5
M  V30 5 1 5 6
M  V30 6 1 6 7
M  V30 7 1 7 8
M  V30 8 1 6 9
M  V30 9 1 9 10
M  V30 10 2 5 11
M  V30 11 1 11 12
M  V30 12 2 12 13
M  V30 13 1 13 14
M  V30 14 1 14 15
M  V30 15 2 15 16
M  V30 16 1 16 17
M  V30 17 2 17 18
M  V30 18 1 18 19
M  V30 19 2 19 20
M  V30 20 1 13 21
M  V30 21 2 21 22
M  V30 22 1 22 23
M  V30 23 2 23 24
M  V30 24 1 24 4
M  V30 25 1 24 12
M  V30 26 1 20 15
M  V30 27 1 1 25
M  V30 28 1 1 26
M  V30 29 1 1 27
M  V30 30 1 2 28
M  V30 31 1 3 29
M  V30 32 1 3 30
M  V30 33 1 3 31
M  V30 34 1 6 32
M  V30 35 1 7 33
M  V30 36 1 7 34
M  V30 37 1 8 35
M  V30 38 1 9 36
M  V30 39 1 9 37
M  V30 40 1 10 38
M  V30 41 1 14 39
M  V30 42 1 16 40
M  V30 43 1 17 41
M  V30 44 1 19 42
M  V30 45 1 22 43
M  V30 END BOND
M  V30 END CTAB
M  END
>  <Dataset>  (55) 
ChEMBL_Kinases

>  <Ligand_Instance>  (55) 
nan

>  <PDB_ID>  (55) 
nan

>  <Standardized_SMILES>  (55) 
CC(C)n1c(C(CO)CO)nc2c(Nc3ccncn3)ncnc21

>  <Name>  (55) 
nan

>  <Pocket>  (55) 
nan

>  <ATP_Site>  (55) 
nan

>  <Peripheral>  (55) 
nan

>  <Num_H_Atoms_ProtBoundConf>  (55) 
nan

>  <Num_Resolved_Atoms>  (55) 
nan

>  <Num_Not_Resolved_Atoms>  (55) 
nan

$$$$
CHEMBL2314451
     RDKit          3D

  0  0  0  0  0  0  0  0  0  0999 V3000
M  V30 BEGIN CTAB
M  V30 COUNTS 32 34 0 0 0
M  V30 BEGIN ATOM
M  V30 1 C -1.301713 -3.307736 3.295854 0
M  V30 2 C -0.223850 -3.553028 2.235855 0
M  V30 3 C -0.823229 -4.409816 1.170062 0
M  V30 4 N 0.286906 -2.295736 1.733027 0
M  V30 5 C 0.555886 -1.297258 2.571112 0
M  V30 6 N 1.016245 -0.232809 1.888858 0
M  V30 7 C 1.049142 -0.542419 0.572752 0
M  V30 8 C 1.413379 0.105061 -0.612407 0
M  V30 9 N 1.868635 1.431906 -0.379145 0
M  V30 10 C 0.907165 2.478029 -0.379165 0
M  V30 11 C -0.416281 2.155063 -0.596600 0
M  V30 12 N -1.353129 3.128578 -0.601323 0
M  V30 13 C -1.015820 4.418612 -0.396006 0
M  V30 14 N 0.286968 4.730927 -0.182718 0
M  V30 15 C 1.253562 3.792328 -0.169651 0
M  V30 16 N 1.304652 -0.548600 -1.777886 0
M  V30 17 C 0.844060 -1.827597 -1.797341 0
M  V30 18 Cl 0.774852 -2.511752 -3.419483 0
M  V30 19 N 0.478701 -2.493694 -0.663398 0
M  V30 20 C 0.585777 -1.844616 0.501535 0
M  V30 21 H -0.741208 -2.852124 4.154821 0
M  V30 22 H -1.768523 -4.257435 3.549005 0
M  V30 23 H -2.039963 -2.589778 2.862310 0
M  V30 24 H 0.584576 -4.100902 2.754233 0
M  V30 25 H -1.484110 -5.154405 1.703415 0
M  V30 26 H -1.523067 -3.840698 0.529545 0
M  V30 27 H -0.034961 -4.910253 0.579756 0
M  V30 28 H 0.495413 -1.138979 3.637099 0
M  V30 29 H 2.889368 1.645126 -0.209446 0
M  V30 30 H -0.795802 1.151130 -0.771923 0
M  V30 31 H -1.665347 5.282346 -0.375995 0
M  V30 32 H 2.289600 4.046231 0.000621 0
M  V30 END ATOM
M  V30 BEGIN BOND
M  V30 1 1 1 2
M  V30 2 1 2 3
M  V30 3 1 2 4
M  V30 4 1 4 5
M  V30 5 2 5 6
M  V30 6 1 6 7
M  V30 7 2 7 8
M  V30 8 1 8 9
M  V30 9 1 9 10
M  V30 10 2 10 11
M  V30 11 1 11 12
M  V30 12 2 12 13
M  V30 13 1 13 14
M  V30 14 2 14 15
M  V30 15 1 8 16
M  V30 16 2 16 17
M  V30 17 1 17 18
M  V30 18 1 17 19
M  V30 19 2 19 20
M  V30 20 1 20 4
M  V30 21 1 20 7
M  V30 22 1 15 10
M  V30 23 1 1 21
M  V30 24 1 1 22
M  V30 25 1 1 23
M  V30 26 1 2 24
M  V30 27 1 3 25
M  V30 28 1 3 26
M  V30 29 1 3 27
M  V30 30 1 5 28
M  V30 31 1 9 29
M  V30 32 1 11 30
M  V30 33 1 13 31
M  V30 34 1 15 32
M  V30 END BOND
M  V30 END CTAB
M  END
>  <Dataset>  (56) 
ChEMBL_Kinases

>  <Ligand_Instance>  (56) 
nan

>  <PDB_ID>  (56) 
nan

>  <Standardized_SMILES>  (56) 
CC(C)n1cnc2c(Nc3cncnc3)nc(Cl)nc21

>  <Name>  (56) 
nan

>  <Pocket>  (56) 
nan

>  <ATP_Site>  (56) 
nan

>  <Peripheral>  (56) 
nan

>  <Num_H_Atoms_ProtBoundConf>  (56) 
nan

>  <Num_Resolved_Atoms>  (56) 
nan

>  <Num_Not_Resolved_Atoms>  (56) 
nan

$$$$
CHEMBL2314450
     RDKit          3D

  0  0  0  0  0  0  0  0  0  0999 V3000
M  V30 BEGIN CTAB
M  V30 COUNTS 42 45 0 0 0
M  V30 BEGIN ATOM
M  V30 1 C 0.396413 -2.800045 4.833496 0
M  V30 2 C 0.054685 -2.429592 3.408117 0
M  V30 3 C -1.435750 -2.305734 3.212300 0
M  V30 4 N 0.717106 -1.217196 2.965747 0
M  V30 5 C 1.268884 -0.226548 3.684516 0
M  V30 6 N 1.770647 0.693181 2.820692 0
M  V30 7 C 1.515559 0.246620 1.576687 0
M  V30 8 C 1.810331 0.797222 0.351919 0
M  V30 9 N 2.489030 2.042626 0.307604 0
M  V30 10 C 1.866528 3.312480 0.159240 0
M  V30 11 C 0.509663 3.450139 -0.071415 0
M  V30 12 N -0.022189 4.696213 -0.206730 0
M  V30 13 C 0.816086 5.759440 -0.107237 0
M  V30 14 N 2.159258 5.671017 0.119690 0
M  V30 15 C 2.708379 4.428864 0.257471 0
M  V30 16 N 1.453517 0.166782 -0.774711 0
M  V30 17 C 0.797676 -1.020127 -0.728370 0
M  V30 18 N 0.439974 -1.632911 -1.955960 0
M  V30 19 C -0.273917 -2.834213 -2.207728 0
M  V30 20 C -0.575652 -3.276502 -3.484035 0
M  V30 21 N -1.251615 -4.399295 -3.728103 0
M  V30 22 C -1.675246 -5.162280 -2.690462 0
M  V30 23 N -1.422546 -4.801811 -1.427454 0
M  V30 24 C -0.729256 -3.650692 -1.180976 0
M  V30 25 N 0.533099 -1.516504 0.485517 0
M  V30 26 C 0.852959 -0.954740 1.656339 0
M  V30 27 H 0.239901 -3.906380 4.972442 0
M  V30 28 H 1.477537 -2.616204 4.988625 0
M  V30 29 H -0.259947 -2.273754 5.541070 0
M  V30 30 H 0.399085 -3.280030 2.758439 0
M  V30 31 H -1.879589 -3.280997 2.951076 0
M  V30 32 H -1.591331 -1.637436 2.347201 0
M  V30 33 H -1.916480 -1.830583 4.092449 0
M  V30 34 H 1.272616 -0.235058 4.759903 0
M  V30 35 H 3.498429 1.914715 0.398290 0
M  V30 36 H -0.133749 2.581495 -0.145408 0
M  V30 37 H 0.547019 6.814859 -0.191185 0
M  V30 38 H 3.768667 4.295678 0.439348 0
M  V30 39 H 0.732330 -1.152000 -2.837589 0
M  V30 40 H -0.247783 -2.678261 -4.346104 0
M  V30 41 H -2.237925 -6.096772 -2.832550 0
M  V30 42 H -0.577512 -3.448213 -0.140452 0
M  V30 END ATOM
M  V30 BEGIN BOND
M  V30 1 1 1 2
M  V30 2 1 2 3
M  V30 3 1 2 4
M  V30 4 1 4 5
M  V30 5 2 5 6
M  V30 6 1 6 7
M  V30 7 2 7 8
M  V30 8 1 8 9
M  V30 9 1 9 10
M  V30 10 2 10 11
M  V30 11 1 11 12
M  V30 12 2 12 13
M  V30 13 1 13 14
M  V30 14 2 14 15
M  V30 15 1 8 16
M  V30 16 2 16 17
M  V30 17 1 17 18
M  V30 18 1 18 19
M  V30 19 2 19 20
M  V30 20 1 20 21
M  V30 21 2 21 22
M  V30 22 1 22 23
M  V30 23 2 23 24
M  V30 24 1 17 25
M  V30 25 2 25 26
M  V30 26 1 26 4
M  V30 27 1 26 7
M  V30 28 1 15 10
M  V30 29 1 24 19
M  V30 30 1 1 27
M  V30 31 1 1 28
M  V30 32 1 1 29
M  V30 33 1 2 30
M  V30 34 1 3 31
M  V30 35 1 3 32
M  V30 36 1 3 33
M  V30 37 1 5 34
M  V30 38 1 9 35
M  V30 39 1 11 36
M  V30 40 1 13 37
M  V30 41 1 15 38
M  V30 42 1 18 39
M  V30 43 1 20 40
M  V30 44 1 22 41
M  V30 45 1 24 42
M  V30 END BOND
M  V30 END CTAB
M  END
>  <Dataset>  (57) 
ChEMBL_Kinases

>  <Ligand_Instance>  (57) 
nan

>  <PDB_ID>  (57) 
nan

>  <Standardized_SMILES>  (57) 
CC(C)n1cnc2c(Nc3cncnc3)nc(Nc3cncnc3)nc21

>  <Name>  (57) 
nan

>  <Pocket>  (57) 
nan

>  <ATP_Site>  (57) 
nan

>  <Peripheral>  (57) 
nan

>  <Num_H_Atoms_ProtBoundConf>  (57) 
nan

>  <Num_Resolved_Atoms>  (57) 
nan

>  <Num_Not_Resolved_Atoms>  (57) 
nan

$$$$
CHEMBL2314449
     RDKit          3D

  0  0  0  0  0  0  0  0  0  0999 V3000
M  V30 BEGIN CTAB
M  V30 COUNTS 47 49 0 0 0
M  V30 BEGIN ATOM
M  V30 1 C -0.593610 -3.860166 3.877172 0
M  V30 2 C 0.296239 -3.090571 2.958221 0
M  V30 3 C 0.819567 -1.799377 3.487276 0 CFG=2
M  V30 4 C -0.248901 -0.796424 3.843391 0
M  V30 5 O 0.392571 0.341859 4.388688 0
M  V30 6 N 1.755711 -1.267029 2.520081 0
M  V30 7 C 1.300557 -0.904919 1.231801 0
M  V30 8 N 2.153105 -0.418751 0.313463 0
M  V30 9 C 1.820170 -0.031969 -0.925422 0
M  V30 10 N 2.843994 0.472735 -1.794266 0
M  V30 11 C 3.004792 1.783295 -1.208854 0
M  V30 12 C 2.454064 3.031503 -1.385931 0
M  V30 13 N 2.875308 4.038923 -0.613144 0
M  V30 14 C 3.812549 3.910016 0.336289 0
M  V30 15 N 4.406656 2.706258 0.574227 0
M  V30 16 C 3.988232 1.658789 -0.208457 0
M  V30 17 C 0.510472 -0.128723 -1.319292 0
M  V30 18 N -0.179033 0.135348 -2.418237 0
M  V30 19 C -1.477939 -0.200437 -2.158379 0
M  V30 20 N -1.649214 -0.677352 -0.909181 0
M  V30 21 C -2.810828 -1.138740 -0.215328 0
M  V30 22 C -3.617523 0.039625 0.296178 0
M  V30 23 C -3.677013 -2.097905 -0.956352 0
M  V30 24 C -0.384143 -0.623731 -0.399232 0
M  V30 25 N 0.027323 -0.988386 0.821921 0
M  V30 26 H -1.659031 -3.626622 3.731405 0
M  V30 27 H -0.477156 -4.949214 3.592087 0
M  V30 28 H -0.300672 -3.836352 4.944423 0
M  V30 29 H 1.209095 -3.726264 2.749909 0
M  V30 30 H -0.218771 -3.027709 1.979931 0
M  V30 31 H 1.376040 -2.010785 4.425005 0
M  V30 32 H -0.818518 -0.416743 2.960956 0
M  V30 33 H -0.970283 -1.167239 4.572122 0
M  V30 34 H 0.005357 1.186855 4.042058 0
M  V30 35 H 2.758804 -1.140722 2.753573 0
M  V30 36 H 3.341403 0.037663 -2.622218 0
M  V30 37 H 1.734155 2.955495 -2.170912 0
M  V30 38 H 4.085160 4.803198 0.919062 0
M  V30 39 H 4.559110 0.771435 0.112790 0
M  V30 40 H -2.277719 -0.096211 -2.882421 0
M  V30 41 H -2.480373 -1.672958 0.724055 0
M  V30 42 H -2.945582 0.606015 0.989866 0
M  V30 43 H -4.441890 -0.332116 0.938644 0
M  V30 44 H -3.990922 0.683720 -0.503961 0
M  V30 45 H -3.125328 -3.047693 -1.085109 0
M  V30 46 H -4.543222 -2.325997 -0.278727 0
M  V30 47 H -4.052679 -1.705896 -1.907577 0
M  V30 END ATOM
M  V30 BEGIN BOND
M  V30 1 1 1 2
M  V30 2 1 2 3
M  V30 3 1 3 4
M  V30 4 1 4 5
M  V30 5 1 3 6
M  V30 6 1 6 7
M  V30 7 2 7 8
M  V30 8 1 8 9
M  V30 9 1 9 10
M  V30 10 1 10 11
M  V30 11 2 11 12
M  V30 12 1 12 13
M  V30 13 2 13 14
M  V30 14 1 14 15
M  V30 15 2 15 16
M  V30 16 2 9 17
M  V30 17 1 17 18
M  V30 18 2 18 19
M  V30 19 1 19 20
M  V30 20 1 20 21
M  V30 21 1 21 22
M  V30 22 1 21 23
M  V30 23 1 20 24
M  V30 24 2 24 25
M  V30 25 1 25 7
M  V30 26 1 16 11
M  V30 27 1 24 17
M  V30 28 1 1 26
M  V30 29 1 1 27
M  V30 30 1 1 28
M  V30 31 1 2 29
M  V30 32 1 2 30
M  V30 33 1 3 31 CFG=1
M  V30 34 1 4 32
M  V30 35 1 4 33
M  V30 36 1 5 34
M  V30 37 1 6 35
M  V30 38 1 10 36
M  V30 39 1 12 37
M  V30 40 1 14 38
M  V30 41 1 16 39
M  V30 42 1 19 40
M  V30 43 1 21 41
M  V30 44 1 22 42
M  V30 45 1 22 43
M  V30 46 1 22 44
M  V30 47 1 23 45
M  V30 48 1 23 46
M  V30 49 1 23 47
M  V30 END BOND
M  V30 END CTAB
M  END
>  <Dataset>  (58) 
ChEMBL_Kinases

>  <Ligand_Instance>  (58) 
nan

>  <PDB_ID>  (58) 
nan

>  <Standardized_SMILES>  (58) 
CC[C@H](CO)Nc1nc(Nc2cncnc2)c2ncn(C(C)C)c2n1

>  <Name>  (58) 
nan

>  <Pocket>  (58) 
nan

>  <ATP_Site>  (58) 
nan

>  <Peripheral>  (58) 
nan

>  <Num_H_Atoms_ProtBoundConf>  (58) 
nan

>  <Num_Resolved_Atoms>  (58) 
nan

>  <Num_Not_Resolved_Atoms>  (58) 
nan

$$$$
CHEMBL2314448
     RDKit          3D

  0  0  0  0  0  0  0  0  0  0999 V3000
M  V30 BEGIN CTAB
M  V30 COUNTS 47 49 0 0 0
M  V30 BEGIN ATOM
M  V30 1 C 1.605652 -4.132942 4.264586 0
M  V30 2 C 0.651114 -3.050316 4.709958 0
M  V30 3 C 0.072255 -2.381487 3.494189 0 CFG=1
M  V30 4 C -0.898068 -1.280274 3.863446 0
M  V30 5 O -1.813678 -1.807063 4.796880 0
M  V30 6 N 1.072513 -1.960360 2.534467 0
M  V30 7 C 0.807538 -1.308545 1.297853 0
M  V30 8 N 1.825982 -0.955788 0.471493 0
M  V30 9 C 1.601869 -0.339267 -0.702100 0
M  V30 10 N 2.730315 -0.007635 -1.502742 0
M  V30 11 C 3.366150 1.254291 -1.333133 0
M  V30 12 C 2.914364 2.166866 -0.409438 0
M  V30 13 N 3.524574 3.350083 -0.262326 0
M  V30 14 C 4.602697 3.660467 -1.030126 0
M  V30 15 N 5.083025 2.804675 -1.946118 0
M  V30 16 C 4.457974 1.603441 -2.090600 0
M  V30 17 C 0.307718 -0.053377 -1.085522 0
M  V30 18 N -0.204112 0.539675 -2.174426 0
M  V30 19 C -1.561126 0.564378 -2.039453 0
M  V30 20 N -1.885310 -0.012855 -0.868534 0
M  V30 21 C -3.232396 -0.189263 -0.342183 0
M  V30 22 C -3.896493 1.123071 -0.033518 0
M  V30 23 C -4.026951 -1.047874 -1.296733 0
M  V30 24 C -0.734086 -0.394336 -0.279047 0
M  V30 25 N -0.434861 -1.007522 0.877844 0
M  V30 26 H 1.268799 -4.496658 3.266804 0
M  V30 27 H 2.593614 -3.655438 4.131515 0
M  V30 28 H 1.659748 -4.972737 5.003251 0
M  V30 29 H -0.200003 -3.592663 5.205951 0
M  V30 30 H 1.120785 -2.335363 5.413017 0
M  V30 31 H -0.550454 -3.164171 2.978035 0
M  V30 32 H -0.361368 -0.397573 4.243076 0
M  V30 33 H -1.512802 -0.973760 2.993739 0
M  V30 34 H -2.221335 -1.047777 5.294679 0
M  V30 35 H 2.046005 -2.161600 2.793990 0
M  V30 36 H 3.103223 -0.670087 -2.213116 0
M  V30 37 H 2.071457 1.974612 0.219957 0
M  V30 38 H 5.085081 4.610564 -0.905330 0
M  V30 39 H 4.870808 0.943993 -2.833888 0
M  V30 40 H -2.293480 0.972753 -2.738047 0
M  V30 41 H -3.173407 -0.760592 0.610773 0
M  V30 42 H -3.112245 1.922325 -0.066795 0
M  V30 43 H -4.325906 1.149023 1.002864 0
M  V30 44 H -4.696806 1.387217 -0.722153 0
M  V30 45 H -3.493716 -2.008722 -1.394068 0
M  V30 46 H -5.004405 -1.256590 -0.818893 0
M  V30 47 H -4.220165 -0.549067 -2.258481 0
M  V30 END ATOM
M  V30 BEGIN BOND
M  V30 1 1 1 2
M  V30 2 1 2 3
M  V30 3 1 3 4
M  V30 4 1 4 5
M  V30 5 1 3 6
M  V30 6 1 6 7
M  V30 7 2 7 8
M  V30 8 1 8 9
M  V30 9 1 9 10
M  V30 10 1 10 11
M  V30 11 2 11 12
M  V30 12 1 12 13
M  V30 13 2 13 14
M  V30 14 1 14 15
M  V30 15 2 15 16
M  V30 16 2 9 17
M  V30 17 1 17 18
M  V30 18 2 18 19
M  V30 19 1 19 20
M  V30 20 1 20 21
M  V30 21 1 21 22
M  V30 22 1 21 23
M  V30 23 1 20 24
M  V30 24 2 24 25
M  V30 25 1 25 7
M  V30 26 1 16 11
M  V30 27 1 24 17
M  V30 28 1 1 26
M  V30 29 1 1 27
M  V30 30 1 1 28
M  V30 31 1 2 29
M  V30 32 1 2 30
M  V30 33 1 3 31 CFG=3
M  V30 34 1 4 32
M  V30 35 1 4 33
M  V30 36 1 5 34
M  V30 37 1 6 35
M  V30 38 1 10 36
M  V30 39 1 12 37
M  V30 40 1 14 38
M  V30 41 1 16 39
M  V30 42 1 19 40
M  V30 43 1 21 41
M  V30 44 1 22 42
M  V30 45 1 22 43
M  V30 46 1 22 44
M  V30 47 1 23 45
M  V30 48 1 23 46
M  V30 49 1 23 47
M  V30 END BOND
M  V30 END CTAB
M  END
>  <Dataset>  (59) 
ChEMBL_Kinases

>  <Ligand_Instance>  (59) 
nan

>  <PDB_ID>  (59) 
nan

>  <Standardized_SMILES>  (59) 
CC[C@@H](CO)Nc1nc(Nc2cncnc2)c2ncn(C(C)C)c2n1

>  <Name>  (59) 
nan

>  <Pocket>  (59) 
nan

>  <ATP_Site>  (59) 
nan

>  <Peripheral>  (59) 
nan

>  <Num_H_Atoms_ProtBoundConf>  (59) 
nan

>  <Num_Resolved_Atoms>  (59) 
nan

>  <Num_Not_Resolved_Atoms>  (59) 
nan

$$$$
CHEMBL2314447
     RDKit          3D

  0  0  0  0  0  0  0  0  0  0999 V3000
M  V30 BEGIN CTAB
M  V30 COUNTS 50 52 0 0 0
M  V30 BEGIN ATOM
M  V30 1 C 1.358721 -2.619812 3.787520 0
M  V30 2 C 1.528658 -3.544204 2.614775 0
M  V30 3 C 0.227535 -4.284053 2.387344 0
M  V30 4 C 1.814341 -2.761908 1.328619 0 CFG=2
M  V30 5 C 3.111721 -1.977073 1.467641 0
M  V30 6 O 4.230441 -2.810777 1.551290 0
M  V30 7 N 0.739809 -1.782453 1.250307 0
M  V30 8 C 0.223913 -0.789208 0.364769 0
M  V30 9 N 0.931472 0.360716 0.170033 0
M  V30 10 C 0.442649 1.330626 -0.663871 0
M  V30 11 N 1.188002 2.537717 -0.843433 0
M  V30 12 C 1.635854 3.191916 0.364772 0
M  V30 13 C 2.559292 4.238213 0.372362 0
M  V30 14 N 2.916354 4.803254 1.539645 0
M  V30 15 C 2.419575 4.404608 2.730313 0
M  V30 16 N 1.523037 3.393782 2.756684 0
M  V30 17 C 1.145322 2.809811 1.619490 0
M  V30 18 C -0.766047 1.073500 -1.268606 0
M  V30 19 N -1.482938 1.854875 -2.133321 0
M  V30 20 C -2.619699 1.183530 -2.460802 0
M  V30 21 N -2.653285 -0.003228 -1.832773 0
M  V30 22 C -3.588348 -1.106382 -1.775107 0
M  V30 23 C -3.782813 -1.530071 -0.310532 0
M  V30 24 C -3.083991 -2.343226 -2.482513 0
M  V30 25 C -1.510707 -0.063377 -1.103726 0
M  V30 26 N -0.960938 -0.970809 -0.266150 0
M  V30 27 H 0.282412 -2.631582 4.151878 0
M  V30 28 H 1.967983 -2.927372 4.645684 0
M  V30 29 H 1.537384 -1.539953 3.531353 0
M  V30 30 H 2.339598 -4.283036 2.801497 0
M  V30 31 H 0.016209 -4.403786 1.288893 0
M  V30 32 H 0.200104 -5.270439 2.899205 0
M  V30 33 H -0.639296 -3.725774 2.815574 0
M  V30 34 H 1.768968 -3.401069 0.460436 0
M  V30 35 H 3.113627 -1.288233 2.320460 0
M  V30 36 H 3.256676 -1.402264 0.518579 0
M  V30 37 H 4.439548 -2.924246 2.530485 0
M  V30 38 H 0.048960 -1.650237 2.043891 0
M  V30 39 H 1.460937 3.031718 -1.719822 0
M  V30 40 H 2.961180 4.557930 -0.592638 0
M  V30 41 H 2.753009 4.905039 3.621968 0
M  V30 42 H 0.416174 2.010254 1.746758 0
M  V30 43 H -3.446038 1.480367 -3.128765 0
M  V30 44 H -4.560336 -0.837167 -2.247618 0
M  V30 45 H -3.276291 -2.479712 -0.076970 0
M  V30 46 H -4.850703 -1.686207 -0.151229 0
M  V30 47 H -3.408278 -0.733801 0.391730 0
M  V30 48 H -3.898491 -3.106752 -2.347429 0
M  V30 49 H -2.216979 -2.777007 -1.946098 0
M  V30 50 H -2.912766 -2.154074 -3.553287 0
M  V30 END ATOM
M  V30 BEGIN BOND
M  V30 1 1 1 2
M  V30 2 1 2 3
M  V30 3 1 2 4
M  V30 4 1 4 5
M  V30 5 1 5 6
M  V30 6 1 4 7
M  V30 7 1 7 8
M  V30 8 2 8 9
M  V30 9 1 9 10
M  V30 10 1 10 11
M  V30 11 1 11 12
M  V30 12 2 12 13
M  V30 13 1 13 14
M  V30 14 2 14 15
M  V30 15 1 15 16
M  V30 16 2 16 17
M  V30 17 2 10 18
M  V30 18 1 18 19
M  V30 19 2 19 20
M  V30 20 1 20 21
M  V30 21 1 21 22
M  V30 22 1 22 23
M  V30 23 1 22 24
M  V30 24 1 21 25
M  V30 25 2 25 26
M  V30 26 1 26 8
M  V30 27 1 17 12
M  V30 28 1 25 18
M  V30 29 1 1 27
M  V30 30 1 1 28
M  V30 31 1 1 29
M  V30 32 1 2 30
M  V30 33 1 3 31
M  V30 34 1 3 32
M  V30 35 1 3 33
M  V30 36 1 4 34 CFG=3
M  V30 37 1 5 35
M  V30 38 1 5 36
M  V30 39 1 6 37
M  V30 40 1 7 38
M  V30 41 1 11 39
M  V30 42 1 13 40
M  V30 43 1 15 41
M  V30 44 1 17 42
M  V30 45 1 20 43
M  V30 46 1 22 44
M  V30 47 1 23 45
M  V30 48 1 23 46
M  V30 49 1 23 47
M  V30 50 1 24 48
M  V30 51 1 24 49
M  V30 52 1 24 50
M  V30 END BOND
M  V30 END CTAB
M  END
>  <Dataset>  (60) 
ChEMBL_Kinases

>  <Ligand_Instance>  (60) 
nan

>  <PDB_ID>  (60) 
nan

>  <Standardized_SMILES>  (60) 
CC(C)[C@H](CO)Nc1nc(Nc2cncnc2)c2ncn(C(C)C)c2n1

>  <Name>  (60) 
nan

>  <Pocket>  (60) 
nan

>  <ATP_Site>  (60) 
nan

>  <Peripheral>  (60) 
nan

>  <Num_H_Atoms_ProtBoundConf>  (60) 
nan

>  <Num_Resolved_Atoms>  (60) 
nan

>  <Num_Not_Resolved_Atoms>  (60) 
nan

$$$$
CHEMBL2314446
     RDKit          3D

  0  0  0  0  0  0  0  0  0  0999 V3000
M  V30 BEGIN CTAB
M  V30 COUNTS 50 52 0 0 0
M  V30 BEGIN ATOM
M  V30 1 C -0.317033 -4.409081 2.703475 0
M  V30 2 C -0.154273 -2.905200 2.463221 0
M  V30 3 C -0.500953 -2.246163 3.776626 0
M  V30 4 C 1.265793 -2.651531 2.052977 0 CFG=1
M  V30 5 C 1.637789 -3.387349 0.789943 0
M  V30 6 O 2.978486 -3.184427 0.471136 0
M  V30 7 N 1.481480 -1.239460 1.890067 0
M  V30 8 C 0.766302 -0.465904 0.934471 0
M  V30 9 N 0.991557 0.850604 0.823043 0
M  V30 10 C 0.403960 1.694678 -0.020456 0
M  V30 11 N 0.639617 3.086027 -0.140715 0
M  V30 12 C 1.533289 3.919104 0.580608 0
M  V30 13 C 1.667339 5.282598 0.360956 0
M  V30 14 N 2.530270 6.019172 1.075262 0
M  V30 15 C 3.313457 5.503668 2.036937 0
M  V30 16 N 3.225785 4.199362 2.289757 0
M  V30 17 C 2.362431 3.450099 1.578367 0
M  V30 18 C -0.525044 1.103055 -0.843433 0
M  V30 19 N -1.328204 1.608385 -1.824520 0
M  V30 20 C -2.078239 0.627974 -2.355694 0
M  V30 21 N -1.748810 -0.503848 -1.708181 0
M  V30 22 C -2.288426 -1.829533 -1.925796 0
M  V30 23 C -3.248289 -2.275732 -0.865072 0
M  V30 24 C -1.202017 -2.884465 -2.076107 0
M  V30 25 C -0.806966 -0.231110 -0.787087 0
M  V30 26 N -0.144087 -0.980062 0.110586 0
M  V30 27 H -0.373723 -4.957898 1.742667 0
M  V30 28 H 0.518620 -4.751493 3.317333 0
M  V30 29 H -1.257430 -4.607626 3.252306 0
M  V30 30 H -0.855584 -2.605251 1.673048 0
M  V30 31 H -1.600255 -2.372428 3.913411 0
M  V30 32 H 0.008553 -2.801419 4.609696 0
M  V30 33 H -0.184437 -1.203724 3.856709 0
M  V30 34 H 1.951581 -3.044178 2.853095 0
M  V30 35 H 1.047628 -3.032908 -0.085365 0
M  V30 36 H 1.471045 -4.472505 0.879635 0
M  V30 37 H 3.071164 -2.199209 0.291454 0
M  V30 38 H 2.194645 -0.750672 2.497445 0
M  V30 39 H 0.084007 3.619591 -0.867776 0
M  V30 40 H 1.047556 5.748980 -0.415529 0
M  V30 41 H 3.950076 6.223170 2.517286 0
M  V30 42 H 2.375974 2.410376 1.867741 0
M  V30 43 H -2.815912 0.744600 -3.164626 0
M  V30 44 H -2.865334 -1.808157 -2.888588 0
M  V30 45 H -3.164596 -3.389025 -0.721324 0
M  V30 46 H -4.323615 -2.140230 -1.173525 0
M  V30 47 H -3.052913 -1.830172 0.131311 0
M  V30 48 H -1.367223 -3.508555 -2.994172 0
M  V30 49 H -1.226481 -3.620366 -1.220327 0
M  V30 50 H -0.187038 -2.443201 -2.093012 0
M  V30 END ATOM
M  V30 BEGIN BOND
M  V30 1 1 1 2
M  V30 2 1 2 3
M  V30 3 1 2 4
M  V30 4 1 4 5
M  V30 5 1 5 6
M  V30 6 1 4 7
M  V30 7 1 7 8
M  V30 8 2 8 9
M  V30 9 1 9 10
M  V30 10 1 10 11
M  V30 11 1 11 12
M  V30 12 2 12 13
M  V30 13 1 13 14
M  V30 14 2 14 15
M  V30 15 1 15 16
M  V30 16 2 16 17
M  V30 17 2 10 18
M  V30 18 1 18 19
M  V30 19 2 19 20
M  V30 20 1 20 21
M  V30 21 1 21 22
M  V30 22 1 22 23
M  V30 23 1 22 24
M  V30 24 1 21 25
M  V30 25 2 25 26
M  V30 26 1 26 8
M  V30 27 1 17 12
M  V30 28 1 25 18
M  V30 29 1 1 27
M  V30 30 1 1 28
M  V30 31 1 1 29
M  V30 32 1 2 30
M  V30 33 1 3 31
M  V30 34 1 3 32
M  V30 35 1 3 33
M  V30 36 1 4 34 CFG=1
M  V30 37 1 5 35
M  V30 38 1 5 36
M  V30 39 1 6 37
M  V30 40 1 7 38
M  V30 41 1 11 39
M  V30 42 1 13 40
M  V30 43 1 15 41
M  V30 44 1 17 42
M  V30 45 1 20 43
M  V30 46 1 22 44
M  V30 47 1 23 45
M  V30 48 1 23 46
M  V30 49 1 23 47
M  V30 50 1 24 48
M  V30 51 1 24 49
M  V30 52 1 24 50
M  V30 END BOND
M  V30 END CTAB
M  END
>  <Dataset>  (61) 
ChEMBL_Kinases

>  <Ligand_Instance>  (61) 
nan

>  <PDB_ID>  (61) 
nan

>  <Standardized_SMILES>  (61) 
CC(C)[C@@H](CO)Nc1nc(Nc2cncnc2)c2ncn(C(C)C)c2n1

>  <Name>  (61) 
nan

>  <Pocket>  (61) 
nan

>  <ATP_Site>  (61) 
nan

>  <Peripheral>  (61) 
nan

>  <Num_H_Atoms_ProtBoundConf>  (61) 
nan

>  <Num_Resolved_Atoms>  (61) 
nan

>  <Num_Not_Resolved_Atoms>  (61) 
nan

$$$$
CHEMBL2314445
     RDKit          3D

  0  0  0  0  0  0  0  0  0  0999 V3000
M  V30 BEGIN CTAB
M  V30 COUNTS 45 47 0 0 0
M  V30 BEGIN ATOM
M  V30 1 C -0.608910 -5.197807 1.090654 0
M  V30 2 C 0.188997 -4.390382 2.114898 0
M  V30 3 C -0.829499 -3.698038 2.987573 0
M  V30 4 N 0.990734 -3.447428 1.367178 0
M  V30 5 C 2.176602 -3.709873 0.789121 0
M  V30 6 N 2.570777 -2.564452 0.204292 0
M  V30 7 C 1.661125 -1.578691 0.397808 0
M  V30 8 C 1.644070 -0.245997 -0.017225 0
M  V30 9 N 2.720057 0.247634 -0.774825 0
M  V30 10 C 2.895681 1.553139 -1.288617 0
M  V30 11 C 2.012695 2.596977 -1.128121 0
M  V30 12 N 2.228787 3.827940 -1.640774 0
M  V30 13 C 3.333062 4.081092 -2.337852 0
M  V30 14 N 4.232257 3.112870 -2.531481 0
M  V30 15 C 3.999134 1.902138 -2.015763 0
M  V30 16 N 0.563185 0.418210 0.374272 0
M  V30 17 C -0.446643 -0.083654 1.097586 0
M  V30 18 C -1.600963 0.809311 1.457185 0
M  V30 19 C -2.626273 0.051137 2.270887 0
M  V30 20 C -2.278335 1.353007 0.239635 0
M  V30 21 C -1.074589 1.996496 2.252501 0
M  V30 22 O -2.097948 2.862004 2.615532 0
M  V30 23 N -0.400733 -1.387361 1.487283 0
M  V30 24 C 0.666434 -2.164591 1.139450 0
M  V30 25 H -1.377900 -5.793342 1.620122 0
M  V30 26 H -1.089705 -4.487791 0.395752 0
M  V30 27 H 0.067328 -5.893123 0.543027 0
M  V30 28 H 0.801898 -5.051926 2.739523 0
M  V30 29 H -0.374373 -2.907274 3.630646 0
M  V30 30 H -1.271689 -4.484898 3.654992 0
M  V30 31 H -1.690279 -3.311407 2.410069 0
M  V30 32 H 2.698933 -4.662508 0.801162 0
M  V30 33 H 3.506422 -0.422162 -1.000259 0
M  V30 34 H 1.105922 2.467595 -0.580703 0
M  V30 35 H 3.519195 5.059482 -2.753344 0
M  V30 36 H 4.796223 1.174716 -2.229075 0
M  V30 37 H -2.964575 0.631225 3.152387 0
M  V30 38 H -3.463320 -0.241770 1.608756 0
M  V30 39 H -2.139758 -0.910946 2.582902 0
M  V30 40 H -3.157438 0.720927 0.014582 0
M  V30 41 H -2.572264 2.409580 0.397697 0
M  V30 42 H -1.555018 1.276175 -0.608875 0
M  V30 43 H -0.593431 1.667614 3.199289 0
M  V30 44 H -0.341953 2.525965 1.603604 0
M  V30 45 H -2.995089 2.517185 2.386693 0
M  V30 END ATOM
M  V30 BEGIN BOND
M  V30 1 1 1 2
M  V30 2 1 2 3
M  V30 3 1 2 4
M  V30 4 1 4 5
M  V30 5 2 5 6
M  V30 6 1 6 7
M  V30 7 2 7 8
M  V30 8 1 8 9
M  V30 9 1 9 10
M  V30 10 2 10 11
M  V30 11 1 11 12
M  V30 12 2 12 13
M  V30 13 1 13 14
M  V30 14 2 14 15
M  V30 15 1 8 16
M  V30 16 2 16 17
M  V30 17 1 17 18
M  V30 18 1 18 19
M  V30 19 1 18 20
M  V30 20 1 18 21
M  V30 21 1 21 22
M  V30 22 1 17 23
M  V30 23 2 23 24
M  V30 24 1 24 4
M  V30 25 1 24 7
M  V30 26 1 15 10
M  V30 27 1 1 25
M  V30 28 1 1 26
M  V30 29 1 1 27
M  V30 30 1 2 28
M  V30 31 1 3 29
M  V30 32 1 3 30
M  V30 33 1 3 31
M  V30 34 1 5 32
M  V30 35 1 9 33
M  V30 36 1 11 34
M  V30 37 1 13 35
M  V30 38 1 15 36
M  V30 39 1 19 37
M  V30 40 1 19 38
M  V30 41 1 19 39
M  V30 42 1 20 40
M  V30 43 1 20 41
M  V30 44 1 20 42
M  V30 45 1 21 43
M  V30 46 1 21 44
M  V30 47 1 22 45
M  V30 END BOND
M  V30 END CTAB
M  END
>  <Dataset>  (62) 
ChEMBL_Kinases

>  <Ligand_Instance>  (62) 
nan

>  <PDB_ID>  (62) 
nan

>  <Standardized_SMILES>  (62) 
CC(C)n1cnc2c(Nc3cncnc3)nc(C(C)(C)CO)nc21

>  <Name>  (62) 
nan

>  <Pocket>  (62) 
nan

>  <ATP_Site>  (62) 
nan

>  <Peripheral>  (62) 
nan

>  <Num_H_Atoms_ProtBoundConf>  (62) 
nan

>  <Num_Resolved_Atoms>  (62) 
nan

>  <Num_Not_Resolved_Atoms>  (62) 
nan

$$$$
CHEMBL2314444
     RDKit          3D

  0  0  0  0  0  0  0  0  0  0999 V3000
M  V30 BEGIN CTAB
M  V30 COUNTS 43 45 0 0 0
M  V30 BEGIN ATOM
M  V30 1 C 0.934797 -3.997258 2.670620 0
M  V30 2 C -0.239378 -3.294753 2.095375 0
M  V30 3 C -0.826471 -4.032973 0.915312 0
M  V30 4 N -0.034389 -1.880531 1.840073 0
M  V30 5 C 0.916270 -1.299542 1.088393 0
M  V30 6 C 1.996541 -1.954015 0.317348 0
M  V30 7 C 1.982956 -1.453072 -1.122205 0
M  V30 8 O 2.976446 -2.031994 -1.899598 0
M  V30 9 C 3.373672 -1.520135 0.850930 0
M  V30 10 O 4.393119 -2.143827 0.117020 0
M  V30 11 N 0.819706 0.041124 1.067044 0
M  V30 12 C -0.220786 0.377395 1.821913 0
M  V30 13 C -0.839251 1.573217 2.200268 0
M  V30 14 N -0.199836 2.736817 1.637860 0
M  V30 15 C -0.570768 3.229550 0.357121 0
M  V30 16 C -0.022379 4.368354 -0.245912 0
M  V30 17 N -0.410269 4.787739 -1.465817 0
M  V30 18 C -1.358546 4.112232 -2.162544 0
M  V30 19 N -1.916217 2.996872 -1.605975 0
M  V30 20 C -1.534501 2.571520 -0.388439 0
M  V30 21 N -1.931230 1.585982 3.016181 0
M  V30 22 C -2.413269 0.392902 3.460528 0
M  V30 23 N -1.826293 -0.766768 3.102728 0
M  V30 24 C -0.739950 -0.807099 2.293241 0
M  V30 25 H 0.604506 -4.721411 3.470074 0
M  V30 26 H 1.428910 -4.689356 1.926543 0
M  V30 27 H 1.665225 -3.335001 3.178442 0
M  V30 28 H -1.059757 -3.354395 2.877864 0
M  V30 29 H -1.844304 -3.615042 0.776969 0
M  V30 30 H -0.246709 -3.982404 -0.003000 0
M  V30 31 H -0.962624 -5.097134 1.250577 0
M  V30 32 H 1.935478 -3.043093 0.262902 0
M  V30 33 H 2.099680 -0.345993 -1.145676 0
M  V30 34 H 1.001639 -1.726243 -1.574680 0
M  V30 35 H 3.539579 -1.340888 -2.340018 0
M  V30 36 H 3.519672 -0.438243 0.756124 0
M  V30 37 H 3.427915 -1.770864 1.929441 0
M  V30 38 H 4.292642 -3.129834 0.152500 0
M  V30 39 H 0.552375 3.265174 2.128626 0
M  V30 40 H 0.732609 4.892115 0.326445 0
M  V30 41 H -1.714051 4.393990 -3.144615 0
M  V30 42 H -2.029845 1.667404 -0.009897 0
M  V30 43 H -3.277949 0.400095 4.108707 0
M  V30 END ATOM
M  V30 BEGIN BOND
M  V30 1 1 1 2
M  V30 2 1 2 3
M  V30 3 1 2 4
M  V30 4 1 4 5
M  V30 5 1 5 6
M  V30 6 1 6 7
M  V30 7 1 7 8
M  V30 8 1 6 9
M  V30 9 1 9 10
M  V30 10 2 5 11
M  V30 11 1 11 12
M  V30 12 2 12 13
M  V30 13 1 13 14
M  V30 14 1 14 15
M  V30 15 2 15 16
M  V30 16 1 16 17
M  V30 17 2 17 18
M  V30 18 1 18 19
M  V30 19 2 19 20
M  V30 20 1 13 21
M  V30 21 2 21 22
M  V30 22 1 22 23
M  V30 23 2 23 24
M  V30 24 1 24 4
M  V30 25 1 24 12
M  V30 26 1 20 15
M  V30 27 1 1 25
M  V30 28 1 1 26
M  V30 29 1 1 27
M  V30 30 1 2 28
M  V30 31 1 3 29
M  V30 32 1 3 30
M  V30 33 1 3 31
M  V30 34 1 6 32
M  V30 35 1 7 33
M  V30 36 1 7 34
M  V30 37 1 8 35
M  V30 38 1 9 36
M  V30 39 1 9 37
M  V30 40 1 10 38
M  V30 41 1 14 39
M  V30 42 1 16 40
M  V30 43 1 18 41
M  V30 44 1 20 42
M  V30 45 1 22 43
M  V30 END BOND
M  V30 END CTAB
M  END
>  <Dataset>  (63) 
ChEMBL_Kinases

>  <Ligand_Instance>  (63) 
nan

>  <PDB_ID>  (63) 
nan

>  <Standardized_SMILES>  (63) 
CC(C)n1c(C(CO)CO)nc2c(Nc3cncnc3)ncnc21

>  <Name>  (63) 
nan

>  <Pocket>  (63) 
nan

>  <ATP_Site>  (63) 
nan

>  <Peripheral>  (63) 
nan

>  <Num_H_Atoms_ProtBoundConf>  (63) 
nan

>  <Num_Resolved_Atoms>  (63) 
nan

>  <Num_Not_Resolved_Atoms>  (63) 
nan

$$$$
CHEMBL2314443
     RDKit          3D

  0  0  0  0  0  0  0  0  0  0999 V3000
M  V30 BEGIN CTAB
M  V30 COUNTS 32 34 0 0 0
M  V30 BEGIN ATOM
M  V30 1 C -1.135991 -3.277211 3.234064 0
M  V30 2 C -0.109930 -3.565812 2.131494 0
M  V30 3 C -0.807335 -4.396076 1.112648 0
M  V30 4 N 0.405988 -2.330860 1.582776 0
M  V30 5 C 0.757454 -1.342599 2.416850 0
M  V30 6 N 1.208890 -0.284659 1.720908 0
M  V30 7 C 1.156777 -0.576547 0.389505 0
M  V30 8 C 1.465263 0.061658 -0.819289 0
M  V30 9 N 1.974735 1.369468 -0.563858 0
M  V30 10 C 0.977050 2.356501 -0.340400 0
M  V30 11 C -0.366159 2.031588 -0.385331 0
M  V30 12 N -1.388427 2.907579 -0.172057 0
M  V30 13 C -1.043710 4.199487 0.105956 0
M  V30 14 C 0.297071 4.577202 0.162889 0
M  V30 15 N 1.251926 3.661644 -0.058057 0
M  V30 16 N 1.256831 -0.599787 -1.976573 0
M  V30 17 C 0.761658 -1.850392 -1.973011 0
M  V30 18 Cl 0.539670 -2.592821 -3.542081 0
M  V30 19 N 0.456132 -2.485888 -0.803864 0
M  V30 20 C 0.649828 -1.861890 0.351260 0
M  V30 21 H -1.363801 -4.161142 3.823375 0
M  V30 22 H -0.660775 -2.501499 3.886982 0
M  V30 23 H -2.041404 -2.795089 2.790856 0
M  V30 24 H 0.694495 -4.141338 2.635695 0
M  V30 25 H -1.544901 -5.037357 1.642802 0
M  V30 26 H -1.399739 -3.775522 0.429924 0
M  V30 27 H -0.143253 -5.112523 0.583342 0
M  V30 28 H 0.788618 -1.138007 3.477635 0
M  V30 29 H 2.982918 1.697473 -0.517342 0
M  V30 30 H -0.706107 1.015053 -0.604051 0
M  V30 31 H -1.777443 4.982833 0.293777 0
M  V30 32 H 0.561555 5.622236 0.390550 0
M  V30 END ATOM
M  V30 BEGIN BOND
M  V30 1 1 1 2
M  V30 2 1 2 3
M  V30 3 1 2 4
M  V30 4 1 4 5
M  V30 5 2 5 6
M  V30 6 1 6 7
M  V30 7 2 7 8
M  V30 8 1 8 9
M  V30 9 1 9 10
M  V30 10 2 10 11
M  V30 11 1 11 12
M  V30 12 2 12 13
M  V30 13 1 13 14
M  V30 14 2 14 15
M  V30 15 1 8 16
M  V30 16 2 16 17
M  V30 17 1 17 18
M  V30 18 1 17 19
M  V30 19 2 19 20
M  V30 20 1 20 4
M  V30 21 1 20 7
M  V30 22 1 15 10
M  V30 23 1 1 21
M  V30 24 1 1 22
M  V30 25 1 1 23
M  V30 26 1 2 24
M  V30 27 1 3 25
M  V30 28 1 3 26
M  V30 29 1 3 27
M  V30 30 1 5 28
M  V30 31 1 9 29
M  V30 32 1 11 30
M  V30 33 1 13 31
M  V30 34 1 14 32
M  V30 END BOND
M  V30 END CTAB
M  END
>  <Dataset>  (64) 
ChEMBL_Kinases

>  <Ligand_Instance>  (64) 
nan

>  <PDB_ID>  (64) 
nan

>  <Standardized_SMILES>  (64) 
CC(C)n1cnc2c(Nc3cnccn3)nc(Cl)nc21

>  <Name>  (64) 
nan

>  <Pocket>  (64) 
nan

>  <ATP_Site>  (64) 
nan

>  <Peripheral>  (64) 
nan

>  <Num_H_Atoms_ProtBoundConf>  (64) 
nan

>  <Num_Resolved_Atoms>  (64) 
nan

>  <Num_Not_Resolved_Atoms>  (64) 
nan

$$$$
CHEMBL2314442
     RDKit          3D

  0  0  0  0  0  0  0  0  0  0999 V3000
M  V30 BEGIN CTAB
M  V30 COUNTS 47 49 0 0 0
M  V30 BEGIN ATOM
M  V30 1 C 2.408347 -3.645801 0.197077 0
M  V30 2 C 2.126584 -3.476245 -1.288393 0
M  V30 3 C 1.254474 -2.266070 -1.538685 0 CFG=2
M  V30 4 C 0.951797 -2.061668 -2.992465 0
M  V30 5 O 0.197636 -0.893707 -3.107385 0
M  V30 6 N 2.011253 -1.085377 -1.093847 0
M  V30 7 C 1.627350 0.288733 -1.118303 0
M  V30 8 C 1.810982 1.233102 -2.106001 0
M  V30 9 N 1.362981 2.475437 -1.910012 0
M  V30 10 C 0.737097 2.830959 -0.774661 0
M  V30 11 C 0.532022 1.901228 0.250392 0
M  V30 12 N -0.132412 2.226628 1.488849 0
M  V30 13 C -0.276203 1.186537 2.448432 0
M  V30 14 N 0.764449 1.054487 3.321577 0
M  V30 15 C 0.476393 0.023901 4.166565 0
M  V30 16 C 1.178088 -0.525223 5.221938 0
M  V30 17 N 0.583170 -1.556413 5.848033 0
M  V30 18 C -0.620050 -2.032989 5.479346 0
M  V30 19 N -1.251891 -1.455107 4.444244 0
M  V30 20 C -0.763778 -0.419646 3.738151 0
M  V30 21 N -1.221291 0.273984 2.707367 0
M  V30 22 C -2.436544 0.153627 1.969534 0
M  V30 23 C -2.765449 1.337482 1.101399 0
M  V30 24 C -3.585657 0.061690 2.976966 0
M  V30 25 N 0.999699 0.663172 0.009027 0
M  V30 26 H 2.061499 -2.743633 0.750513 0
M  V30 27 H 1.916473 -4.581719 0.586338 0
M  V30 28 H 3.489097 -3.768412 0.411251 0
M  V30 29 H 3.059618 -3.437409 -1.888128 0
M  V30 30 H 1.565987 -4.350096 -1.660853 0
M  V30 31 H 0.338589 -2.376481 -0.921063 0
M  V30 32 H 0.456391 -2.927179 -3.459886 0
M  V30 33 H 1.944409 -1.875213 -3.496269 0
M  V30 34 H 0.335947 -0.445571 -3.986322 0
M  V30 35 H 2.963561 -1.055937 -0.682449 0
M  V30 36 H 2.327995 0.837300 -2.978695 0
M  V30 37 H 0.376992 3.841579 -0.625182 0
M  V30 38 H -0.450586 3.238041 1.553426 0
M  V30 39 H 2.154465 -0.126823 5.509262 0
M  V30 40 H -1.104359 -2.868279 5.984622 0
M  V30 41 H -2.437244 -0.736350 1.304088 0
M  V30 42 H -2.615777 2.235846 1.697109 0
M  V30 43 H -2.292055 1.324809 0.104380 0
M  V30 44 H -3.881593 1.287375 0.921212 0
M  V30 45 H -4.460978 -0.313024 2.408214 0
M  V30 46 H -3.786099 1.123722 3.289364 0
M  V30 47 H -3.341296 -0.519538 3.861521 0
M  V30 END ATOM
M  V30 BEGIN BOND
M  V30 1 1 1 2
M  V30 2 1 2 3
M  V30 3 1 3 4
M  V30 4 1 4 5
M  V30 5 1 3 6
M  V30 6 1 6 7
M  V30 7 2 7 8
M  V30 8 1 8 9
M  V30 9 2 9 10
M  V30 10 1 10 11
M  V30 11 1 11 12
M  V30 12 1 12 13
M  V30 13 2 13 14
M  V30 14 1 14 15
M  V30 15 2 15 16
M  V30 16 1 16 17
M  V30 17 2 17 18
M  V30 18 1 18 19
M  V30 19 2 19 20
M  V30 20 1 20 21
M  V30 21 1 21 22
M  V30 22 1 22 23
M  V30 23 1 22 24
M  V30 24 2 11 25
M  V30 25 1 25 7
M  V30 26 1 21 13
M  V30 27 1 20 15
M  V30 28 1 1 26
M  V30 29 1 1 27
M  V30 30 1 1 28
M  V30 31 1 2 29
M  V30 32 1 2 30
M  V30 33 1 3 31 CFG=1
M  V30 34 1 4 32
M  V30 35 1 4 33
M  V30 36 1 5 34
M  V30 37 1 6 35
M  V30 38 1 8 36
M  V30 39 1 10 37
M  V30 40 1 12 38
M  V30 41 1 16 39
M  V30 42 1 18 40
M  V30 43 1 22 41
M  V30 44 1 23 42
M  V30 45 1 23 43
M  V30 46 1 23 44
M  V30 47 1 24 45
M  V30 48 1 24 46
M  V30 49 1 24 47
M  V30 END BOND
M  V30 END CTAB
M  END
>  <Dataset>  (65) 
ChEMBL_Kinases

>  <Ligand_Instance>  (65) 
nan

>  <PDB_ID>  (65) 
nan

>  <Standardized_SMILES>  (65) 
CC[C@H](CO)Nc1cncc(Nc2nc3cncnc3n2C(C)C)n1

>  <Name>  (65) 
nan

>  <Pocket>  (65) 
nan

>  <ATP_Site>  (65) 
nan

>  <Peripheral>  (65) 
nan

>  <Num_H_Atoms_ProtBoundConf>  (65) 
nan

>  <Num_Resolved_Atoms>  (65) 
nan

>  <Num_Not_Resolved_Atoms>  (65) 
nan

$$$$
CHEMBL2314441
     RDKit          3D

  0  0  0  0  0  0  0  0  0  0999 V3000
M  V30 BEGIN CTAB
M  V30 COUNTS 50 52 0 0 0
M  V30 BEGIN ATOM
M  V30 1 C 2.826692 -3.899093 2.408283 0
M  V30 2 C 3.036856 -2.952705 1.240574 0
M  V30 3 C 1.735912 -2.877913 0.508828 0
M  V30 4 C 3.602477 -1.642147 1.662288 0 CFG=2
M  V30 5 C 2.707332 -0.908894 2.641278 0
M  V30 6 O 2.457403 -1.768738 3.709441 0
M  V30 7 N 3.929086 -0.850226 0.517904 0
M  V30 8 C 3.145279 -0.137926 -0.429646 0
M  V30 9 C 3.739197 0.432299 -1.563320 0
M  V30 10 N 3.035971 1.129287 -2.460836 0
M  V30 11 C 1.716886 1.295276 -2.280994 0
M  V30 12 C 1.060723 0.752114 -1.169590 0
M  V30 13 N -0.334350 0.978813 -1.058048 0
M  V30 14 C -1.173309 0.537585 0.000353 0
M  V30 15 N -0.788817 -0.143055 1.085966 0
M  V30 16 C -1.818159 -0.414791 1.904305 0
M  V30 17 C -1.963989 -1.066373 3.111414 0
M  V30 18 N -3.152922 -1.194522 3.727240 0
M  V30 19 C -4.213221 -0.643844 3.093154 0
M  V30 20 N -4.092782 -0.003442 1.913889 0
M  V30 21 C -2.906362 0.137345 1.276380 0
M  V30 22 N -2.497637 0.706862 0.130052 0
M  V30 23 C -3.377130 1.400844 -0.820679 0
M  V30 24 C -4.811136 1.309936 -0.339705 0
M  V30 25 C -3.275186 0.856916 -2.209711 0
M  V30 26 N 1.822253 0.078528 -0.330858 0
M  V30 27 H 2.893362 -4.930548 2.004136 0
M  V30 28 H 3.618793 -3.768628 3.153879 0
M  V30 29 H 1.791160 -3.818497 2.816962 0
M  V30 30 H 3.762255 -3.469590 0.545211 0
M  V30 31 H 1.810649 -2.675469 -0.571555 0
M  V30 32 H 1.248567 -3.893607 0.574488 0
M  V30 33 H 1.041095 -2.207727 1.047432 0
M  V30 34 H 4.538339 -1.845355 2.233210 0
M  V30 35 H 1.783511 -0.518115 2.195729 0
M  V30 36 H 3.297583 -0.065163 3.026534 0
M  V30 37 H 3.198696 -1.742404 4.375861 0
M  V30 38 H 4.980438 -0.770230 0.323942 0
M  V30 39 H 4.786819 0.328578 -1.752312 0
M  V30 40 H 1.170592 1.861646 -3.019511 0
M  V30 41 H -0.815150 1.521408 -1.816449 0
M  V30 42 H -1.023732 -1.460616 3.505933 0
M  V30 43 H -5.163224 -0.756394 3.602926 0
M  V30 44 H -3.130128 2.487589 -0.851115 0
M  V30 45 H -5.444431 1.713746 -1.157871 0
M  V30 46 H -5.104767 0.244610 -0.224313 0
M  V30 47 H -4.926290 1.864792 0.605372 0
M  V30 48 H -4.291433 0.541567 -2.568984 0
M  V30 49 H -2.604696 -0.026880 -2.205985 0
M  V30 50 H -2.927553 1.631715 -2.942215 0
M  V30 END ATOM
M  V30 BEGIN BOND
M  V30 1 1 1 2
M  V30 2 1 2 3
M  V30 3 1 2 4
M  V30 4 1 4 5
M  V30 5 1 5 6
M  V30 6 1 4 7
M  V30 7 1 7 8
M  V30 8 2 8 9
M  V30 9 1 9 10
M  V30 10 2 10 11
M  V30 11 1 11 12
M  V30 12 1 12 13
M  V30 13 1 13 14
M  V30 14 2 14 15
M  V30 15 1 15 16
M  V30 16 2 16 17
M  V30 17 1 17 18
M  V30 18 2 18 19
M  V30 19 1 19 20
M  V30 20 2 20 21
M  V30 21 1 21 22
M  V30 22 1 22 23
M  V30 23 1 23 24
M  V30 24 1 23 25
M  V30 25 2 12 26
M  V30 26 1 26 8
M  V30 27 1 22 14
M  V30 28 1 21 16
M  V30 29 1 1 27
M  V30 30 1 1 28
M  V30 31 1 1 29
M  V30 32 1 2 30
M  V30 33 1 3 31
M  V30 34 1 3 32
M  V30 35 1 3 33
M  V30 36 1 4 34 CFG=1
M  V30 37 1 5 35
M  V30 38 1 5 36
M  V30 39 1 6 37
M  V30 40 1 7 38
M  V30 41 1 9 39
M  V30 42 1 11 40
M  V30 43 1 13 41
M  V30 44 1 17 42
M  V30 45 1 19 43
M  V30 46 1 23 44
M  V30 47 1 24 45
M  V30 48 1 24 46
M  V30 49 1 24 47
M  V30 50 1 25 48
M  V30 51 1 25 49
M  V30 52 1 25 50
M  V30 END BOND
M  V30 END CTAB
M  END
>  <Dataset>  (66) 
ChEMBL_Kinases

>  <Ligand_Instance>  (66) 
nan

>  <PDB_ID>  (66) 
nan

>  <Standardized_SMILES>  (66) 
CC(C)[C@H](CO)Nc1cncc(Nc2nc3cncnc3n2C(C)C)n1

>  <Name>  (66) 
nan

>  <Pocket>  (66) 
nan

>  <ATP_Site>  (66) 
nan

>  <Peripheral>  (66) 
nan

>  <Num_H_Atoms_ProtBoundConf>  (66) 
nan

>  <Num_Resolved_Atoms>  (66) 
nan

>  <Num_Not_Resolved_Atoms>  (66) 
nan

$$$$
CHEMBL2314440
     RDKit          3D

  0  0  0  0  0  0  0  0  0  0999 V3000
M  V30 BEGIN CTAB
M  V30 COUNTS 45 47 0 0 0
M  V30 BEGIN ATOM
M  V30 1 C -1.925657 -4.810881 1.446497 0
M  V30 2 C -1.352619 -3.434872 1.488647 0
M  V30 3 C -1.490650 -2.876125 2.877872 0
M  V30 4 N -1.846660 -2.561296 0.471651 0
M  V30 5 C -1.275820 -1.391161 0.088504 0
M  V30 6 N -0.088046 -0.820967 0.625074 0
M  V30 7 C 0.555904 0.395248 0.266845 0
M  V30 8 C 0.090015 1.244751 -0.712071 0
M  V30 9 N 0.678254 2.398994 -1.070049 0
M  V30 10 C 1.810034 2.752123 -0.421912 0
M  V30 11 C 2.284572 1.909089 0.559255 0
M  V30 12 C 3.523295 2.207721 1.332017 0
M  V30 13 C 4.085392 3.508413 0.850543 0
M  V30 14 C 3.137460 2.288287 2.779947 0
M  V30 15 C 4.513983 1.088686 1.095285 0
M  V30 16 O 5.705744 1.271927 1.773350 0
M  V30 17 N 1.665119 0.770904 0.880869 0
M  V30 18 N -2.058044 -0.898481 -0.885630 0
M  V30 19 C -3.106052 -1.689983 -1.152575 0
M  V30 20 C -4.193600 -1.715020 -1.999266 0
M  V30 21 N -5.075582 -2.735449 -1.970659 0
M  V30 22 C -4.904441 -3.764681 -1.098553 0
M  V30 23 N -3.836647 -3.740946 -0.266636 0
M  V30 24 C -2.945606 -2.738287 -0.275298 0
M  V30 25 H -2.959321 -4.807203 1.858675 0
M  V30 26 H -1.820276 -5.318588 0.481918 0
M  V30 27 H -1.333417 -5.423592 2.188234 0
M  V30 28 H -0.240912 -3.552043 1.326315 0
M  V30 29 H -2.393043 -3.339182 3.333262 0
M  V30 30 H -0.640066 -3.137707 3.554473 0
M  V30 31 H -1.656338 -1.780672 2.886589 0
M  V30 32 H 0.380467 -1.382929 1.399932 0
M  V30 33 H -0.797786 1.024950 -1.261414 0
M  V30 34 H 2.326932 3.667419 -0.665567 0
M  V30 35 H 4.308855 3.474727 -0.226396 0
M  V30 36 H 3.296636 4.300563 1.011797 0
M  V30 37 H 4.969688 3.832153 1.449066 0
M  V30 38 H 2.116967 2.762041 2.872712 0
M  V30 39 H 3.026680 1.285601 3.250939 0
M  V30 40 H 3.810773 2.945633 3.357681 0
M  V30 41 H 4.041513 0.104080 1.290495 0
M  V30 42 H 4.759602 1.089305 0.000736 0
M  V30 43 H 5.551737 1.657620 2.672053 0
M  V30 44 H -4.247154 -0.849243 -2.661009 0
M  V30 45 H -5.623050 -4.583932 -1.084054 0
M  V30 END ATOM
M  V30 BEGIN BOND
M  V30 1 1 1 2
M  V30 2 1 2 3
M  V30 3 1 2 4
M  V30 4 1 4 5
M  V30 5 1 5 6
M  V30 6 1 6 7
M  V30 7 2 7 8
M  V30 8 1 8 9
M  V30 9 2 9 10
M  V30 10 1 10 11
M  V30 11 1 11 12
M  V30 12 1 12 13
M  V30 13 1 12 14
M  V30 14 1 12 15
M  V30 15 1 15 16
M  V30 16 2 11 17
M  V30 17 2 5 18
M  V30 18 1 18 19
M  V30 19 2 19 20
M  V30 20 1 20 21
M  V30 21 2 21 22
M  V30 22 1 22 23
M  V30 23 2 23 24
M  V30 24 1 24 4
M  V30 25 1 17 7
M  V30 26 1 24 19
M  V30 27 1 1 25
M  V30 28 1 1 26
M  V30 29 1 1 27
M  V30 30 1 2 28
M  V30 31 1 3 29
M  V30 32 1 3 30
M  V30 33 1 3 31
M  V30 34 1 6 32
M  V30 35 1 8 33
M  V30 36 1 10 34
M  V30 37 1 13 35
M  V30 38 1 13 36
M  V30 39 1 13 37
M  V30 40 1 14 38
M  V30 41 1 14 39
M  V30 42 1 14 40
M  V30 43 1 15 41
M  V30 44 1 15 42
M  V30 45 1 16 43
M  V30 46 1 20 44
M  V30 47 1 22 45
M  V30 END BOND
M  V30 END CTAB
M  END
>  <Dataset>  (67) 
ChEMBL_Kinases

>  <Ligand_Instance>  (67) 
nan

>  <PDB_ID>  (67) 
nan

>  <Standardized_SMILES>  (67) 
CC(C)n1c(Nc2cncc(C(C)(C)CO)n2)nc2cncnc21

>  <Name>  (67) 
nan

>  <Pocket>  (67) 
nan

>  <ATP_Site>  (67) 
nan

>  <Peripheral>  (67) 
nan

>  <Num_H_Atoms_ProtBoundConf>  (67) 
nan

>  <Num_Resolved_Atoms>  (67) 
nan

>  <Num_Not_Resolved_Atoms>  (67) 
nan

$$$$
CHEMBL2312155
     RDKit          3D

  0  0  0  0  0  0  0  0  0  0999 V3000
M  V30 BEGIN CTAB
M  V30 COUNTS 56 59 0 0 0
M  V30 BEGIN ATOM
M  V30 1 C 1.829119 0.885105 5.396444 0
M  V30 2 O 2.249842 1.264755 4.109078 0
M  V30 3 C 3.489132 0.976430 3.559572 0
M  V30 4 C 4.444025 0.272939 4.247140 0
M  V30 5 C 5.693450 -0.044662 3.753638 0
M  V30 6 C 5.971095 0.386988 2.483225 0
M  V30 7 Cl 7.527704 0.036137 1.763937 0
M  V30 8 C 5.045478 1.097930 1.749549 0
M  V30 9 C 3.801004 1.405507 2.261483 0
M  V30 10 C 2.744021 2.156445 1.567536 0
M  V30 11 C 2.056193 3.167612 2.224216 0
M  V30 12 C 1.062797 3.852881 1.560296 0
M  V30 13 N 0.740059 3.561368 0.275165 0
M  V30 14 C 1.412356 2.576127 -0.361166 0
M  V30 15 N 1.182365 2.119433 -1.707267 0
M  V30 16 C 0.326162 0.964351 -1.714475 0
M  V30 17 C -0.091820 0.355452 -0.532378 0
M  V30 18 C -0.924377 -0.771838 -0.535594 0
M  V30 19 C -1.348795 -1.301536 -1.762064 0
M  V30 20 C -2.222698 -2.504086 -1.551978 0
M  V30 21 C -3.631977 -2.036610 -1.415571 0
M  V30 22 N -4.576569 -3.092905 -1.183003 0
M  V30 23 C -4.433956 -3.714678 0.104555 0
M  V30 24 C -4.042922 -5.151316 0.083455 0
M  V30 25 O -3.536333 -5.603460 -1.108117 0
M  V30 26 C -4.360238 -5.339099 -2.193902 0
M  V30 27 C -4.869602 -3.940860 -2.273675 0
M  V30 28 C -0.937474 -0.701556 -2.928214 0
M  V30 29 C -0.124455 0.397409 -2.881567 0
M  V30 30 C 2.425645 1.845641 0.249589 0
M  V30 31 H 1.056516 1.620799 5.760718 0
M  V30 32 H 1.349032 -0.134044 5.349742 0
M  V30 33 H 2.659733 0.845152 6.120923 0
M  V30 34 H 4.251710 -0.085184 5.263442 0
M  V30 35 H 6.442471 -0.601844 4.304040 0
M  V30 36 H 5.245638 1.450241 0.736756 0
M  V30 37 H 2.274791 3.443617 3.260549 0
M  V30 38 H 0.515072 4.637255 2.041717 0
M  V30 39 H 1.511367 2.462224 -2.631758 0
M  V30 40 H 0.219267 0.739097 0.436791 0
M  V30 41 H -1.195929 -1.178732 0.448924 0
M  V30 42 H -1.932201 -3.088577 -0.673317 0
M  V30 43 H -2.128825 -3.087072 -2.503676 0
M  V30 44 H -3.708743 -1.313775 -0.577492 0
M  V30 45 H -3.968448 -1.491927 -2.325576 0
M  V30 46 H -5.399832 -3.612575 0.639350 0
M  V30 47 H -3.721301 -3.077686 0.678944 0
M  V30 48 H -3.206873 -5.267034 0.834298 0
M  V30 49 H -4.846551 -5.819613 0.494659 0
M  V30 50 H -5.184205 -6.101426 -2.260743 0
M  V30 51 H -3.752017 -5.523068 -3.104858 0
M  V30 52 H -4.585967 -3.407882 -3.215720 0
M  V30 53 H -5.997128 -4.004843 -2.340364 0
M  V30 54 H -1.326891 -1.196885 -3.804241 0
M  V30 55 H 0.160373 0.817746 -3.838787 0
M  V30 56 H 2.993218 1.050273 -0.211384 0
M  V30 END ATOM
M  V30 BEGIN BOND
M  V30 1 1 1 2
M  V30 2 1 2 3
M  V30 3 2 3 4
M  V30 4 1 4 5
M  V30 5 2 5 6
M  V30 6 1 6 7
M  V30 7 1 6 8
M  V30 8 2 8 9
M  V30 9 1 9 10
M  V30 10 2 10 11
M  V30 11 1 11 12
M  V30 12 2 12 13
M  V30 13 1 13 14
M  V30 14 1 14 15
M  V30 15 1 15 16
M  V30 16 2 16 17
M  V30 17 1 17 18
M  V30 18 2 18 19
M  V30 19 1 19 20
M  V30 20 1 20 21
M  V30 21 1 21 22
M  V30 22 1 22 23
M  V30 23 1 23 24
M  V30 24 1 24 25
M  V30 25 1 25 26
M  V30 26 1 26 27
M  V30 27 1 19 28
M  V30 28 2 28 29
M  V30 29 2 14 30
M  V30 30 1 9 3
M  V30 31 1 30 10
M  V30 32 1 29 16
M  V30 33 1 27 22
M  V30 34 1 1 31
M  V30 35 1 1 32
M  V30 36 1 1 33
M  V30 37 1 4 34
M  V30 38 1 5 35
M  V30 39 1 8 36
M  V30 40 1 11 37
M  V30 41 1 12 38
M  V30 42 1 15 39
M  V30 43 1 17 40
M  V30 44 1 18 41
M  V30 45 1 20 42
M  V30 46 1 20 43
M  V30 47 1 21 44
M  V30 48 1 21 45
M  V30 49 1 23 46
M  V30 50 1 23 47
M  V30 51 1 24 48
M  V30 52 1 24 49
M  V30 53 1 26 50
M  V30 54 1 26 51
M  V30 55 1 27 52
M  V30 56 1 27 53
M  V30 57 1 28 54
M  V30 58 1 29 55
M  V30 59 1 30 56
M  V30 END BOND
M  V30 END CTAB
M  END
>  <Dataset>  (68) 
ChEMBL_Kinases

>  <Ligand_Instance>  (68) 
nan

>  <PDB_ID>  (68) 
nan

>  <Standardized_SMILES>  (68) 
COc1ccc(Cl)cc1-c1ccnc(Nc2ccc(CCN3CCOCC3)cc2)c1

>  <Name>  (68) 
nan

>  <Pocket>  (68) 
nan

>  <ATP_Site>  (68) 
nan

>  <Peripheral>  (68) 
nan

>  <Num_H_Atoms_ProtBoundConf>  (68) 
nan

>  <Num_Resolved_Atoms>  (68) 
nan

>  <Num_Not_Resolved_Atoms>  (68) 
nan

$$$$
CHEMBL2312646
     RDKit          3D

  0  0  0  0  0  0  0  0  0  0999 V3000
M  V30 BEGIN CTAB
M  V30 COUNTS 62 65 0 0 0
M  V30 BEGIN ATOM
M  V30 1 C 1.996154 0.495639 5.530779 0
M  V30 2 N 2.107634 -0.911503 5.565340 0
M  V30 3 C 3.380652 -1.507194 5.438315 0
M  V30 4 C 3.760508 -1.816396 4.011253 0
M  V30 5 C 2.605244 -2.304061 3.251691 0
M  V30 6 N 2.021689 -1.359367 2.319194 0
M  V30 7 C 1.578943 -1.547692 0.986184 0
M  V30 8 O 1.782329 -2.777329 0.731773 0
M  V30 9 C 1.031717 -0.510120 0.184971 0
M  V30 10 C 1.079768 0.777083 0.689987 0
M  V30 11 N 0.607248 1.817813 -0.018465 0
M  V30 12 C 0.074512 1.638749 -1.235087 0
M  V30 13 N -0.434482 2.719510 -2.038369 0
M  V30 14 C -1.616789 3.221173 -1.382263 0
M  V30 15 C -2.686593 2.246018 -1.167277 0
M  V30 16 C -2.909941 1.708817 0.106413 0
M  V30 17 C -3.901493 0.782321 0.430099 0
M  V30 18 Cl -4.075564 0.186317 2.055864 0
M  V30 19 C -4.704306 0.398841 -0.643776 0
M  V30 20 C -4.511067 0.908633 -1.910421 0
M  V30 21 C -3.516637 1.821630 -2.178917 0
M  V30 22 Cl -3.256237 2.470905 -3.766984 0
M  V30 23 N 0.012045 0.402496 -1.755849 0
M  V30 24 C 0.490082 -0.661430 -1.043050 0
M  V30 25 N 0.380097 -1.923280 -1.644918 0
M  V30 26 C -0.192090 -2.079243 -2.976934 0
M  V30 27 C -0.287598 -3.523343 -3.415285 0
M  V30 28 C -1.764751 -3.869078 -3.349334 0
M  V30 29 C -2.471993 -2.552990 -3.687578 0
M  V30 30 C -1.608382 -1.553758 -2.921191 0
M  V30 31 C 1.440299 -2.770288 4.133244 0
M  V30 32 C 1.008693 -1.673772 5.076479 0
M  V30 33 H 2.443880 1.003779 4.674966 0
M  V30 34 H 0.891645 0.728730 5.453153 0
M  V30 35 H 2.352619 0.990955 6.457505 0
M  V30 36 H 3.425493 -2.420078 6.081584 0
M  V30 37 H 4.128348 -0.752923 5.830467 0
M  V30 38 H 4.534370 -2.640099 4.036256 0
M  V30 39 H 4.219021 -0.880252 3.612463 0
M  V30 40 H 2.889474 -3.196436 2.641558 0
M  V30 41 H 1.965477 -0.435661 2.806524 0
M  V30 42 H 1.468755 1.116447 1.642677 0
M  V30 43 H -0.109008 3.149021 -2.933770 0
M  V30 44 H -2.015652 4.098365 -1.969883 0
M  V30 45 H -1.268606 3.672073 -0.409288 0
M  V30 46 H -2.244980 2.057171 0.884497 0
M  V30 47 H -5.478304 -0.322691 -0.388258 0
M  V30 48 H -5.157371 0.585070 -2.719947 0
M  V30 49 H 0.668569 -2.839809 -1.242567 0
M  V30 50 H 0.362135 -1.477784 -3.731288 0
M  V30 51 H 0.277835 -4.211383 -2.789529 0
M  V30 52 H 0.037447 -3.587307 -4.466432 0
M  V30 53 H -2.037789 -4.207004 -2.339964 0
M  V30 54 H -2.036900 -4.632188 -4.093507 0
M  V30 55 H -2.446983 -2.369921 -4.773285 0
M  V30 56 H -3.482187 -2.560587 -3.275072 0
M  V30 57 H -2.007187 -1.548516 -1.884947 0
M  V30 58 H -1.722875 -0.570689 -3.411772 0
M  V30 59 H 1.774294 -3.635246 4.735314 0
M  V30 60 H 0.616788 -3.047682 3.479676 0
M  V30 61 H 0.327479 -1.005644 4.513035 0
M  V30 62 H 0.403343 -2.137053 5.887654 0
M  V30 END ATOM
M  V30 BEGIN BOND
M  V30 1 1 1 2
M  V30 2 1 2 3
M  V30 3 1 3 4
M  V30 4 1 4 5
M  V30 5 1 5 6
M  V30 6 1 6 7
M  V30 7 2 7 8
M  V30 8 1 7 9
M  V30 9 2 9 10
M  V30 10 1 10 11
M  V30 11 2 11 12
M  V30 12 1 12 13
M  V30 13 1 13 14
M  V30 14 1 14 15
M  V30 15 2 15 16
M  V30 16 1 16 17
M  V30 17 1 17 18
M  V30 18 2 17 19
M  V30 19 1 19 20
M  V30 20 2 20 21
M  V30 21 1 21 22
M  V30 22 1 12 23
M  V30 23 2 23 24
M  V30 24 1 24 25
M  V30 25 1 25 26
M  V30 26 1 26 27
M  V30 27 1 27 28
M  V30 28 1 28 29
M  V30 29 1 29 30
M  V30 30 1 5 31
M  V30 31 1 31 32
M  V30 32 1 32 2
M  V30 33 1 24 9
M  V30 34 1 30 26
M  V30 35 1 21 15
M  V30 36 1 1 33
M  V30 37 1 1 34
M  V30 38 1 1 35
M  V30 39 1 3 36
M  V30 40 1 3 37
M  V30 41 1 4 38
M  V30 42 1 4 39
M  V30 43 1 5 40
M  V30 44 1 6 41
M  V30 45 1 10 42
M  V30 46 1 13 43
M  V30 47 1 14 44
M  V30 48 1 14 45
M  V30 49 1 16 46
M  V30 50 1 19 47
M  V30 51 1 20 48
M  V30 52 1 25 49
M  V30 53 1 26 50
M  V30 54 1 27 51
M  V30 55 1 27 52
M  V30 56 1 28 53
M  V30 57 1 28 54
M  V30 58 1 29 55
M  V30 59 1 29 56
M  V30 60 1 30 57
M  V30 61 1 30 58
M  V30 62 1 31 59
M  V30 63 1 31 60
M  V30 64 1 32 61
M  V30 65 1 32 62
M  V30 END BOND
M  V30 END CTAB
M  END
>  <Dataset>  (69) 
ChEMBL_Kinases

>  <Ligand_Instance>  (69) 
nan

>  <PDB_ID>  (69) 
nan

>  <Standardized_SMILES>  (69) 
CN1CCC(NC(=O)c2cnc(NCc3cc(Cl)ccc3Cl)nc2NC2CCCC2)CC1

>  <Name>  (69) 
nan

>  <Pocket>  (69) 
nan

>  <ATP_Site>  (69) 
nan

>  <Peripheral>  (69) 
nan

>  <Num_H_Atoms_ProtBoundConf>  (69) 
nan

>  <Num_Resolved_Atoms>  (69) 
nan

>  <Num_Not_Resolved_Atoms>  (69) 
nan

$$$$
CHEMBL2313850
     RDKit          3D

  0  0  0  0  0  0  0  0  0  0999 V3000
M  V30 BEGIN CTAB
M  V30 COUNTS 41 44 0 0 0
M  V30 BEGIN ATOM
M  V30 1 N 2.281020 -4.597103 4.308950 0
M  V30 2 C 2.135697 -3.544688 3.833165 0
M  V30 3 C 1.963425 -2.235957 3.219811 0
M  V30 4 C 2.699856 -1.224968 3.793890 0
M  V30 5 N 3.585764 -1.330922 4.893368 0
M  V30 6 N 2.513740 -0.024298 3.198636 0
M  V30 7 C 1.682218 0.125529 2.151124 0
M  V30 8 S 1.244103 1.575230 1.175828 0
M  V30 9 C 0.139648 0.760678 0.097872 0
M  V30 10 C -0.598812 1.420863 -0.983706 0
M  V30 11 O -1.385610 0.724857 -1.672569 0
M  V30 12 C -0.468614 2.828976 -1.297077 0
M  V30 13 C -1.613163 3.378103 -1.889633 0
M  V30 14 C -1.648744 4.729015 -2.259719 0
M  V30 15 C -0.565311 5.545538 -2.051148 0
M  V30 16 C 0.564632 5.018086 -1.470192 0
M  V30 17 Cl 2.005638 5.966272 -1.156694 0
M  V30 18 C 0.586776 3.687347 -1.110755 0
M  V30 19 C 0.146780 -0.527475 0.504708 0
M  V30 20 N -0.691593 -1.461850 -0.214746 0
M  V30 21 C 0.931489 -0.860587 1.552275 0
M  V30 22 C 1.112853 -2.094191 2.151913 0
M  V30 23 C 0.420382 -3.307704 1.691063 0
M  V30 24 C -0.795510 -3.537230 2.300624 0
M  V30 25 C -1.596017 -4.626010 2.002788 0
M  V30 26 C -1.154751 -5.515284 1.056476 0
M  V30 27 C 0.059743 -5.275586 0.455643 0
M  V30 28 C 0.859230 -4.203824 0.741329 0
M  V30 29 Br 2.536362 -3.824622 -0.052759 0
M  V30 30 H 4.374044 -1.966868 4.658716 0
M  V30 31 H 3.503846 -0.860410 5.822354 0
M  V30 32 H -2.539712 2.850697 -2.113449 0
M  V30 33 H -2.498127 5.202113 -2.716614 0
M  V30 34 H -0.580619 6.594025 -2.333255 0
M  V30 35 H 1.447705 3.256489 -0.666526 0
M  V30 36 H -1.607073 -1.878728 0.058097 0
M  V30 37 H -0.439716 -1.838645 -1.152181 0
M  V30 38 H -1.230081 -2.885873 3.065127 0
M  V30 39 H -2.548442 -4.806712 2.479629 0
M  V30 40 H -1.752605 -6.385470 0.790782 0
M  V30 41 H 0.472383 -5.944861 -0.308066 0
M  V30 END ATOM
M  V30 BEGIN BOND
M  V30 1 3 1 2
M  V30 2 1 2 3
M  V30 3 2 3 4
M  V30 4 1 4 5
M  V30 5 1 4 6
M  V30 6 2 6 7
M  V30 7 1 7 8
M  V30 8 1 8 9
M  V30 9 1 9 10
M  V30 10 2 10 11
M  V30 11 1 10 12
M  V30 12 2 12 13
M  V30 13 1 13 14
M  V30 14 2 14 15
M  V30 15 1 15 16
M  V30 16 1 16 17
M  V30 17 2 16 18
M  V30 18 2 9 19
M  V30 19 1 19 20
M  V30 20 1 19 21
M  V30 21 2 21 22
M  V30 22 1 22 23
M  V30 23 2 23 24
M  V30 24 1 24 25
M  V30 25 2 25 26
M  V30 26 1 26 27
M  V30 27 2 27 28
M  V30 28 1 28 29
M  V30 29 1 22 3
M  V30 30 1 28 23
M  V30 31 1 21 7
M  V30 32 1 18 12
M  V30 33 1 5 30
M  V30 34 1 5 31
M  V30 35 1 13 32
M  V30 36 1 14 33
M  V30 37 1 15 34
M  V30 38 1 18 35
M  V30 39 1 20 36
M  V30 40 1 20 37
M  V30 41 1 24 38
M  V30 42 1 25 39
M  V30 43 1 26 40
M  V30 44 1 27 41
M  V30 END BOND
M  V30 END CTAB
M  END
>  <Dataset>  (70) 
ChEMBL_Kinases

>  <Ligand_Instance>  (70) 
nan

>  <PDB_ID>  (70) 
nan

>  <Standardized_SMILES>  (70) 
N#Cc1c(N)nc2sc(C(=O)c3cccc(Cl)c3)c(N)c2c1-c1ccccc1Br

>  <Name>  (70) 
nan

>  <Pocket>  (70) 
nan

>  <ATP_Site>  (70) 
nan

>  <Peripheral>  (70) 
nan

>  <Num_H_Atoms_ProtBoundConf>  (70) 
nan

>  <Num_Resolved_Atoms>  (70) 
nan

>  <Num_Not_Resolved_Atoms>  (70) 
nan

$$$$
CHEMBL2313853
     RDKit          3D

  0  0  0  0  0  0  0  0  0  0999 V3000
M  V30 BEGIN CTAB
M  V30 COUNTS 41 44 0 0 0
M  V30 BEGIN ATOM
M  V30 1 N 2.449985 -4.534935 4.293922 0
M  V30 2 C 2.275419 -3.497302 3.806107 0
M  V30 3 C 2.074556 -2.198042 3.181941 0
M  V30 4 C 2.852332 -1.180129 3.688640 0
M  V30 5 N 3.808352 -1.253978 4.729563 0
M  V30 6 N 2.638384 0.006221 3.086407 0
M  V30 7 C 1.741380 0.143050 2.088206 0
M  V30 8 S 1.261707 1.618696 1.112179 0
M  V30 9 C 0.063937 0.738638 0.114955 0
M  V30 10 C -0.713558 1.399749 -0.935533 0
M  V30 11 O -1.490303 0.688944 -1.592430 0
M  V30 12 C -0.625124 2.815072 -1.244315 0
M  V30 13 C -0.929506 3.123774 -2.577802 0
M  V30 14 C -0.912524 4.412185 -3.084459 0
M  V30 15 C -0.590775 5.466041 -2.289153 0
M  V30 16 C -0.290260 5.177336 -0.978763 0
M  V30 17 Cl 0.139776 6.454130 0.143970 0
M  V30 18 C -0.304283 3.904627 -0.466686 0
M  V30 19 C 0.100935 -0.514592 0.549688 0
M  V30 20 N -0.785009 -1.463258 -0.093877 0
M  V30 21 C 0.947614 -0.840616 1.553699 0
M  V30 22 C 1.158794 -2.064498 2.164859 0
M  V30 23 C 0.428833 -3.284325 1.773450 0
M  V30 24 C -0.754392 -3.568871 2.407742 0
M  V30 25 C -1.554986 -4.662497 2.161506 0
M  V30 26 C -1.056874 -5.511834 1.168065 0
M  V30 27 C 0.122313 -5.265988 0.507656 0
M  V30 28 C 0.873803 -4.166009 0.793804 0
M  V30 29 Cl 2.383367 -3.790484 -0.006128 0
M  V30 30 H 4.412550 -2.084260 4.832801 0
M  V30 31 H 3.867055 -0.428518 5.380993 0
M  V30 32 H -1.203393 2.354398 -3.312120 0
M  V30 33 H -1.153543 4.612296 -4.120888 0
M  V30 34 H -0.544016 6.498971 -2.565678 0
M  V30 35 H -0.079148 3.650368 0.556890 0
M  V30 36 H -1.773490 -1.728261 0.114205 0
M  V30 37 H -0.548600 -2.061203 -0.915641 0
M  V30 38 H -1.122150 -2.883899 3.184805 0
M  V30 39 H -2.473875 -4.835079 2.690314 0
M  V30 40 H -1.620375 -6.395518 0.909301 0
M  V30 41 H 0.477924 -5.946449 -0.257110 0
M  V30 END ATOM
M  V30 BEGIN BOND
M  V30 1 3 1 2
M  V30 2 1 2 3
M  V30 3 2 3 4
M  V30 4 1 4 5
M  V30 5 1 4 6
M  V30 6 2 6 7
M  V30 7 1 7 8
M  V30 8 1 8 9
M  V30 9 1 9 10
M  V30 10 2 10 11
M  V30 11 1 10 12
M  V30 12 2 12 13
M  V30 13 1 13 14
M  V30 14 2 14 15
M  V30 15 1 15 16
M  V30 16 1 16 17
M  V30 17 2 16 18
M  V30 18 2 9 19
M  V30 19 1 19 20
M  V30 20 1 19 21
M  V30 21 2 21 22
M  V30 22 1 22 23
M  V30 23 2 23 24
M  V30 24 1 24 25
M  V30 25 2 25 26
M  V30 26 1 26 27
M  V30 27 2 27 28
M  V30 28 1 28 29
M  V30 29 1 22 3
M  V30 30 1 28 23
M  V30 31 1 21 7
M  V30 32 1 18 12
M  V30 33 1 5 30
M  V30 34 1 5 31
M  V30 35 1 13 32
M  V30 36 1 14 33
M  V30 37 1 15 34
M  V30 38 1 18 35
M  V30 39 1 20 36
M  V30 40 1 20 37
M  V30 41 1 24 38
M  V30 42 1 25 39
M  V30 43 1 26 40
M  V30 44 1 27 41
M  V30 END BOND
M  V30 END CTAB
M  END
>  <Dataset>  (71) 
ChEMBL_Kinases

>  <Ligand_Instance>  (71) 
nan

>  <PDB_ID>  (71) 
nan

>  <Standardized_SMILES>  (71) 
N#Cc1c(N)nc2sc(C(=O)c3cccc(Cl)c3)c(N)c2c1-c1ccccc1Cl

>  <Name>  (71) 
nan

>  <Pocket>  (71) 
nan

>  <ATP_Site>  (71) 
nan

>  <Peripheral>  (71) 
nan

>  <Num_H_Atoms_ProtBoundConf>  (71) 
nan

>  <Num_Resolved_Atoms>  (71) 
nan

>  <Num_Not_Resolved_Atoms>  (71) 
nan

$$$$
CHEMBL2313894
     RDKit          3D

  0  0  0  0  0  0  0  0  0  0999 V3000
M  V30 BEGIN CTAB
M  V30 COUNTS 35 38 0 0 0
M  V30 BEGIN ATOM
M  V30 1 C -0.681482 -5.109535 2.293721 0
M  V30 2 O 0.557592 -4.641669 2.790498 0
M  V30 3 C 1.147922 -3.472412 2.350012 0
M  V30 4 C 2.352883 -2.979603 2.807908 0
M  V30 5 C 2.917489 -1.803818 2.346779 0
M  V30 6 C 2.231913 -1.099681 1.382190 0
M  V30 7 C 1.033087 -1.572317 0.913920 0
M  V30 8 C 0.475763 -2.747915 1.379382 0
M  V30 9 O 0.541528 -0.765692 0.009962 0
M  V30 10 C 1.342324 0.274379 -0.189682 0
M  V30 11 C 1.295880 1.404163 -1.017975 0
M  V30 12 N 0.128161 1.438790 -1.825219 0
M  V30 13 C -1.145929 1.646724 -1.182943 0
M  V30 14 C -1.100675 1.784365 0.206335 0
M  V30 15 C -2.302032 1.966607 0.893041 0
M  V30 16 C -3.482678 2.006021 0.197262 0
M  V30 17 Cl -4.985865 2.231533 1.080802 0
M  V30 18 C -3.542486 1.872402 -1.174513 0
M  V30 19 C -2.344513 1.689724 -1.869046 0
M  V30 20 Cl -2.334201 1.517153 -3.606289 0
M  V30 21 N 2.327901 2.276311 -0.939749 0
M  V30 22 C 3.361909 2.077137 -0.104198 0
M  V30 23 N 3.412253 0.977160 0.704665 0
M  V30 24 C 2.404228 0.067282 0.669850 0
M  V30 25 H -1.504351 -4.367657 2.489658 0
M  V30 26 H -0.961685 -6.035783 2.844342 0
M  V30 27 H -0.625752 -5.374120 1.208625 0
M  V30 28 H 2.868430 -3.558286 3.570043 0
M  V30 29 H 3.841593 -1.402710 2.683311 0
M  V30 30 H -0.477414 -3.104419 0.993655 0
M  V30 31 H 0.072707 1.327569 -2.879675 0
M  V30 32 H -0.243742 1.774145 0.855050 0
M  V30 33 H -2.336905 2.077454 1.977891 0
M  V30 34 H -4.493051 1.906909 -1.707146 0
M  V30 35 H 4.143360 2.848333 -0.123178 0
M  V30 END ATOM
M  V30 BEGIN BOND
M  V30 1 1 1 2
M  V30 2 1 2 3
M  V30 3 2 3 4
M  V30 4 1 4 5
M  V30 5 2 5 6
M  V30 6 1 6 7
M  V30 7 2 7 8
M  V30 8 1 7 9
M  V30 9 1 9 10
M  V30 10 2 10 11
M  V30 11 1 11 12
M  V30 12 1 12 13
M  V30 13 2 13 14
M  V30 14 1 14 15
M  V30 15 2 15 16
M  V30 16 1 16 17
M  V30 17 1 16 18
M  V30 18 2 18 19
M  V30 19 1 19 20
M  V30 20 1 11 21
M  V30 21 2 21 22
M  V30 22 1 22 23
M  V30 23 2 23 24
M  V30 24 1 8 3
M  V30 25 1 24 10
M  V30 26 1 24 6
M  V30 27 1 19 13
M  V30 28 1 1 25
M  V30 29 1 1 26
M  V30 30 1 1 27
M  V30 31 1 4 28
M  V30 32 1 5 29
M  V30 33 1 8 30
M  V30 34 1 12 31
M  V30 35 1 14 32
M  V30 36 1 15 33
M  V30 37 1 18 34
M  V30 38 1 22 35
M  V30 END BOND
M  V30 END CTAB
M  END
>  <Dataset>  (72) 
ChEMBL_Kinases

>  <Ligand_Instance>  (72) 
nan

>  <PDB_ID>  (72) 
nan

>  <Standardized_SMILES>  (72) 
COc1ccc2c(c1)oc1c(Nc3ccc(Cl)cc3Cl)ncnc12

>  <Name>  (72) 
nan

>  <Pocket>  (72) 
nan

>  <ATP_Site>  (72) 
nan

>  <Peripheral>  (72) 
nan

>  <Num_H_Atoms_ProtBoundConf>  (72) 
nan

>  <Num_Resolved_Atoms>  (72) 
nan

>  <Num_Not_Resolved_Atoms>  (72) 
nan

$$$$
CHEMBL2313906
     RDKit          3D

  0  0  0  0  0  0  0  0  0  0999 V3000
M  V30 BEGIN CTAB
M  V30 COUNTS 38 41 0 0 0
M  V30 BEGIN ATOM
M  V30 1 C 1.092210 -6.441375 2.304497 0
M  V30 2 O 1.113596 -5.437003 3.307150 0
M  V30 3 C 0.679348 -4.147886 3.114028 0
M  V30 4 C 0.719865 -3.207679 4.117328 0
M  V30 5 C 0.309761 -1.900482 4.023826 0
M  V30 6 C -0.198435 -1.444543 2.824766 0
M  V30 7 C -0.240230 -2.371779 1.830222 0
M  V30 8 C 0.168529 -3.671011 1.927614 0
M  V30 9 S -0.925692 -1.526979 0.415837 0
M  V30 10 C -1.121987 0.082241 1.285965 0
M  V30 11 C -1.632060 1.327600 0.820579 0
M  V30 12 N -2.013584 1.275612 -0.562705 0
M  V30 13 C -0.820589 1.850096 -1.126898 0
M  V30 14 C -0.425178 3.160068 -0.852205 0
M  V30 15 C 0.727059 3.791558 -1.341146 0
M  V30 16 C 1.513701 3.019545 -2.160917 0
M  V30 17 C 1.141195 1.723394 -2.444537 0
M  V30 18 C 2.062537 0.944730 -3.340182 0
M  V30 19 C 0.001809 1.124577 -1.951683 0
M  V30 20 N -1.658354 2.328126 1.686112 0
M  V30 21 C -1.201716 2.082508 2.920415 0
M  V30 22 N -0.727780 0.937115 3.357808 0
M  V30 23 C -0.636104 -0.172034 2.605506 0
M  V30 24 H 0.056978 -6.797563 2.103530 0
M  V30 25 H 1.741202 -7.262787 2.693784 0
M  V30 26 H 1.506345 -6.109830 1.337567 0
M  V30 27 H 1.126469 -3.562722 5.079933 0
M  V30 28 H 0.415278 -1.296102 4.922886 0
M  V30 29 H 0.083979 -4.300530 1.076456 0
M  V30 30 H -2.868399 0.940197 -1.050665 0
M  V30 31 H -1.108884 3.708846 -0.189334 0
M  V30 32 H 0.852686 4.820737 -1.009323 0
M  V30 33 H 2.395136 3.520954 -2.527275 0
M  V30 34 H 1.488626 0.096237 -3.753645 0
M  V30 35 H 2.851973 0.536703 -2.671040 0
M  V30 36 H 2.465303 1.554928 -4.145427 0
M  V30 37 H -0.247451 0.102058 -2.202009 0
M  V30 38 H -1.212426 2.901341 3.655363 0
M  V30 END ATOM
M  V30 BEGIN BOND
M  V30 1 1 1 2
M  V30 2 1 2 3
M  V30 3 2 3 4
M  V30 4 1 4 5
M  V30 5 2 5 6
M  V30 6 1 6 7
M  V30 7 2 7 8
M  V30 8 1 7 9
M  V30 9 1 9 10
M  V30 10 2 10 11
M  V30 11 1 11 12
M  V30 12 1 12 13
M  V30 13 2 13 14
M  V30 14 1 14 15
M  V30 15 2 15 16
M  V30 16 1 16 17
M  V30 17 1 17 18
M  V30 18 2 17 19
M  V30 19 1 11 20
M  V30 20 2 20 21
M  V30 21 1 21 22
M  V30 22 2 22 23
M  V30 23 1 8 3
M  V30 24 1 23 10
M  V30 25 1 23 6
M  V30 26 1 19 13
M  V30 27 1 1 24
M  V30 28 1 1 25
M  V30 29 1 1 26
M  V30 30 1 4 27
M  V30 31 1 5 28
M  V30 32 1 8 29
M  V30 33 1 12 30
M  V30 34 1 14 31
M  V30 35 1 15 32
M  V30 36 1 16 33
M  V30 37 1 18 34
M  V30 38 1 18 35
M  V30 39 1 18 36
M  V30 40 1 19 37
M  V30 41 1 21 38
M  V30 END BOND
M  V30 END CTAB
M  END
>  <Dataset>  (73) 
ChEMBL_Kinases

>  <Ligand_Instance>  (73) 
nan

>  <PDB_ID>  (73) 
nan

>  <Standardized_SMILES>  (73) 
COc1ccc2c(c1)sc1c(Nc3cccc(C)c3)ncnc12

>  <Name>  (73) 
nan

>  <Pocket>  (73) 
nan

>  <ATP_Site>  (73) 
nan

>  <Peripheral>  (73) 
nan

>  <Num_H_Atoms_ProtBoundConf>  (73) 
nan

>  <Num_Resolved_Atoms>  (73) 
nan

>  <Num_Not_Resolved_Atoms>  (73) 
nan

$$$$
CHEMBL2313907
     RDKit          3D

  0  0  0  0  0  0  0  0  0  0999 V3000
M  V30 BEGIN CTAB
M  V30 COUNTS 39 42 0 0 0
M  V30 BEGIN ATOM
M  V30 1 C -0.072755 -5.472456 5.086031 0
M  V30 2 O -0.234558 -4.128000 4.696582 0
M  V30 3 C 0.646939 -3.426317 3.914799 0
M  V30 4 C 1.835514 -3.763546 3.305135 0
M  V30 5 C 2.615021 -2.935469 2.539072 0
M  V30 6 C 2.175910 -1.646334 2.357754 0
M  V30 7 N 2.928662 -0.767399 1.564619 0
M  V30 8 C 2.524779 0.595528 1.396342 0
M  V30 9 N 3.021355 1.654602 2.052169 0
M  V30 10 C 2.466255 2.851879 1.722564 0
M  V30 11 N 1.511245 3.059245 0.843287 0
M  V30 12 C 0.935208 2.083754 0.127350 0
M  V30 13 C 1.512226 0.849244 0.470390 0
M  V30 14 S 0.593486 -0.406141 -0.602949 0
M  V30 15 C -0.419377 0.859691 -1.352776 0
M  V30 16 C -1.402869 0.675343 -2.311840 0
M  V30 17 C -2.085847 1.774622 -2.777133 0
M  V30 18 O -3.075486 1.629725 -3.733239 0
M  V30 19 C -3.365234 0.306643 -4.218864 0
M  V30 20 C -1.715148 2.966809 -2.233101 0
M  V30 21 C -0.749421 3.140476 -1.292880 0
M  V30 22 C -0.052256 2.051037 -0.811057 0
M  V30 23 C 0.997870 -1.259119 2.944350 0
M  V30 24 C 0.225220 -2.107571 3.713034 0
M  V30 25 H 0.921123 -5.566548 5.584142 0
M  V30 26 H -0.831531 -5.752563 5.852343 0
M  V30 27 H -0.058387 -6.183463 4.256879 0
M  V30 28 H 2.087738 -4.815237 3.519268 0
M  V30 29 H 3.519509 -3.350958 2.130501 0
M  V30 30 H 3.796392 -1.052847 1.071806 0
M  V30 31 H 2.867876 3.730845 2.259005 0
M  V30 32 H -1.595006 -0.326094 -2.654503 0
M  V30 33 H -3.531789 -0.352634 -3.342862 0
M  V30 34 H -4.194878 0.332067 -4.945342 0
M  V30 35 H -2.424307 -0.044099 -4.688519 0
M  V30 36 H -2.259768 3.850737 -2.605610 0
M  V30 37 H -0.564165 4.162786 -0.949186 0
M  V30 38 H 0.709765 -0.211510 2.755661 0
M  V30 39 H -0.672348 -1.647531 4.102889 0
M  V30 END ATOM
M  V30 BEGIN BOND
M  V30 1 1 1 2
M  V30 2 1 2 3
M  V30 3 2 3 4
M  V30 4 1 4 5
M  V30 5 2 5 6
M  V30 6 1 6 7
M  V30 7 1 7 8
M  V30 8 2 8 9
M  V30 9 1 9 10
M  V30 10 2 10 11
M  V30 11 1 11 12
M  V30 12 2 12 13
M  V30 13 1 13 14
M  V30 14 1 14 15
M  V30 15 2 15 16
M  V30 16 1 16 17
M  V30 17 1 17 18
M  V30 18 1 18 19
M  V30 19 2 17 20
M  V30 20 1 20 21
M  V30 21 2 21 22
M  V30 22 1 6 23
M  V30 23 2 23 24
M  V30 24 1 24 3
M  V30 25 1 13 8
M  V30 26 1 22 15
M  V30 27 1 22 12
M  V30 28 1 1 25
M  V30 29 1 1 26
M  V30 30 1 1 27
M  V30 31 1 4 28
M  V30 32 1 5 29
M  V30 33 1 7 30
M  V30 34 1 10 31
M  V30 35 1 16 32
M  V30 36 1 19 33
M  V30 37 1 19 34
M  V30 38 1 19 35
M  V30 39 1 20 36
M  V30 40 1 21 37
M  V30 41 1 23 38
M  V30 42 1 24 39
M  V30 END BOND
M  V30 END CTAB
M  END
>  <Dataset>  (74) 
ChEMBL_Kinases

>  <Ligand_Instance>  (74) 
nan

>  <PDB_ID>  (74) 
nan

>  <Standardized_SMILES>  (74) 
COc1ccc(Nc2ncnc3c2sc2cc(OC)ccc23)cc1

>  <Name>  (74) 
nan

>  <Pocket>  (74) 
nan

>  <ATP_Site>  (74) 
nan

>  <Peripheral>  (74) 
nan

>  <Num_H_Atoms_ProtBoundConf>  (74) 
nan

>  <Num_Resolved_Atoms>  (74) 
nan

>  <Num_Not_Resolved_Atoms>  (74) 
nan

$$$$
CHEMBL2313919
     RDKit          3D

  0  0  0  0  0  0  0  0  0  0999 V3000
M  V30 BEGIN CTAB
M  V30 COUNTS 35 38 0 0 0
M  V30 BEGIN ATOM
M  V30 1 C -0.320652 -5.774986 2.447081 0
M  V30 2 O 0.811562 -5.045180 2.789718 0
M  V30 3 C 1.174251 -3.810328 2.310471 0
M  V30 4 C 2.318712 -3.160219 2.716422 0
M  V30 5 C 2.724561 -1.928047 2.269633 0
M  V30 6 C 1.953502 -1.223958 1.322718 0
M  V30 7 C 0.849860 -1.877230 0.945694 0
M  V30 8 C 0.408642 -3.139171 1.385367 0
M  V30 9 S 0.116013 -0.775819 -0.204621 0
M  V30 10 C 1.332712 0.466338 -0.093277 0
M  V30 11 C 1.372473 1.718008 -0.780835 0
M  V30 12 N 0.318395 2.002219 -1.693448 0
M  V30 13 C -1.040645 2.113373 -1.207124 0
M  V30 14 C -1.345737 2.040039 0.133664 0
M  V30 15 C -2.639860 2.119693 0.611041 0
M  V30 16 Cl -3.047781 2.019838 2.313587 0
M  V30 17 C -3.644743 2.281043 -0.334852 0
M  V30 18 C -3.424242 2.364856 -1.693835 0
M  V30 19 Cl -4.732061 2.565903 -2.840838 0
M  V30 20 C -2.091187 2.276688 -2.108226 0
M  V30 21 N 2.421505 2.517766 -0.509542 0
M  V30 22 C 3.320424 2.031117 0.392630 0
M  V30 23 N 3.227381 0.845506 1.007121 0
M  V30 24 C 2.186571 -0.022473 0.781092 0
M  V30 25 H -1.031452 -5.709342 3.321709 0
M  V30 26 H -0.109906 -6.879945 2.388326 0
M  V30 27 H -0.856174 -5.474350 1.545121 0
M  V30 28 H 2.927074 -3.695712 3.458676 0
M  V30 29 H 3.662738 -1.553690 2.693800 0
M  V30 30 H -0.508195 -3.543569 0.992262 0
M  V30 31 H 0.479744 2.141201 -2.712162 0
M  V30 32 H -0.554582 1.920171 0.871757 0
M  V30 33 H -4.686329 2.345375 0.002716 0
M  V30 34 H -1.884964 2.339590 -3.155603 0
M  V30 35 H 4.206552 2.633839 0.663049 0
M  V30 END ATOM
M  V30 BEGIN BOND
M  V30 1 1 1 2
M  V30 2 1 2 3
M  V30 3 2 3 4
M  V30 4 1 4 5
M  V30 5 2 5 6
M  V30 6 1 6 7
M  V30 7 2 7 8
M  V30 8 1 7 9
M  V30 9 1 9 10
M  V30 10 2 10 11
M  V30 11 1 11 12
M  V30 12 1 12 13
M  V30 13 2 13 14
M  V30 14 1 14 15
M  V30 15 1 15 16
M  V30 16 2 15 17
M  V30 17 1 17 18
M  V30 18 1 18 19
M  V30 19 2 18 20
M  V30 20 1 11 21
M  V30 21 2 21 22
M  V30 22 1 22 23
M  V30 23 2 23 24
M  V30 24 1 8 3
M  V30 25 1 24 10
M  V30 26 1 24 6
M  V30 27 1 20 13
M  V30 28 1 1 25
M  V30 29 1 1 26
M  V30 30 1 1 27
M  V30 31 1 4 28
M  V30 32 1 5 29
M  V30 33 1 8 30
M  V30 34 1 12 31
M  V30 35 1 14 32
M  V30 36 1 17 33
M  V30 37 1 20 34
M  V30 38 1 22 35
M  V30 END BOND
M  V30 END CTAB
M  END
>  <Dataset>  (75) 
ChEMBL_Kinases

>  <Ligand_Instance>  (75) 
nan

>  <PDB_ID>  (75) 
nan

>  <Standardized_SMILES>  (75) 
COc1ccc2c(c1)sc1c(Nc3cc(Cl)cc(Cl)c3)ncnc12

>  <Name>  (75) 
nan

>  <Pocket>  (75) 
nan

>  <ATP_Site>  (75) 
nan

>  <Peripheral>  (75) 
nan

>  <Num_H_Atoms_ProtBoundConf>  (75) 
nan

>  <Num_Resolved_Atoms>  (75) 
nan

>  <Num_Not_Resolved_Atoms>  (75) 
nan

$$$$
CHEMBL2314439
     RDKit          3D

  0  0  0  0  0  0  0  0  0  0999 V3000
M  V30 BEGIN CTAB
M  V30 COUNTS 43 46 0 0 0
M  V30 BEGIN ATOM
M  V30 1 C 1.401557 -4.008548 3.473633 0
M  V30 2 C 1.739803 -3.976280 2.006038 0
M  V30 3 C 0.473121 -4.347845 1.264993 0
M  V30 4 N 2.256894 -2.690932 1.570640 0
M  V30 5 C 3.426360 -2.152139 1.952659 0
M  V30 6 N 3.563517 -0.958639 1.348443 0
M  V30 7 C 2.481911 -0.701422 0.561329 0
M  V30 8 C 2.027202 0.292825 -0.278788 0
M  V30 9 N 2.893071 1.410556 -0.404317 0
M  V30 10 C 2.390322 2.469552 0.395866 0
M  V30 11 C 1.641671 3.299448 -0.441008 0
M  V30 12 N 1.013720 4.416945 0.019204 0
M  V30 13 C 1.099441 4.763970 1.331662 0
M  V30 14 C 1.837009 3.941569 2.148693 0
M  V30 15 N 2.457764 2.834703 1.689540 0
M  V30 16 N 0.843513 0.132280 -0.886028 0
M  V30 17 C 0.047065 -0.946712 -0.737661 0
M  V30 18 C -1.227338 -0.923318 -1.499083 0
M  V30 19 C -2.349033 -0.491024 -0.626126 0
M  V30 20 C -2.672311 0.800356 -0.319214 0
M  V30 21 N -3.699884 1.167880 0.448409 0
M  V30 22 C -4.509992 0.216865 0.985150 0
M  V30 23 C -4.192962 -1.078522 0.683003 0
M  V30 24 N -3.153163 -1.462505 -0.094496 0
M  V30 25 N 0.499676 -1.914894 0.086227 0
M  V30 26 C 1.684559 -1.813400 0.728236 0
M  V30 27 H 1.728785 -4.996017 3.888985 0
M  V30 28 H 1.852250 -3.215345 4.077853 0
M  V30 29 H 0.289654 -3.980015 3.656163 0
M  V30 30 H 2.510111 -4.742661 1.725588 0
M  V30 31 H 0.645230 -4.366592 0.154491 0
M  V30 32 H -0.362372 -3.663683 1.511350 0
M  V30 33 H 0.200914 -5.377297 1.574473 0
M  V30 34 H 4.103644 -2.633692 2.623209 0
M  V30 35 H 3.749652 1.422887 -0.991595 0
M  V30 36 H 1.428708 3.235744 -1.504783 0
M  V30 37 H 0.629733 5.635070 1.760983 0
M  V30 38 H 1.990731 4.089804 3.217283 0
M  V30 39 H -1.420409 -1.969290 -1.809888 0
M  V30 40 H -1.118999 -0.248528 -2.377747 0
M  V30 41 H -2.055541 1.588280 -0.725134 0
M  V30 42 H -5.356794 0.452786 1.614451 0
M  V30 43 H -4.813820 -1.891602 1.086107 0
M  V30 END ATOM
M  V30 BEGIN BOND
M  V30 1 1 1 2
M  V30 2 1 2 3
M  V30 3 1 2 4
M  V30 4 1 4 5
M  V30 5 2 5 6
M  V30 6 1 6 7
M  V30 7 2 7 8
M  V30 8 1 8 9
M  V30 9 1 9 10
M  V30 10 2 10 11
M  V30 11 1 11 12
M  V30 12 2 12 13
M  V30 13 1 13 14
M  V30 14 2 14 15
M  V30 15 1 8 16
M  V30 16 2 16 17
M  V30 17 1 17 18
M  V30 18 1 18 19
M  V30 19 2 19 20
M  V30 20 1 20 21
M  V30 21 2 21 22
M  V30 22 1 22 23
M  V30 23 2 23 24
M  V30 24 1 17 25
M  V30 25 2 25 26
M  V30 26 1 26 4
M  V30 27 1 26 7
M  V30 28 1 15 10
M  V30 29 1 24 19
M  V30 30 1 1 27
M  V30 31 1 1 28
M  V30 32 1 1 29
M  V30 33 1 2 30
M  V30 34 1 3 31
M  V30 35 1 3 32
M  V30 36 1 3 33
M  V30 37 1 5 34
M  V30 38 1 9 35
M  V30 39 1 11 36
M  V30 40 1 13 37
M  V30 41 1 14 38
M  V30 42 1 18 39
M  V30 43 1 18 40
M  V30 44 1 20 41
M  V30 45 1 22 42
M  V30 46 1 23 43
M  V30 END BOND
M  V30 END CTAB
M  END
>  <Dataset>  (76) 
ChEMBL_Kinases

>  <Ligand_Instance>  (76) 
nan

>  <PDB_ID>  (76) 
nan

>  <Standardized_SMILES>  (76) 
CC(C)n1cnc2c(Nc3cnccn3)nc(Cc3cnccn3)nc21

>  <Name>  (76) 
nan

>  <Pocket>  (76) 
nan

>  <ATP_Site>  (76) 
nan

>  <Peripheral>  (76) 
nan

>  <Num_H_Atoms_ProtBoundConf>  (76) 
nan

>  <Num_Resolved_Atoms>  (76) 
nan

>  <Num_Not_Resolved_Atoms>  (76) 
nan

$$$$
CHEMBL2313925
     RDKit          3D

  0  0  0  0  0  0  0  0  0  0999 V3000
M  V30 BEGIN CTAB
M  V30 COUNTS 39 42 0 0 0
M  V30 BEGIN ATOM
M  V30 1 C 3.201821 -5.996824 2.908660 0
M  V30 2 O 2.817717 -4.652643 2.958400 0
M  V30 3 C 2.891376 -3.731461 1.931290 0
M  V30 4 C 2.402494 -2.503350 2.395673 0
M  V30 5 C 2.339616 -1.377680 1.607587 0
M  V30 6 C 2.774799 -1.452641 0.301098 0
M  V30 7 N 2.713590 -0.332212 -0.568366 0
M  V30 8 C 2.214196 0.939386 -0.174531 0
M  V30 9 N 3.001481 2.022169 0.102443 0
M  V30 10 C 2.343454 3.149510 0.465313 0
M  V30 11 N 1.029415 3.230907 0.555888 0
M  V30 12 C 0.179301 2.205605 0.299155 0
M  V30 13 C 0.858168 1.086982 -0.062561 0
M  V30 14 S -0.391240 -0.109858 -0.330975 0
M  V30 15 C -1.811868 1.061935 0.090630 0
M  V30 16 C -3.162842 0.729296 0.073718 0
M  V30 17 C -4.017935 1.781805 0.422244 0
M  V30 18 O -5.376626 1.540203 0.434359 0
M  V30 19 C -5.794030 0.216361 0.089361 0
M  V30 20 C -3.397298 2.968158 0.724070 0
M  V30 21 C -2.065891 3.247241 0.726757 0
M  V30 22 C -1.186890 2.238731 0.389570 0
M  V30 23 C 3.257538 -2.647238 -0.168619 0
M  V30 24 F 3.707895 -2.821685 -1.410580 0
M  V30 25 C 3.326909 -3.777150 0.604148 0
M  V30 26 H 4.114062 -6.145636 3.513468 0
M  V30 27 H 3.459405 -6.320295 1.860107 0
M  V30 28 H 2.412180 -6.677936 3.330394 0
M  V30 29 H 2.019719 -2.277052 3.405494 0
M  V30 30 H 1.977274 -0.414177 1.904549 0
M  V30 31 H 3.036130 -0.383725 -1.555174 0
M  V30 32 H 2.921136 4.051169 0.698879 0
M  V30 33 H -3.478121 -0.249747 -0.188951 0
M  V30 34 H -5.363674 -0.543413 0.802927 0
M  V30 35 H -5.394933 -0.088979 -0.899673 0
M  V30 36 H -6.882812 0.111387 0.132682 0
M  V30 37 H -4.057723 3.813366 1.001212 0
M  V30 38 H -1.707669 4.240783 0.990711 0
M  V30 39 H 3.676840 -4.772094 0.384755 0
M  V30 END ATOM
M  V30 BEGIN BOND
M  V30 1 1 1 2
M  V30 2 1 2 3
M  V30 3 2 3 4
M  V30 4 1 4 5
M  V30 5 2 5 6
M  V30 6 1 6 7
M  V30 7 1 7 8
M  V30 8 2 8 9
M  V30 9 1 9 10
M  V30 10 2 10 11
M  V30 11 1 11 12
M  V30 12 2 12 13
M  V30 13 1 13 14
M  V30 14 1 14 15
M  V30 15 2 15 16
M  V30 16 1 16 17
M  V30 17 1 17 18
M  V30 18 1 18 19
M  V30 19 2 17 20
M  V30 20 1 20 21
M  V30 21 2 21 22
M  V30 22 1 6 23
M  V30 23 1 23 24
M  V30 24 2 23 25
M  V30 25 1 25 3
M  V30 26 1 13 8
M  V30 27 1 22 15
M  V30 28 1 22 12
M  V30 29 1 1 26
M  V30 30 1 1 27
M  V30 31 1 1 28
M  V30 32 1 4 29
M  V30 33 1 5 30
M  V30 34 1 7 31
M  V30 35 1 10 32
M  V30 36 1 16 33
M  V30 37 1 19 34
M  V30 38 1 19 35
M  V30 39 1 19 36
M  V30 40 1 20 37
M  V30 41 1 21 38
M  V30 42 1 25 39
M  V30 END BOND
M  V30 END CTAB
M  END
>  <Dataset>  (77) 
ChEMBL_Kinases

>  <Ligand_Instance>  (77) 
nan

>  <PDB_ID>  (77) 
nan

>  <Standardized_SMILES>  (77) 
COc1ccc(Nc2ncnc3c2sc2cc(OC)ccc23)c(F)c1

>  <Name>  (77) 
nan

>  <Pocket>  (77) 
nan

>  <ATP_Site>  (77) 
nan

>  <Peripheral>  (77) 
nan

>  <Num_H_Atoms_ProtBoundConf>  (77) 
nan

>  <Num_Resolved_Atoms>  (77) 
nan

>  <Num_Not_Resolved_Atoms>  (77) 
nan

$$$$
CHEMBL2314101
     RDKit          3D

  0  0  0  0  0  0  0  0  0  0999 V3000
M  V30 BEGIN CTAB
M  V30 COUNTS 42 45 0 0 0
M  V30 BEGIN ATOM
M  V30 1 N 1.363130 -7.287870 -4.248583 0
M  V30 2 C 1.496805 -6.172369 -3.983204 0
M  V30 3 C 1.645947 -4.767274 -3.646613 0
M  V30 4 C 2.074823 -3.940747 -4.662357 0
M  V30 5 C 2.225715 -2.602676 -4.374142 0
M  V30 6 C 1.949297 -2.152661 -3.113490 0
M  V30 7 C 1.518281 -2.919418 -2.055651 0
M  V30 8 C 1.182617 -2.533411 -0.701473 0
M  V30 9 O 1.228368 -3.404642 0.208302 0
M  V30 10 C 0.792044 -1.230362 -0.274225 0
M  V30 11 S 0.586542 0.164774 -1.418159 0
M  V30 12 C 0.095528 1.335141 -0.135491 0
M  V30 13 N -0.228602 2.625071 -0.243480 0
M  V30 14 C -0.572771 3.360420 0.824867 0
M  V30 15 N -0.906678 4.725218 0.634488 0
M  V30 16 C -0.558330 2.666575 2.014599 0
M  V30 17 C -0.923749 3.429857 3.186787 0
M  V30 18 N -1.202945 4.048989 4.130081 0
M  V30 19 C -0.223819 1.337744 2.119801 0
M  V30 20 C -0.266911 0.776879 3.487907 0
M  V30 21 C 0.838242 0.788624 4.327149 0
M  V30 22 C 0.698950 0.236931 5.590650 0
M  V30 23 C -0.480186 -0.310740 6.027499 0
M  V30 24 C -1.550828 -0.297896 5.154803 0
M  V30 25 C -1.490493 0.231796 3.884043 0
M  V30 26 Cl -2.866847 0.239929 2.790784 0
M  V30 27 C 0.128817 0.588936 1.016930 0
M  V30 28 C 0.486316 -0.728306 0.946467 0
M  V30 29 N 0.557381 -1.590276 2.078791 0
M  V30 30 C 1.377264 -4.267669 -2.384110 0
M  V30 31 H 2.291185 -4.297283 -5.657492 0
M  V30 32 H 2.559917 -1.902751 -5.129998 0
M  V30 33 H 2.085086 -1.108859 -2.918367 0
M  V30 34 H -1.937997 4.965369 0.540809 0
M  V30 35 H -0.259348 5.558460 0.570191 0
M  V30 36 H 1.750704 1.224963 3.956172 0
M  V30 37 H 1.605978 0.288438 6.176109 0
M  V30 38 H -0.529879 -0.719463 7.006989 0
M  V30 39 H -2.513441 -0.728820 5.470041 0
M  V30 40 H 1.426511 -2.189196 2.230676 0
M  V30 41 H 1.360906 -2.201714 2.298436 0
M  V30 42 H 1.051362 -5.032253 -1.694822 0
M  V30 END ATOM
M  V30 BEGIN BOND
M  V30 1 3 1 2
M  V30 2 1 2 3
M  V30 3 2 3 4
M  V30 4 1 4 5
M  V30 5 2 5 6
M  V30 6 1 6 7
M  V30 7 1 7 8
M  V30 8 2 8 9
M  V30 9 1 8 10
M  V30 10 1 10 11
M  V30 11 1 11 12
M  V30 12 2 12 13
M  V30 13 1 13 14
M  V30 14 1 14 15
M  V30 15 2 14 16
M  V30 16 1 16 17
M  V30 17 3 17 18
M  V30 18 1 16 19
M  V30 19 1 19 20
M  V30 20 2 20 21
M  V30 21 1 21 22
M  V30 22 2 22 23
M  V30 23 1 23 24
M  V30 24 2 24 25
M  V30 25 1 25 26
M  V30 26 2 19 27
M  V30 27 1 27 28
M  V30 28 1 28 29
M  V30 29 2 7 30
M  V30 30 1 30 3
M  V30 31 2 28 10
M  V30 32 1 27 12
M  V30 33 1 25 20
M  V30 34 1 4 31
M  V30 35 1 5 32
M  V30 36 1 6 33
M  V30 37 1 15 34
M  V30 38 1 15 35
M  V30 39 1 21 36
M  V30 40 1 22 37
M  V30 41 1 23 38
M  V30 42 1 24 39
M  V30 43 1 29 40
M  V30 44 1 29 41
M  V30 45 1 30 42
M  V30 END BOND
M  V30 END CTAB
M  END
>  <Dataset>  (78) 
ChEMBL_Kinases

>  <Ligand_Instance>  (78) 
nan

>  <PDB_ID>  (78) 
nan

>  <Standardized_SMILES>  (78) 
N#Cc1cccc(C(=O)c2sc3nc(N)c(C#N)c(-c4ccccc4Cl)c3c2N)c1

>  <Name>  (78) 
nan

>  <Pocket>  (78) 
nan

>  <ATP_Site>  (78) 
nan

>  <Peripheral>  (78) 
nan

>  <Num_H_Atoms_ProtBoundConf>  (78) 
nan

>  <Num_Resolved_Atoms>  (78) 
nan

>  <Num_Not_Resolved_Atoms>  (78) 
nan

$$$$
CHEMBL2314433
     RDKit          3D

  0  0  0  0  0  0  0  0  0  0999 V3000
M  V30 BEGIN CTAB
M  V30 COUNTS 50 52 0 0 0
M  V30 BEGIN ATOM
M  V30 1 C 1.395613 -1.539919 4.676162 0
M  V30 2 C 1.373828 -1.358994 3.181646 0
M  V30 3 C 0.226298 -0.412863 2.892375 0
M  V30 4 C 1.246761 -2.657158 2.450080 0 CFG=1
M  V30 5 C -0.013105 -3.432935 2.770513 0
M  V30 6 O 0.173696 -4.735119 2.254505 0
M  V30 7 N 1.469189 -2.599175 1.045294 0
M  V30 8 C 0.774784 -1.699936 0.199394 0
M  V30 9 N 1.627403 -0.731778 -0.208181 0
M  V30 10 C 1.273057 0.283382 -1.011099 0
M  V30 11 N 2.007934 1.366332 -1.556354 0
M  V30 12 C 2.494755 2.412046 -0.733251 0
M  V30 13 C 2.896137 3.669509 -1.138368 0
M  V30 14 C 3.367024 4.585920 -0.234029 0
M  V30 15 N 3.473042 4.337202 1.099278 0
M  V30 16 N 3.093557 3.125871 1.539924 0
M  V30 17 C 2.632250 2.234930 0.634559 0
M  V30 18 C -0.056786 0.328477 -1.443353 0
M  V30 19 N -0.836960 1.125833 -2.225750 0
M  V30 20 C -2.086682 0.633173 -2.264144 0
M  V30 21 N -2.170880 -0.491020 -1.517658 0
M  V30 22 C -3.379510 -1.242730 -1.357861 0
M  V30 23 C -3.538023 -1.803404 0.040991 0
M  V30 24 C -3.556962 -2.371741 -2.332130 0
M  V30 25 C -0.939793 -0.664582 -1.028105 0
M  V30 26 N -0.527425 -1.665948 -0.216921 0
M  V30 27 H 1.609258 -0.524905 5.123617 0
M  V30 28 H 2.153222 -2.229320 5.043678 0
M  V30 29 H 0.365315 -1.791397 5.025525 0
M  V30 30 H 2.321359 -0.886706 2.878678 0
M  V30 31 H -0.690604 -0.977537 2.626062 0
M  V30 32 H -0.028200 0.188270 3.798185 0
M  V30 33 H 0.516816 0.330687 2.135548 0
M  V30 34 H 2.081276 -3.316769 2.858940 0
M  V30 35 H -0.907208 -3.029028 2.292475 0
M  V30 36 H -0.156090 -3.564211 3.858111 0
M  V30 37 H 0.855408 -5.215768 2.821372 0
M  V30 38 H 2.154852 -3.204813 0.502227 0
M  V30 39 H 2.223021 1.448018 -2.562630 0
M  V30 40 H 2.810504 3.869441 -2.215730 0
M  V30 41 H 3.660740 5.545538 -0.624632 0
M  V30 42 H 2.372506 1.320339 1.113234 0
M  V30 43 H -2.856605 1.152736 -2.854494 0
M  V30 44 H -4.270799 -0.566083 -1.519084 0
M  V30 45 H -2.767645 -2.590324 0.167088 0
M  V30 46 H -4.539324 -2.289755 0.062248 0
M  V30 47 H -3.456710 -1.002391 0.787161 0
M  V30 48 H -4.655369 -2.625190 -2.325153 0
M  V30 49 H -3.046573 -3.279636 -1.969484 0
M  V30 50 H -3.266830 -2.098003 -3.371191 0
M  V30 END ATOM
M  V30 BEGIN BOND
M  V30 1 1 1 2
M  V30 2 1 2 3
M  V30 3 1 2 4
M  V30 4 1 4 5
M  V30 5 1 5 6
M  V30 6 1 4 7
M  V30 7 1 7 8
M  V30 8 2 8 9
M  V30 9 1 9 10
M  V30 10 1 10 11
M  V30 11 1 11 12
M  V30 12 2 12 13
M  V30 13 1 13 14
M  V30 14 2 14 15
M  V30 15 1 15 16
M  V30 16 2 16 17
M  V30 17 2 10 18
M  V30 18 1 18 19
M  V30 19 2 19 20
M  V30 20 1 20 21
M  V30 21 1 21 22
M  V30 22 1 22 23
M  V30 23 1 22 24
M  V30 24 1 21 25
M  V30 25 2 25 26
M  V30 26 1 26 8
M  V30 27 1 17 12
M  V30 28 1 25 18
M  V30 29 1 1 27
M  V30 30 1 1 28
M  V30 31 1 1 29
M  V30 32 1 2 30
M  V30 33 1 3 31
M  V30 34 1 3 32
M  V30 35 1 3 33
M  V30 36 1 4 34 CFG=1
M  V30 37 1 5 35
M  V30 38 1 5 36
M  V30 39 1 6 37
M  V30 40 1 7 38
M  V30 41 1 11 39
M  V30 42 1 13 40
M  V30 43 1 14 41
M  V30 44 1 17 42
M  V30 45 1 20 43
M  V30 46 1 22 44
M  V30 47 1 23 45
M  V30 48 1 23 46
M  V30 49 1 23 47
M  V30 50 1 24 48
M  V30 51 1 24 49
M  V30 52 1 24 50
M  V30 END BOND
M  V30 END CTAB
M  END
>  <Dataset>  (79) 
ChEMBL_Kinases

>  <Ligand_Instance>  (79) 
nan

>  <PDB_ID>  (79) 
nan

>  <Standardized_SMILES>  (79) 
CC(C)[C@@H](CO)Nc1nc(Nc2ccnnc2)c2ncn(C(C)C)c2n1

>  <Name>  (79) 
nan

>  <Pocket>  (79) 
nan

>  <ATP_Site>  (79) 
nan

>  <Peripheral>  (79) 
nan

>  <Num_H_Atoms_ProtBoundConf>  (79) 
nan

>  <Num_Resolved_Atoms>  (79) 
nan

>  <Num_Not_Resolved_Atoms>  (79) 
nan

$$$$
CHEMBL2314434
     RDKit          3D

  0  0  0  0  0  0  0  0  0  0999 V3000
M  V30 BEGIN CTAB
M  V30 COUNTS 45 47 0 0 0
M  V30 BEGIN ATOM
M  V30 1 C 1.351988 -5.054464 1.665040 0
M  V30 2 C 1.477277 -3.681866 2.282312 0
M  V30 3 C 0.231564 -3.422515 3.093045 0
M  V30 4 N 1.749689 -2.664822 1.318215 0
M  V30 5 C 2.922144 -2.564618 0.666074 0
M  V30 6 N 2.786079 -1.481871 -0.147165 0
M  V30 7 C 1.568425 -0.949492 0.012381 0
M  V30 8 C 0.955913 0.138328 -0.572859 0
M  V30 9 N 1.578282 0.958582 -1.548013 0
M  V30 10 C 2.387213 2.045900 -1.079514 0
M  V30 11 C 2.982899 2.942035 -1.939533 0
M  V30 12 C 3.776196 4.005242 -1.580738 0
M  V30 13 N 3.937388 4.112653 -0.252072 0
M  V30 14 N 3.413394 3.312910 0.637658 0
M  V30 15 C 2.626844 2.259208 0.277219 0
M  V30 16 N -0.304076 0.451340 -0.213716 0
M  V30 17 C -0.978501 -0.270218 0.700259 0
M  V30 18 C -2.366403 0.151714 1.028005 0
M  V30 19 C -2.960619 -0.776119 2.083609 0
M  V30 20 C -3.285437 0.082281 -0.176391 0
M  V30 21 C -2.391246 1.537492 1.588661 0
M  V30 22 O -3.745289 1.831405 1.860171 0
M  V30 23 N -0.381379 -1.336568 1.275912 0
M  V30 24 C 0.885191 -1.698790 0.953718 0
M  V30 25 H 1.587584 -5.862770 2.409549 0
M  V30 26 H 2.023470 -5.155091 0.783781 0
M  V30 27 H 0.315550 -5.268771 1.337180 0
M  V30 28 H 2.304954 -3.774324 3.038364 0
M  V30 29 H 0.354031 -2.525476 3.756429 0
M  V30 30 H 0.128066 -4.289754 3.778341 0
M  V30 31 H -0.681442 -3.395837 2.486043 0
M  V30 32 H 3.794198 -3.197071 0.755729 0
M  V30 33 H 1.501696 0.844643 -2.575145 0
M  V30 34 H 2.792768 2.771933 -3.007273 0
M  V30 35 H 4.227874 4.686696 -2.264435 0
M  V30 36 H 2.159287 1.553210 0.982701 0
M  V30 37 H -3.494146 -1.609600 1.619024 0
M  V30 38 H -3.521483 -0.205746 2.844060 0
M  V30 39 H -2.085388 -1.238565 2.607929 0
M  V30 40 H -4.273407 -0.366681 0.075076 0
M  V30 41 H -2.855995 -0.527032 -0.980062 0
M  V30 42 H -3.423910 1.118440 -0.569625 0
M  V30 43 H -1.850435 1.560475 2.547081 0
M  V30 44 H -2.037774 2.304346 0.870276 0
M  V30 45 H -4.354198 1.276223 1.292845 0
M  V30 END ATOM
M  V30 BEGIN BOND
M  V30 1 1 1 2
M  V30 2 1 2 3
M  V30 3 1 2 4
M  V30 4 1 4 5
M  V30 5 2 5 6
M  V30 6 1 6 7
M  V30 7 2 7 8
M  V30 8 1 8 9
M  V30 9 1 9 10
M  V30 10 2 10 11
M  V30 11 1 11 12
M  V30 12 2 12 13
M  V30 13 1 13 14
M  V30 14 2 14 15
M  V30 15 1 8 16
M  V30 16 2 16 17
M  V30 17 1 17 18
M  V30 18 1 18 19
M  V30 19 1 18 20
M  V30 20 1 18 21
M  V30 21 1 21 22
M  V30 22 1 17 23
M  V30 23 2 23 24
M  V30 24 1 24 4
M  V30 25 1 24 7
M  V30 26 1 15 10
M  V30 27 1 1 25
M  V30 28 1 1 26
M  V30 29 1 1 27
M  V30 30 1 2 28
M  V30 31 1 3 29
M  V30 32 1 3 30
M  V30 33 1 3 31
M  V30 34 1 5 32
M  V30 35 1 9 33
M  V30 36 1 11 34
M  V30 37 1 12 35
M  V30 38 1 15 36
M  V30 39 1 19 37
M  V30 40 1 19 38
M  V30 41 1 19 39
M  V30 42 1 20 40
M  V30 43 1 20 41
M  V30 44 1 20 42
M  V30 45 1 21 43
M  V30 46 1 21 44
M  V30 47 1 22 45
M  V30 END BOND
M  V30 END CTAB
M  END
>  <Dataset>  (80) 
ChEMBL_Kinases

>  <Ligand_Instance>  (80) 
nan

>  <PDB_ID>  (80) 
nan

>  <Standardized_SMILES>  (80) 
CC(C)n1cnc2c(Nc3ccnnc3)nc(C(C)(C)CO)nc21

>  <Name>  (80) 
nan

>  <Pocket>  (80) 
nan

>  <ATP_Site>  (80) 
nan

>  <Peripheral>  (80) 
nan

>  <Num_H_Atoms_ProtBoundConf>  (80) 
nan

>  <Num_Resolved_Atoms>  (80) 
nan

>  <Num_Not_Resolved_Atoms>  (80) 
nan

$$$$
CHEMBL2314435
     RDKit          3D

  0  0  0  0  0  0  0  0  0  0999 V3000
M  V30 BEGIN CTAB
M  V30 COUNTS 47 49 0 0 0
M  V30 BEGIN ATOM
M  V30 1 C 1.821823 -4.627080 3.637415 0
M  V30 2 C 1.047136 -3.517555 4.287428 0
M  V30 3 C 0.365149 -2.684205 3.210320 0 CFG=1
M  V30 4 C -0.422424 -1.558892 3.863230 0
M  V30 5 O -1.339956 -2.117121 4.774010 0
M  V30 6 N 1.329209 -2.175732 2.260245 0
M  V30 7 C 0.977788 -1.388901 1.128186 0
M  V30 8 N 1.881263 -0.914496 0.258038 0
M  V30 9 C 1.555409 -0.174868 -0.813852 0
M  V30 10 N 2.523928 0.322541 -1.726535 0
M  V30 11 C 3.039347 1.633179 -1.455105 0
M  V30 12 C 2.575942 2.334093 -0.381223 0
M  V30 13 C 3.093627 3.595249 -0.149349 0
M  V30 14 N 4.029422 4.132904 -0.950123 0
M  V30 15 N 4.472457 3.450790 -1.985203 0
M  V30 16 C 4.009323 2.215826 -2.267448 0
M  V30 17 C 0.237959 0.138364 -1.074281 0
M  V30 18 N -0.365399 0.842121 -2.044909 0
M  V30 19 C -1.702229 0.813439 -1.780969 0
M  V30 20 N -1.883081 0.092559 -0.655092 0
M  V30 21 C -3.189426 -0.149876 -0.070729 0
M  V30 22 C -3.760811 1.120499 0.502670 0
M  V30 23 C -4.080741 -0.772958 -1.119568 0
M  V30 24 C -0.698354 -0.343970 -0.186501 0
M  V30 25 N -0.316613 -1.078819 0.869033 0
M  V30 26 H 1.156748 -5.015853 2.813274 0
M  V30 27 H 2.722289 -4.220152 3.176560 0
M  V30 28 H 2.029115 -5.469949 4.337540 0
M  V30 29 H 1.621235 -2.882762 4.966442 0
M  V30 30 H 0.222032 -3.969341 4.874429 0
M  V30 31 H -0.343115 -3.351500 2.680479 0
M  V30 32 H -0.999469 -0.962459 3.132339 0
M  V30 33 H 0.277566 -0.897690 4.408109 0
M  V30 34 H -1.443880 -1.435702 5.491658 0
M  V30 35 H 2.359261 -2.379981 2.382743 0
M  V30 36 H 2.863622 -0.208832 -2.558216 0
M  V30 37 H 1.818351 1.919296 0.281050 0
M  V30 38 H 2.767210 4.201147 0.685549 0
M  V30 39 H 4.394427 1.670049 -3.134536 0
M  V30 40 H -2.477199 1.281829 -2.365122 0
M  V30 41 H -3.129664 -0.877582 0.763947 0
M  V30 42 H -4.829736 1.060011 0.709434 0
M  V30 43 H -3.476429 2.008285 -0.135618 0
M  V30 44 H -3.260595 1.317511 1.480970 0
M  V30 45 H -3.729934 -1.837561 -1.235810 0
M  V30 46 H -5.100909 -0.840932 -0.688519 0
M  V30 47 H -4.051589 -0.239195 -2.074793 0
M  V30 END ATOM
M  V30 BEGIN BOND
M  V30 1 1 1 2
M  V30 2 1 2 3
M  V30 3 1 3 4
M  V30 4 1 4 5
M  V30 5 1 3 6
M  V30 6 1 6 7
M  V30 7 2 7 8
M  V30 8 1 8 9
M  V30 9 1 9 10
M  V30 10 1 10 11
M  V30 11 2 11 12
M  V30 12 1 12 13
M  V30 13 2 13 14
M  V30 14 1 14 15
M  V30 15 2 15 16
M  V30 16 2 9 17
M  V30 17 1 17 18
M  V30 18 2 18 19
M  V30 19 1 19 20
M  V30 20 1 20 21
M  V30 21 1 21 22
M  V30 22 1 21 23
M  V30 23 1 20 24
M  V30 24 2 24 25
M  V30 25 1 25 7
M  V30 26 1 16 11
M  V30 27 1 24 17
M  V30 28 1 1 26
M  V30 29 1 1 27
M  V30 30 1 1 28
M  V30 31 1 2 29
M  V30 32 1 2 30
M  V30 33 1 3 31 CFG=3
M  V30 34 1 4 32
M  V30 35 1 4 33
M  V30 36 1 5 34
M  V30 37 1 6 35
M  V30 38 1 10 36
M  V30 39 1 12 37
M  V30 40 1 13 38
M  V30 41 1 16 39
M  V30 42 1 19 40
M  V30 43 1 21 41
M  V30 44 1 22 42
M  V30 45 1 22 43
M  V30 46 1 22 44
M  V30 47 1 23 45
M  V30 48 1 23 46
M  V30 49 1 23 47
M  V30 END BOND
M  V30 END CTAB
M  END
>  <Dataset>  (81) 
ChEMBL_Kinases

>  <Ligand_Instance>  (81) 
nan

>  <PDB_ID>  (81) 
nan

>  <Standardized_SMILES>  (81) 
CC[C@@H](CO)Nc1nc(Nc2ccnnc2)c2ncn(C(C)C)c2n1

>  <Name>  (81) 
nan

>  <Pocket>  (81) 
nan

>  <ATP_Site>  (81) 
nan

>  <Peripheral>  (81) 
nan

>  <Num_H_Atoms_ProtBoundConf>  (81) 
nan

>  <Num_Resolved_Atoms>  (81) 
nan

>  <Num_Not_Resolved_Atoms>  (81) 
nan

$$$$
CHEMBL2314436
     RDKit          3D

  0  0  0  0  0  0  0  0  0  0999 V3000
M  V30 BEGIN CTAB
M  V30 COUNTS 50 52 0 0 0
M  V30 BEGIN ATOM
M  V30 1 C 1.456546 -2.915007 3.850277 0
M  V30 2 C 1.371823 -3.807328 2.632038 0
M  V30 3 C 0.020794 -4.482525 2.614696 0
M  V30 4 C 1.531674 -2.996980 1.364979 0 CFG=2
M  V30 5 C 2.879484 -2.287612 1.306158 0
M  V30 6 O 3.948932 -3.173267 1.229528 0
M  V30 7 N 0.542303 -1.940580 1.453074 0
M  V30 8 C 0.226342 -0.875918 0.564505 0
M  V30 9 N 1.055754 0.206467 0.480526 0
M  V30 10 C 0.722169 1.226622 -0.368878 0
M  V30 11 N 1.618153 2.322973 -0.445022 0
M  V30 12 C 1.623222 3.286418 0.635786 0
M  V30 13 C 2.605246 4.279369 0.664415 0
M  V30 14 C 2.497659 5.121570 1.748861 0
M  V30 15 N 1.551980 5.025924 2.702476 0
M  V30 16 N 0.611763 4.072379 2.669094 0
M  V30 17 C 0.640294 3.187120 1.627053 0
M  V30 18 C -0.436566 1.092095 -1.085701 0
M  V30 19 N -1.023058 1.906181 -1.984916 0
M  V30 20 C -2.170666 1.329143 -2.422922 0
M  V30 21 N -2.344604 0.132688 -1.816288 0
M  V30 22 C -3.391934 -0.864435 -1.929884 0
M  V30 23 C -3.887091 -1.320521 -0.557328 0
M  V30 24 C -2.856382 -2.136602 -2.594317 0
M  V30 25 C -1.280349 0.006015 -1.009436 0
M  V30 26 N -0.904607 -0.961778 -0.163524 0
M  V30 27 H 0.476582 -2.935983 4.412119 0
M  V30 28 H 2.241122 -3.210611 4.572153 0
M  V30 29 H 1.639753 -1.834813 3.588083 0
M  V30 30 H 2.135458 -4.630180 2.687800 0
M  V30 31 H -0.621490 -4.132154 1.793559 0
M  V30 32 H -0.536885 -4.289282 3.561049 0
M  V30 33 H 0.108526 -5.591684 2.496282 0
M  V30 34 H 1.351605 -3.598057 0.470237 0
M  V30 35 H 3.044504 -1.622029 2.166814 0
M  V30 36 H 2.878665 -1.716079 0.340026 0
M  V30 37 H 4.359579 -3.328087 2.137706 0
M  V30 38 H -0.139018 -1.790413 2.250531 0
M  V30 39 H 2.270018 2.466918 -1.240055 0
M  V30 40 H 3.351416 4.355140 -0.083518 0
M  V30 41 H 3.251479 5.914911 1.810516 0
M  V30 42 H -0.112251 2.393290 1.556524 0
M  V30 43 H -2.888845 1.716304 -3.158511 0
M  V30 44 H -4.219179 -0.474009 -2.551381 0
M  V30 45 H -3.377879 -2.270151 -0.235058 0
M  V30 46 H -4.953034 -1.618518 -0.677176 0
M  V30 47 H -3.737104 -0.584746 0.222492 0
M  V30 48 H -3.711935 -2.830104 -2.658164 0
M  V30 49 H -2.113916 -2.551872 -1.887326 0
M  V30 50 H -2.404534 -1.911641 -3.570683 0
M  V30 END ATOM
M  V30 BEGIN BOND
M  V30 1 1 1 2
M  V30 2 1 2 3
M  V30 3 1 2 4
M  V30 4 1 4 5
M  V30 5 1 5 6
M  V30 6 1 4 7
M  V30 7 1 7 8
M  V30 8 2 8 9
M  V30 9 1 9 10
M  V30 10 1 10 11
M  V30 11 1 11 12
M  V30 12 2 12 13
M  V30 13 1 13 14
M  V30 14 2 14 15
M  V30 15 1 15 16
M  V30 16 2 16 17
M  V30 17 2 10 18
M  V30 18 1 18 19
M  V30 19 2 19 20
M  V30 20 1 20 21
M  V30 21 1 21 22
M  V30 22 1 22 23
M  V30 23 1 22 24
M  V30 24 1 21 25
M  V30 25 2 25 26
M  V30 26 1 26 8
M  V30 27 1 17 12
M  V30 28 1 25 18
M  V30 29 1 1 27
M  V30 30 1 1 28
M  V30 31 1 1 29
M  V30 32 1 2 30
M  V30 33 1 3 31
M  V30 34 1 3 32
M  V30 35 1 3 33
M  V30 36 1 4 34 CFG=3
M  V30 37 1 5 35
M  V30 38 1 5 36
M  V30 39 1 6 37
M  V30 40 1 7 38
M  V30 41 1 11 39
M  V30 42 1 13 40
M  V30 43 1 14 41
M  V30 44 1 17 42
M  V30 45 1 20 43
M  V30 46 1 22 44
M  V30 47 1 23 45
M  V30 48 1 23 46
M  V30 49 1 23 47
M  V30 50 1 24 48
M  V30 51 1 24 49
M  V30 52 1 24 50
M  V30 END BOND
M  V30 END CTAB
M  END
>  <Dataset>  (82) 
ChEMBL_Kinases

>  <Ligand_Instance>  (82) 
nan

>  <PDB_ID>  (82) 
nan

>  <Standardized_SMILES>  (82) 
CC(C)[C@H](CO)Nc1nc(Nc2ccnnc2)c2ncn(C(C)C)c2n1

>  <Name>  (82) 
nan

>  <Pocket>  (82) 
nan

>  <ATP_Site>  (82) 
nan

>  <Peripheral>  (82) 
nan

>  <Num_H_Atoms_ProtBoundConf>  (82) 
nan

>  <Num_Resolved_Atoms>  (82) 
nan

>  <Num_Not_Resolved_Atoms>  (82) 
nan

$$$$
CHEMBL2314437
     RDKit          3D

  0  0  0  0  0  0  0  0  0  0999 V3000
M  V30 BEGIN CTAB
M  V30 COUNTS 47 49 0 0 0
M  V30 BEGIN ATOM
M  V30 1 C -0.506372 -4.089441 3.642058 0
M  V30 2 C 0.410353 -3.328029 2.736711 0
M  V30 3 C 1.090699 -2.147594 3.353677 0 CFG=2
M  V30 4 C 0.085417 -1.128582 3.852378 0
M  V30 5 O 0.742626 -0.004170 4.356349 0
M  V30 6 N 1.870048 -1.494774 2.310089 0
M  V30 7 C 1.334290 -0.954655 1.121612 0
M  V30 8 N 2.171886 -0.327929 0.253470 0
M  V30 9 C 1.771001 0.216220 -0.894421 0
M  V30 10 N 2.713326 0.873306 -1.773209 0
M  V30 11 C 2.932136 2.042617 -0.961174 0
M  V30 12 C 2.349504 3.278547 -0.804326 0
M  V30 13 C 2.883847 4.124882 0.135412 0
M  V30 14 N 3.931695 3.820341 0.902455 0
M  V30 15 N 4.537917 2.633038 0.792918 0
M  V30 16 C 4.034209 1.760499 -0.134372 0
M  V30 17 C 0.460648 0.170245 -1.271499 0
M  V30 18 N -0.307003 0.562086 -2.289717 0
M  V30 19 C -1.594155 0.175834 -2.042461 0
M  V30 20 N -1.689582 -0.473129 -0.860179 0
M  V30 21 C -2.816241 -1.053926 -0.194745 0
M  V30 22 C -3.739265 -0.034315 0.419966 0
M  V30 23 C -3.607680 -2.023815 -1.045083 0
M  V30 24 C -0.398464 -0.456463 -0.412368 0
M  V30 25 N 0.065139 -0.981087 0.725512 0
M  V30 26 H -1.459027 -4.347673 3.081467 0
M  V30 27 H -0.098193 -5.110978 3.900570 0
M  V30 28 H -0.840504 -3.555538 4.535831 0
M  V30 29 H 1.213133 -4.050529 2.413752 0
M  V30 30 H -0.187008 -3.000045 1.871455 0
M  V30 31 H 1.770365 -2.453268 4.174328 0
M  V30 32 H -0.556622 -0.813113 3.004002 0
M  V30 33 H -0.585537 -1.545555 4.635539 0
M  V30 34 H 0.347816 0.823515 4.025163 0
M  V30 35 H 2.911144 -1.428777 2.459427 0
M  V30 36 H 3.130876 0.615369 -2.713064 0
M  V30 37 H 1.530708 3.339632 -1.498586 0
M  V30 38 H 2.351667 5.072798 0.180179 0
M  V30 39 H 4.638551 0.848640 -0.088754 0
M  V30 40 H -2.445918 0.362138 -2.715057 0
M  V30 41 H -2.433366 -1.666855 0.659345 0
M  V30 42 H -4.763894 -0.426312 0.459306 0
M  V30 43 H -3.728377 0.934969 -0.104760 0
M  V30 44 H -3.451205 0.184726 1.484889 0
M  V30 45 H -3.119437 -3.033992 -0.988704 0
M  V30 46 H -4.591122 -2.185263 -0.509025 0
M  V30 47 H -3.769943 -1.667864 -2.064759 0
M  V30 END ATOM
M  V30 BEGIN BOND
M  V30 1 1 1 2
M  V30 2 1 2 3
M  V30 3 1 3 4
M  V30 4 1 4 5
M  V30 5 1 3 6
M  V30 6 1 6 7
M  V30 7 2 7 8
M  V30 8 1 8 9
M  V30 9 1 9 10
M  V30 10 1 10 11
M  V30 11 2 11 12
M  V30 12 1 12 13
M  V30 13 2 13 14
M  V30 14 1 14 15
M  V30 15 2 15 16
M  V30 16 2 9 17
M  V30 17 1 17 18
M  V30 18 2 18 19
M  V30 19 1 19 20
M  V30 20 1 20 21
M  V30 21 1 21 22
M  V30 22 1 21 23
M  V30 23 1 20 24
M  V30 24 2 24 25
M  V30 25 1 25 7
M  V30 26 1 16 11
M  V30 27 1 24 17
M  V30 28 1 1 26
M  V30 29 1 1 27
M  V30 30 1 1 28
M  V30 31 1 2 29
M  V30 32 1 2 30
M  V30 33 1 3 31 CFG=1
M  V30 34 1 4 32
M  V30 35 1 4 33
M  V30 36 1 5 34
M  V30 37 1 6 35
M  V30 38 1 10 36
M  V30 39 1 12 37
M  V30 40 1 13 38
M  V30 41 1 16 39
M  V30 42 1 19 40
M  V30 43 1 21 41
M  V30 44 1 22 42
M  V30 45 1 22 43
M  V30 46 1 22 44
M  V30 47 1 23 45
M  V30 48 1 23 46
M  V30 49 1 23 47
M  V30 END BOND
M  V30 END CTAB
M  END
>  <Dataset>  (83) 
ChEMBL_Kinases

>  <Ligand_Instance>  (83) 
nan

>  <PDB_ID>  (83) 
nan

>  <Standardized_SMILES>  (83) 
CC[C@H](CO)Nc1nc(Nc2ccnnc2)c2ncn(C(C)C)c2n1

>  <Name>  (83) 
nan

>  <Pocket>  (83) 
nan

>  <ATP_Site>  (83) 
nan

>  <Peripheral>  (83) 
nan

>  <Num_H_Atoms_ProtBoundConf>  (83) 
nan

>  <Num_Resolved_Atoms>  (83) 
nan

>  <Num_Not_Resolved_Atoms>  (83) 
nan

$$$$
CHEMBL2314438
     RDKit          3D

  0  0  0  0  0  0  0  0  0  0999 V3000
M  V30 BEGIN CTAB
M  V30 COUNTS 32 34 0 0 0
M  V30 BEGIN ATOM
M  V30 1 C -1.541653 -3.114134 3.326433 0
M  V30 2 C -0.435921 -3.450361 2.319167 0
M  V30 3 C -1.080446 -4.269505 1.241113 0
M  V30 4 N 0.178738 -2.239776 1.813150 0
M  V30 5 C 0.543963 -1.265219 2.661959 0
M  V30 6 N 1.085724 -0.259976 1.937231 0
M  V30 7 C 1.068909 -0.582787 0.645842 0
M  V30 8 C 1.473881 0.028899 -0.525610 0
M  V30 9 N 2.058827 1.318275 -0.389000 0
M  V30 10 C 1.199764 2.452032 -0.443511 0
M  V30 11 C -0.163676 2.331262 -0.622616 0
M  V30 12 C -0.988899 3.435004 -0.674517 0
M  V30 13 N -0.449673 4.639086 -0.548175 0
M  V30 14 N 0.836787 4.785764 -0.377633 0
M  V30 15 C 1.675105 3.740665 -0.321253 0
M  V30 16 N 1.292463 -0.623954 -1.707154 0
M  V30 17 C 0.726518 -1.848432 -1.735242 0
M  V30 18 Cl 0.590079 -2.503628 -3.364960 0
M  V30 19 N 0.320716 -2.467697 -0.590135 0
M  V30 20 C 0.495680 -1.833855 0.568488 0
M  V30 21 H -1.124701 -2.326718 3.979111 0
M  V30 22 H -1.820724 -4.027707 3.857194 0
M  V30 23 H -2.384841 -2.708074 2.696555 0
M  V30 24 H 0.363858 -4.019976 2.849401 0
M  V30 25 H -1.729929 -5.026668 1.760020 0
M  V30 26 H -1.791533 -3.623740 0.698732 0
M  V30 27 H -0.362760 -4.786577 0.598101 0
M  V30 28 H 0.514235 -1.092185 3.729828 0
M  V30 29 H 3.077923 1.494852 -0.250815 0
M  V30 30 H -0.619033 1.349415 -0.727676 0
M  V30 31 H -2.051126 3.273904 -0.817277 0
M  V30 32 H 2.739631 3.877514 -0.179376 0
M  V30 END ATOM
M  V30 BEGIN BOND
M  V30 1 1 1 2
M  V30 2 1 2 3
M  V30 3 1 2 4
M  V30 4 1 4 5
M  V30 5 2 5 6
M  V30 6 1 6 7
M  V30 7 2 7 8
M  V30 8 1 8 9
M  V30 9 1 9 10
M  V30 10 2 10 11
M  V30 11 1 11 12
M  V30 12 2 12 13
M  V30 13 1 13 14
M  V30 14 2 14 15
M  V30 15 1 8 16
M  V30 16 2 16 17
M  V30 17 1 17 18
M  V30 18 1 17 19
M  V30 19 2 19 20
M  V30 20 1 20 4
M  V30 21 1 20 7
M  V30 22 1 15 10
M  V30 23 1 1 21
M  V30 24 1 1 22
M  V30 25 1 1 23
M  V30 26 1 2 24
M  V30 27 1 3 25
M  V30 28 1 3 26
M  V30 29 1 3 27
M  V30 30 1 5 28
M  V30 31 1 9 29
M  V30 32 1 11 30
M  V30 33 1 12 31
M  V30 34 1 15 32
M  V30 END BOND
M  V30 END CTAB
M  END
>  <Dataset>  (84) 
ChEMBL_Kinases

>  <Ligand_Instance>  (84) 
nan

>  <PDB_ID>  (84) 
nan

>  <Standardized_SMILES>  (84) 
CC(C)n1cnc2c(Nc3ccnnc3)nc(Cl)nc21

>  <Name>  (84) 
nan

>  <Pocket>  (84) 
nan

>  <ATP_Site>  (84) 
nan

>  <Peripheral>  (84) 
nan

>  <Num_H_Atoms_ProtBoundConf>  (84) 
nan

>  <Num_Resolved_Atoms>  (84) 
nan

>  <Num_Not_Resolved_Atoms>  (84) 
nan

$$$$
CHEMBL2313920
     RDKit          3D

  0  0  0  0  0  0  0  0  0  0999 V3000
M  V30 BEGIN CTAB
M  V30 COUNTS 35 38 0 0 0
M  V30 BEGIN ATOM
M  V30 1 C -0.488106 -5.493627 2.908365 0
M  V30 2 O 0.842867 -5.001230 2.980259 0
M  V30 3 C 1.273201 -3.870343 2.339658 0
M  V30 4 C 2.530309 -3.324971 2.355472 0
M  V30 5 C 2.908445 -2.200443 1.703360 0
M  V30 6 C 1.993187 -1.470092 0.920777 0
M  V30 7 C 0.774602 -2.013230 0.914364 0
M  V30 8 C 0.352744 -3.176259 1.579737 0
M  V30 9 S -0.150501 -0.951034 -0.088476 0
M  V30 10 C 1.128372 0.169920 -0.451752 0
M  V30 11 C 1.137521 1.349601 -1.234262 0
M  V30 12 N -0.100145 1.703253 -1.877170 0
M  V30 13 C -1.199865 2.108297 -1.064700 0
M  V30 14 C -1.063230 2.147721 0.306473 0
M  V30 15 C -2.102084 2.516317 1.144946 0
M  V30 16 C -3.290717 2.844342 0.522792 0
M  V30 17 Cl -4.664692 3.320066 1.517172 0
M  V30 18 C -3.522424 2.834692 -0.851901 0
M  V30 19 C -2.423910 2.451265 -1.628624 0
M  V30 20 Cl -2.587447 2.401177 -3.372823 0
M  V30 21 N 2.305799 2.053788 -1.336101 0
M  V30 22 C 3.340115 1.510306 -0.652151 0
M  V30 23 N 3.330759 0.408599 0.076097 0
M  V30 24 C 2.179112 -0.342453 0.217378 0
M  V30 25 H -1.212495 -4.768099 3.343481 0
M  V30 26 H -0.594389 -6.436740 3.472006 0
M  V30 27 H -0.773135 -5.637117 1.855457 0
M  V30 28 H 3.269132 -3.880949 2.963745 0
M  V30 29 H 3.956890 -1.901664 1.822882 0
M  V30 30 H -0.669989 -3.513094 1.495945 0
M  V30 31 H -0.232023 1.682112 -2.908805 0
M  V30 32 H -0.152629 1.896686 0.829522 0
M  V30 33 H -2.001643 2.546080 2.217305 0
M  V30 34 H -4.485262 3.104121 -1.269027 0
M  V30 35 H 4.285790 2.061549 -0.722110 0
M  V30 END ATOM
M  V30 BEGIN BOND
M  V30 1 1 1 2
M  V30 2 1 2 3
M  V30 3 2 3 4
M  V30 4 1 4 5
M  V30 5 2 5 6
M  V30 6 1 6 7
M  V30 7 2 7 8
M  V30 8 1 7 9
M  V30 9 1 9 10
M  V30 10 2 10 11
M  V30 11 1 11 12
M  V30 12 1 12 13
M  V30 13 2 13 14
M  V30 14 1 14 15
M  V30 15 2 15 16
M  V30 16 1 16 17
M  V30 17 1 16 18
M  V30 18 2 18 19
M  V30 19 1 19 20
M  V30 20 1 11 21
M  V30 21 2 21 22
M  V30 22 1 22 23
M  V30 23 2 23 24
M  V30 24 1 8 3
M  V30 25 1 24 10
M  V30 26 1 24 6
M  V30 27 1 19 13
M  V30 28 1 1 25
M  V30 29 1 1 26
M  V30 30 1 1 27
M  V30 31 1 4 28
M  V30 32 1 5 29
M  V30 33 1 8 30
M  V30 34 1 12 31
M  V30 35 1 14 32
M  V30 36 1 15 33
M  V30 37 1 18 34
M  V30 38 1 22 35
M  V30 END BOND
M  V30 END CTAB
M  END
>  <Dataset>  (85) 
ChEMBL_Kinases

>  <Ligand_Instance>  (85) 
nan

>  <PDB_ID>  (85) 
nan

>  <Standardized_SMILES>  (85) 
COc1ccc2c(c1)sc1c(Nc3ccc(Cl)cc3Cl)ncnc12

>  <Name>  (85) 
nan

>  <Pocket>  (85) 
nan

>  <ATP_Site>  (85) 
nan

>  <Peripheral>  (85) 
nan

>  <Num_H_Atoms_ProtBoundConf>  (85) 
nan

>  <Num_Resolved_Atoms>  (85) 
nan

>  <Num_Not_Resolved_Atoms>  (85) 
nan

$$$$
CHEMBL229654
     RDKit          3D

  0  0  0  0  0  0  0  0  0  0999 V3000
M  V30 BEGIN CTAB
M  V30 COUNTS 54 58 0 0 0
M  V30 BEGIN ATOM
M  V30 1 C 3.895879 -3.462501 3.783898 0
M  V30 2 C 2.764825 -2.513037 3.595608 0
M  V30 3 C 1.966957 -2.106014 4.647091 0
M  V30 4 C 0.950304 -1.216245 4.312565 0
M  V30 5 C 0.770171 -0.783356 3.011957 0
M  V30 6 C 1.600240 -1.225974 2.004611 0
M  V30 7 C 1.394903 -0.759528 0.641566 0
M  V30 8 N 1.456700 0.487850 0.200951 0
M  V30 9 C 1.221905 0.618567 -1.108031 0
M  V30 10 C 1.147069 1.708811 -2.093097 0
M  V30 11 N -0.210861 2.152680 -2.269074 0
M  V30 12 C -1.113857 2.791834 -1.400093 0
M  V30 13 C -0.860800 3.179561 -0.105056 0
M  V30 14 C -1.736975 3.794852 0.748712 0
M  V30 15 C -2.983535 4.044595 0.256746 0
M  V30 16 C -4.001786 4.686026 1.048058 0
M  V30 17 N -3.730992 5.082699 2.384743 0
M  V30 18 O -5.158974 4.945522 0.667000 0
M  V30 19 C -3.323091 3.689901 -1.030517 0
M  V30 20 C -2.391648 3.074561 -1.831978 0
M  V30 21 N 0.992690 -0.661657 -1.526115 0
M  V30 22 C 1.095043 -1.494531 -0.479823 0
M  V30 23 C 0.912570 -2.943322 -0.550619 0
M  V30 24 C 1.817796 -3.952480 -0.297359 0
M  V30 25 C 1.419886 -5.264005 -0.428719 0
M  V30 26 C 0.142389 -5.610558 -0.806354 0
M  V30 27 N -0.203784 -6.924430 -0.922708 0
M  V30 28 C -1.463354 -7.254102 -1.294998 0
M  V30 29 C -2.371928 -6.249564 -1.549280 0
M  V30 30 N -2.034960 -4.949186 -1.435785 0
M  V30 31 C -0.782660 -4.606089 -1.065471 0
M  V30 32 C -0.390391 -3.274704 -0.935548 0
M  V30 33 N 2.577205 -2.083081 2.335150 0
M  V30 34 H 4.722809 -3.206088 3.073413 0
M  V30 35 H 4.283139 -3.404011 4.819041 0
M  V30 36 H 3.582412 -4.490091 3.510491 0
M  V30 37 H 2.205485 -2.509948 5.605356 0
M  V30 38 H 0.333888 -0.912186 5.171303 0
M  V30 39 H -0.028755 -0.102806 2.833383 0
M  V30 40 H 1.673269 1.316103 0.790297 0
M  V30 41 H 1.610708 1.365336 -3.032515 0
M  V30 42 H 1.763806 2.590142 -1.762796 0
M  V30 43 H -0.574223 1.944926 -3.249644 0
M  V30 44 H 0.122078 2.994903 0.294972 0
M  V30 45 H -1.470770 4.073176 1.758471 0
M  V30 46 H -4.148012 4.415183 3.079955 0
M  V30 47 H -3.229239 5.858155 2.888398 0
M  V30 48 H -4.319161 3.889716 -1.423280 0
M  V30 49 H -2.716288 2.813530 -2.849964 0
M  V30 50 H 2.777867 -3.592415 -0.012760 0
M  V30 51 H 2.169140 -6.022651 -0.218243 0
M  V30 52 H -1.698511 -8.298413 -1.375719 0
M  V30 53 H -3.342237 -6.604275 -1.837198 0
M  V30 54 H -1.193382 -2.564835 -1.162295 0
M  V30 END ATOM
M  V30 BEGIN BOND
M  V30 1 1 1 2
M  V30 2 2 2 3
M  V30 3 1 3 4
M  V30 4 2 4 5
M  V30 5 1 5 6
M  V30 6 1 6 7
M  V30 7 1 7 8
M  V30 8 1 8 9
M  V30 9 1 9 10
M  V30 10 1 10 11
M  V30 11 1 11 12
M  V30 12 2 12 13
M  V30 13 1 13 14
M  V30 14 2 14 15
M  V30 15 1 15 16
M  V30 16 1 16 17
M  V30 17 2 16 18
M  V30 18 1 15 19
M  V30 19 2 19 20
M  V30 20 2 9 21
M  V30 21 1 21 22
M  V30 22 1 22 23
M  V30 23 2 23 24
M  V30 24 1 24 25
M  V30 25 2 25 26
M  V30 26 1 26 27
M  V30 27 2 27 28
M  V30 28 1 28 29
M  V30 29 2 29 30
M  V30 30 1 30 31
M  V30 31 2 31 32
M  V30 32 2 6 33
M  V30 33 1 33 2
M  V30 34 2 22 7
M  V30 35 1 32 23
M  V30 36 1 20 12
M  V30 37 1 31 26
M  V30 38 1 1 34
M  V30 39 1 1 35
M  V30 40 1 1 36
M  V30 41 1 3 37
M  V30 42 1 4 38
M  V30 43 1 5 39
M  V30 44 1 8 40
M  V30 45 1 10 41
M  V30 46 1 10 42
M  V30 47 1 11 43
M  V30 48 1 13 44
M  V30 49 1 14 45
M  V30 50 1 17 46
M  V30 51 1 17 47
M  V30 52 1 19 48
M  V30 53 1 20 49
M  V30 54 1 24 50
M  V30 55 1 25 51
M  V30 56 1 28 52
M  V30 57 1 29 53
M  V30 58 1 32 54
M  V30 END BOND
M  V30 END CTAB
M  END
>  <Dataset>  (86) 
ChEMBL_Kinases

>  <Ligand_Instance>  (86) 
nan

>  <PDB_ID>  (86) 
nan

>  <Standardized_SMILES>  (86) 
Cc1cccc(-c2[nH]c(CNc3ccc(C(N)=O)cc3)nc2-c2ccc3nccnc3c2)n1

>  <Name>  (86) 
nan

>  <Pocket>  (86) 
nan

>  <ATP_Site>  (86) 
nan

>  <Peripheral>  (86) 
nan

>  <Num_H_Atoms_ProtBoundConf>  (86) 
nan

>  <Num_Resolved_Atoms>  (86) 
nan

>  <Num_Not_Resolved_Atoms>  (86) 
nan

$$$$
CHEMBL229599
     RDKit          3D

  0  0  0  0  0  0  0  0  0  0999 V3000
M  V30 BEGIN CTAB
M  V30 COUNTS 54 58 0 0 0
M  V30 BEGIN ATOM
M  V30 1 C 4.445951 -3.913249 3.179055 0
M  V30 2 C 3.363967 -2.884786 3.112366 0
M  V30 3 C 2.731167 -2.518995 4.288884 0
M  V30 4 C 1.716290 -1.556884 4.225422 0
M  V30 5 C 1.375471 -1.004678 3.015418 0
M  V30 6 C 2.027379 -1.394017 1.868376 0
M  V30 7 C 1.623630 -0.776101 0.612232 0
M  V30 8 N 1.682456 0.519022 0.300475 0
M  V30 9 C 1.239621 0.772658 -0.925991 0
M  V30 10 C 1.050016 1.971054 -1.782496 0
M  V30 11 N -0.307415 2.438300 -1.691516 0
M  V30 12 C -1.061743 2.965167 -0.627433 0
M  V30 13 C -0.601848 3.181538 0.653169 0
M  V30 14 C -1.344630 3.682950 1.683805 0
M  V30 15 C -2.652558 3.992641 1.409048 0
M  V30 16 C -3.168749 3.801676 0.159510 0
M  V30 17 C -4.549028 4.133291 -0.115093 0
M  V30 18 N -5.440744 4.671553 0.850385 0
M  V30 19 O -5.084142 3.970224 -1.250628 0
M  V30 20 C -2.383940 3.299922 -0.826300 0
M  V30 21 N 0.879796 -0.444219 -1.415917 0
M  V30 22 C 1.103253 -1.402057 -0.500196 0
M  V30 23 C 0.830435 -2.817314 -0.680552 0
M  V30 24 C 1.682327 -3.894427 -0.686805 0
M  V30 25 C 1.191782 -5.170018 -0.874442 0
M  V30 26 C -0.179152 -5.352623 -1.058061 0
M  V30 27 N -0.632838 -6.598331 -1.238001 0
M  V30 28 C -1.944617 -6.824350 -1.418401 0
M  V30 29 C -2.846703 -5.763425 -1.420244 0
M  V30 30 N -2.381473 -4.528868 -1.240087 0
M  V30 31 C -1.074426 -4.285135 -1.058339 0
M  V30 32 C -0.540910 -3.025653 -0.866895 0
M  V30 33 N 3.015605 -2.328498 1.917744 0
M  V30 34 H 4.482731 -4.506397 2.221300 0
M  V30 35 H 5.426833 -3.430940 3.333679 0
M  V30 36 H 4.173480 -4.635464 3.989531 0
M  V30 37 H 2.998607 -2.951131 5.232530 0
M  V30 38 H 1.218772 -1.266908 5.134934 0
M  V30 39 H 0.588570 -0.262164 2.984645 0
M  V30 40 H 2.033450 1.254072 0.918878 0
M  V30 41 H 1.769068 2.769196 -1.456304 0
M  V30 42 H 1.362055 1.714901 -2.803480 0
M  V30 43 H -0.801487 2.352500 -2.627701 0
M  V30 44 H 0.422083 2.950174 0.879757 0
M  V30 45 H -0.957095 3.841826 2.679304 0
M  V30 46 H -3.281420 4.392056 2.191657 0
M  V30 47 H -5.931682 5.594551 0.702051 0
M  V30 48 H -5.486500 4.009251 1.647893 0
M  V30 49 H -2.828998 3.162805 -1.802603 0
M  V30 50 H 2.702858 -3.619210 -0.537350 0
M  V30 51 H 1.886522 -5.975810 -0.871665 0
M  V30 52 H -2.412175 -7.796373 -1.572134 0
M  V30 53 H -3.915500 -5.783929 -1.551636 0
M  V30 54 H -1.323443 -2.252823 -0.883078 0
M  V30 END ATOM
M  V30 BEGIN BOND
M  V30 1 1 1 2
M  V30 2 2 2 3
M  V30 3 1 3 4
M  V30 4 2 4 5
M  V30 5 1 5 6
M  V30 6 1 6 7
M  V30 7 1 7 8
M  V30 8 1 8 9
M  V30 9 1 9 10
M  V30 10 1 10 11
M  V30 11 1 11 12
M  V30 12 2 12 13
M  V30 13 1 13 14
M  V30 14 2 14 15
M  V30 15 1 15 16
M  V30 16 1 16 17
M  V30 17 1 17 18
M  V30 18 2 17 19
M  V30 19 2 16 20
M  V30 20 2 9 21
M  V30 21 1 21 22
M  V30 22 1 22 23
M  V30 23 2 23 24
M  V30 24 1 24 25
M  V30 25 2 25 26
M  V30 26 1 26 27
M  V30 27 2 27 28
M  V30 28 1 28 29
M  V30 29 2 29 30
M  V30 30 1 30 31
M  V30 31 2 31 32
M  V30 32 2 6 33
M  V30 33 1 33 2
M  V30 34 2 22 7
M  V30 35 1 32 23
M  V30 36 1 20 12
M  V30 37 1 31 26
M  V30 38 1 1 34
M  V30 39 1 1 35
M  V30 40 1 1 36
M  V30 41 1 3 37
M  V30 42 1 4 38
M  V30 43 1 5 39
M  V30 44 1 8 40
M  V30 45 1 10 41
M  V30 46 1 10 42
M  V30 47 1 11 43
M  V30 48 1 13 44
M  V30 49 1 14 45
M  V30 50 1 15 46
M  V30 51 1 18 47
M  V30 52 1 18 48
M  V30 53 1 20 49
M  V30 54 1 24 50
M  V30 55 1 25 51
M  V30 56 1 28 52
M  V30 57 1 29 53
M  V30 58 1 32 54
M  V30 END BOND
M  V30 END CTAB
M  END
>  <Dataset>  (87) 
ChEMBL_Kinases

>  <Ligand_Instance>  (87) 
nan

>  <PDB_ID>  (87) 
nan

>  <Standardized_SMILES>  (87) 
Cc1cccc(-c2[nH]c(CNc3cccc(C(N)=O)c3)nc2-c2ccc3nccnc3c2)n1

>  <Name>  (87) 
nan

>  <Pocket>  (87) 
nan

>  <ATP_Site>  (87) 
nan

>  <Peripheral>  (87) 
nan

>  <Num_H_Atoms_ProtBoundConf>  (87) 
nan

>  <Num_Resolved_Atoms>  (87) 
nan

>  <Num_Not_Resolved_Atoms>  (87) 
nan

$$$$
CHEMBL229598
     RDKit          3D

  0  0  0  0  0  0  0  0  0  0999 V3000
M  V30 BEGIN CTAB
M  V30 COUNTS 56 60 0 0 0
M  V30 BEGIN ATOM
M  V30 1 C 3.247967 -1.266499 5.556106 0
M  V30 2 C 2.243283 -2.202748 4.907257 0
M  V30 3 C 2.576550 -2.391296 3.457039 0
M  V30 4 C 3.401353 -3.374887 2.996102 0
M  V30 5 C 3.640633 -3.455780 1.628291 0
M  V30 6 C 3.052782 -2.557027 0.763076 0
M  V30 7 C 2.211260 -1.557153 1.254828 0
M  V30 8 C 1.531735 -0.552111 0.447408 0
M  V30 9 N 1.600619 0.788322 0.403002 0
M  V30 10 C 0.760554 1.325042 -0.531502 0
M  V30 11 C 0.729830 2.806161 -0.701103 0
M  V30 12 N -0.229750 3.420924 0.194225 0
M  V30 13 C -1.628008 3.313181 0.240356 0
M  V30 14 C -2.374517 3.978956 1.218781 0
M  V30 15 C -3.743148 3.877019 1.253459 0
M  V30 16 C -4.436306 3.123589 0.337168 0
M  V30 17 C -3.731225 2.455413 -0.639783 0
M  V30 18 C -4.484819 1.663892 -1.599471 0
M  V30 19 N -3.877426 0.931486 -2.651995 0
M  V30 20 O -5.737415 1.622363 -1.496949 0
M  V30 21 C -2.376370 2.574697 -0.649605 0
M  V30 22 N 0.162809 0.246441 -1.068785 0
M  V30 23 C 0.599476 -0.891654 -0.508023 0
M  V30 24 C 0.129839 -2.219198 -0.887880 0
M  V30 25 C -0.532197 -2.948420 0.106123 0
M  V30 26 C -1.023601 -4.216749 -0.126446 0
M  V30 27 C -0.851249 -4.777489 -1.386175 0
M  V30 28 C -0.194998 -4.028925 -2.337161 0
M  V30 29 C 0.308189 -2.762899 -2.142968 0
M  V30 30 O -0.179140 -4.844587 -3.471519 0
M  V30 31 C -1.268437 -5.771357 -3.345529 0
M  V30 32 O -1.223242 -6.017161 -1.934472 0
M  V30 33 N 2.017201 -1.530317 2.598719 0
M  V30 34 H 3.064439 -1.325104 6.653967 0
M  V30 35 H 4.269664 -1.520353 5.257585 0
M  V30 36 H 3.032828 -0.244666 5.162596 0
M  V30 37 H 1.255146 -1.749212 5.005215 0
M  V30 38 H 2.236099 -3.183292 5.419989 0
M  V30 39 H 3.848285 -4.065477 3.696970 0
M  V30 40 H 4.287200 -4.219484 1.219043 0
M  V30 41 H 3.197501 -2.564644 -0.317458 0
M  V30 42 H 2.271426 1.267093 1.070061 0
M  V30 43 H 1.739291 3.196815 -0.581996 0
M  V30 44 H 0.391996 2.989459 -1.762794 0
M  V30 45 H 0.215939 4.051335 0.927229 0
M  V30 46 H -1.845911 4.575740 1.947014 0
M  V30 47 H -4.242669 4.429278 2.050390 0
M  V30 48 H -5.513147 3.065318 0.393910 0
M  V30 49 H -3.588345 0.026148 -2.180736 0
M  V30 50 H -3.741484 1.208221 -3.659467 0
M  V30 51 H -1.898137 2.031803 -1.443397 0
M  V30 52 H -0.677627 -2.533917 1.090973 0
M  V30 53 H -1.533395 -4.759154 0.664901 0
M  V30 54 H 0.819463 -2.186155 -2.892808 0
M  V30 55 H -2.219904 -5.323476 -3.658215 0
M  V30 56 H -1.067387 -6.733371 -3.822699 0
M  V30 END ATOM
M  V30 BEGIN BOND
M  V30 1 1 1 2
M  V30 2 1 2 3
M  V30 3 2 3 4
M  V30 4 1 4 5
M  V30 5 2 5 6
M  V30 6 1 6 7
M  V30 7 1 7 8
M  V30 8 1 8 9
M  V30 9 1 9 10
M  V30 10 1 10 11
M  V30 11 1 11 12
M  V30 12 1 12 13
M  V30 13 2 13 14
M  V30 14 1 14 15
M  V30 15 2 15 16
M  V30 16 1 16 17
M  V30 17 1 17 18
M  V30 18 1 18 19
M  V30 19 2 18 20
M  V30 20 2 17 21
M  V30 21 2 10 22
M  V30 22 1 22 23
M  V30 23 1 23 24
M  V30 24 2 24 25
M  V30 25 1 25 26
M  V30 26 2 26 27
M  V30 27 1 27 28
M  V30 28 2 28 29
M  V30 29 1 28 30
M  V30 30 1 30 31
M  V30 31 1 31 32
M  V30 32 2 7 33
M  V30 33 1 33 3
M  V30 34 2 23 8
M  V30 35 1 29 24
M  V30 36 1 21 13
M  V30 37 1 32 27
M  V30 38 1 1 34
M  V30 39 1 1 35
M  V30 40 1 1 36
M  V30 41 1 2 37
M  V30 42 1 2 38
M  V30 43 1 4 39
M  V30 44 1 5 40
M  V30 45 1 6 41
M  V30 46 1 9 42
M  V30 47 1 11 43
M  V30 48 1 11 44
M  V30 49 1 12 45
M  V30 50 1 14 46
M  V30 51 1 15 47
M  V30 52 1 16 48
M  V30 53 1 19 49
M  V30 54 1 19 50
M  V30 55 1 21 51
M  V30 56 1 25 52
M  V30 57 1 26 53
M  V30 58 1 29 54
M  V30 59 1 31 55
M  V30 60 1 31 56
M  V30 END BOND
M  V30 END CTAB
M  END
>  <Dataset>  (88) 
ChEMBL_Kinases

>  <Ligand_Instance>  (88) 
nan

>  <PDB_ID>  (88) 
nan

>  <Standardized_SMILES>  (88) 
CCc1cccc(-c2[nH]c(CNc3cccc(C(N)=O)c3)nc2-c2ccc3c(c2)OCO3)n1

>  <Name>  (88) 
nan

>  <Pocket>  (88) 
nan

>  <ATP_Site>  (88) 
nan

>  <Peripheral>  (88) 
nan

>  <Num_H_Atoms_ProtBoundConf>  (88) 
nan

>  <Num_Resolved_Atoms>  (88) 
nan

>  <Num_Not_Resolved_Atoms>  (88) 
nan

$$$$
CHEMBL229597
     RDKit          3D

  0  0  0  0  0  0  0  0  0  0999 V3000
M  V30 BEGIN CTAB
M  V30 COUNTS 53 57 0 0 0
M  V30 BEGIN ATOM
M  V30 1 C 4.866688 -3.194414 -1.484341 0
M  V30 2 C 4.216460 -2.940502 -0.149386 0
M  V30 3 C 4.569115 -3.730517 0.918991 0
M  V30 4 C 4.002356 -3.545702 2.185838 0
M  V30 5 C 3.086484 -2.514832 2.220123 0
M  V30 6 C 2.704958 -1.700292 1.175057 0
M  V30 7 C 1.719895 -0.639057 1.349192 0
M  V30 8 N 1.873274 0.683980 1.177060 0
M  V30 9 C 0.725118 1.383513 1.429885 0
M  V30 10 C 0.762784 2.877504 1.279969 0
M  V30 11 N 0.453653 3.226734 -0.080460 0
M  V30 12 C -0.782257 3.074182 -0.758998 0
M  V30 13 C -1.931371 2.582003 -0.182816 0
M  V30 14 C -3.137871 2.416037 -0.824763 0
M  V30 15 C -3.228307 2.763837 -2.152540 0
M  V30 16 C -4.446971 2.641405 -2.956819 0
M  V30 17 N -5.576508 2.134797 -2.267960 0
M  V30 18 O -4.618015 2.926128 -4.170196 0
M  V30 19 C -2.102741 3.260711 -2.767898 0
M  V30 20 C -0.924461 3.404968 -2.077708 0
M  V30 21 N -0.154485 0.429513 1.768977 0
M  V30 22 C 0.405909 -0.786399 1.731006 0
M  V30 23 C -0.305810 -2.016006 2.050752 0
M  V30 24 C -0.449290 -2.959641 1.038458 0
M  V30 25 C -1.114782 -4.167847 1.251206 0
M  V30 26 C -1.656049 -4.459171 2.495169 0
M  V30 27 C -1.513522 -3.519212 3.504709 0
M  V30 28 C -0.854501 -2.338698 3.269297 0
M  V30 29 O -2.142146 -4.070471 4.619784 0
M  V30 30 C -3.117967 -4.974189 4.102821 0
M  V30 31 O -2.366099 -5.547664 3.032785 0
M  V30 32 N 3.317838 -1.971841 0.001553 0
M  V30 33 H 5.668467 -2.414417 -1.575955 0
M  V30 34 H 4.136925 -2.928578 -2.278631 0
M  V30 35 H 5.273164 -4.204088 -1.560030 0
M  V30 36 H 5.308323 -4.542258 0.836825 0
M  V30 37 H 4.224187 -4.121201 3.073468 0
M  V30 38 H 2.619256 -2.339664 3.201708 0
M  V30 39 H 2.818219 1.046645 0.877475 0
M  V30 40 H 0.053776 3.349778 2.003121 0
M  V30 41 H 1.766316 3.254900 1.543319 0
M  V30 42 H 1.230416 3.646288 -0.651160 0
M  V30 43 H -1.944630 2.295108 0.856496 0
M  V30 44 H -4.019045 2.023396 -0.329887 0
M  V30 45 H -5.682365 1.547916 -1.417291 0
M  V30 46 H -6.421549 1.779884 -1.787676 0
M  V30 47 H -2.216206 3.521440 -3.809986 0
M  V30 48 H -0.099115 3.805562 -2.657130 0
M  V30 49 H -0.060223 -2.818680 0.037976 0
M  V30 50 H -1.215383 -4.893895 0.440741 0
M  V30 51 H -0.743662 -1.602924 4.061987 0
M  V30 52 H -3.438959 -5.713969 4.844838 0
M  V30 53 H -3.953225 -4.434081 3.628649 0
M  V30 END ATOM
M  V30 BEGIN BOND
M  V30 1 1 1 2
M  V30 2 2 2 3
M  V30 3 1 3 4
M  V30 4 2 4 5
M  V30 5 1 5 6
M  V30 6 1 6 7
M  V30 7 1 7 8
M  V30 8 1 8 9
M  V30 9 1 9 10
M  V30 10 1 10 11
M  V30 11 1 11 12
M  V30 12 2 12 13
M  V30 13 1 13 14
M  V30 14 2 14 15
M  V30 15 1 15 16
M  V30 16 1 16 17
M  V30 17 2 16 18
M  V30 18 1 15 19
M  V30 19 2 19 20
M  V30 20 2 9 21
M  V30 21 1 21 22
M  V30 22 1 22 23
M  V30 23 2 23 24
M  V30 24 1 24 25
M  V30 25 2 25 26
M  V30 26 1 26 27
M  V30 27 2 27 28
M  V30 28 1 27 29
M  V30 29 1 29 30
M  V30 30 1 30 31
M  V30 31 2 6 32
M  V30 32 1 32 2
M  V30 33 2 22 7
M  V30 34 1 28 23
M  V30 35 1 20 12
M  V30 36 1 31 26
M  V30 37 1 1 33
M  V30 38 1 1 34
M  V30 39 1 1 35
M  V30 40 1 3 36
M  V30 41 1 4 37
M  V30 42 1 5 38
M  V30 43 1 8 39
M  V30 44 1 10 40
M  V30 45 1 10 41
M  V30 46 1 11 42
M  V30 47 1 13 43
M  V30 48 1 14 44
M  V30 49 1 17 45
M  V30 50 1 17 46
M  V30 51 1 19 47
M  V30 52 1 20 48
M  V30 53 1 24 49
M  V30 54 1 25 50
M  V30 55 1 28 51
M  V30 56 1 30 52
M  V30 57 1 30 53
M  V30 END BOND
M  V30 END CTAB
M  END
>  <Dataset>  (89) 
ChEMBL_Kinases

>  <Ligand_Instance>  (89) 
nan

>  <PDB_ID>  (89) 
nan

>  <Standardized_SMILES>  (89) 
Cc1cccc(-c2[nH]c(CNc3ccc(C(N)=O)cc3)nc2-c2ccc3c(c2)OCO3)n1

>  <Name>  (89) 
nan

>  <Pocket>  (89) 
nan

>  <ATP_Site>  (89) 
nan

>  <Peripheral>  (89) 
nan

>  <Num_H_Atoms_ProtBoundConf>  (89) 
nan

>  <Num_Resolved_Atoms>  (89) 
nan

>  <Num_Not_Resolved_Atoms>  (89) 
nan

$$$$
CHEMBL2295960
     RDKit          3D

  0  0  0  0  0  0  0  0  0  0999 V3000
M  V30 BEGIN CTAB
M  V30 COUNTS 57 60 0 0 0
M  V30 BEGIN ATOM
M  V30 1 C 0.312572 -0.455025 3.537464 0
M  V30 2 C 0.684725 -1.905034 3.308782 0
M  V30 3 C 2.072158 -2.144165 3.840443 0
M  V30 4 C 3.057534 -1.255859 3.147667 0 CFG=1
M  V30 5 O 4.335479 -1.533398 3.703300 0
M  V30 6 N 3.115799 -1.462280 1.723463 0
M  V30 7 C 2.377106 -1.467528 0.521751 0
M  V30 8 N 2.189494 -0.235789 0.052381 0
M  V30 9 C 1.517728 0.065408 -1.089784 0
M  V30 10 N 1.349643 1.405113 -1.529931 0
M  V30 11 C 0.221809 2.208075 -1.206377 0
M  V30 12 C 0.158838 3.539280 -1.573166 0
M  V30 13 C -0.897422 4.366511 -1.299767 0
M  V30 14 C -1.948366 3.793664 -0.610996 0
M  V30 15 C -1.972543 2.473400 -0.204526 0
M  V30 16 C -3.138522 1.978876 0.516773 0
M  V30 17 N -4.177099 2.767194 0.782313 0
M  V30 18 C -5.272817 2.359250 1.443587 0
M  V30 19 C -5.304570 1.026563 1.868966 0
M  V30 20 C -4.233614 0.194218 1.601334 0
M  V30 21 N -3.178475 0.688322 0.933378 0
M  V30 22 C -0.864586 1.698392 -0.518782 0
M  V30 23 C 1.032948 -1.051768 -1.739589 0
M  V30 24 N 0.321090 -1.131671 -2.898332 0
M  V30 25 C 0.067050 -2.450728 -3.143742 0
M  V30 26 N 0.611223 -3.203437 -2.151473 0
M  V30 27 C 0.591159 -4.656149 -1.999406 0
M  V30 28 C -0.206423 -5.323568 -3.073783 0
M  V30 29 C -0.066821 -4.984058 -0.668493 0
M  V30 30 C 1.192904 -2.350318 -1.306681 0
M  V30 31 N 1.877415 -2.515054 -0.161561 0
M  V30 32 H 0.571243 0.174506 2.652337 0
M  V30 33 H -0.778216 -0.373065 3.712926 0
M  V30 34 H 0.866892 -0.034083 4.399949 0
M  V30 35 H 0.625454 -2.239854 2.278126 0
M  V30 36 H -0.061755 -2.521222 3.879528 0
M  V30 37 H 2.305599 -3.220790 3.691401 0
M  V30 38 H 2.041417 -1.871707 4.917306 0
M  V30 39 H 2.773423 -0.199204 3.370849 0
M  V30 40 H 4.748028 -0.705524 4.076941 0
M  V30 41 H 4.031033 -1.722864 1.270135 0
M  V30 42 H 2.095082 1.815259 -2.119946 0
M  V30 43 H 0.994304 3.979682 -2.114894 0
M  V30 44 H -0.922417 5.416026 -1.600271 0
M  V30 45 H -2.826059 4.412931 -0.364472 0
M  V30 46 H -6.066334 3.096236 1.603939 0
M  V30 47 H -6.249020 0.816522 2.394908 0
M  V30 48 H -4.379276 -0.799912 1.977449 0
M  V30 49 H -0.882076 0.649262 -0.196689 0
M  V30 50 H -0.487028 -2.841516 -4.005531 0
M  V30 51 H 1.634072 -5.065554 -2.000621 0
M  V30 52 H -0.650773 -6.260352 -2.628513 0
M  V30 53 H -1.039444 -4.700941 -3.397371 0
M  V30 54 H 0.435451 -5.704332 -3.918309 0
M  V30 55 H -0.506024 -5.998638 -0.665677 0
M  V30 56 H -0.775200 -4.169780 -0.433221 0
M  V30 57 H 0.738225 -4.883272 0.105595 0
M  V30 END ATOM
M  V30 BEGIN BOND
M  V30 1 1 1 2
M  V30 2 1 2 3
M  V30 3 1 3 4
M  V30 4 1 4 5
M  V30 5 1 4 6
M  V30 6 1 6 7
M  V30 7 2 7 8
M  V30 8 1 8 9
M  V30 9 1 9 10
M  V30 10 1 10 11
M  V30 11 2 11 12
M  V30 12 1 12 13
M  V30 13 2 13 14
M  V30 14 1 14 15
M  V30 15 1 15 16
M  V30 16 2 16 17
M  V30 17 1 17 18
M  V30 18 2 18 19
M  V30 19 1 19 20
M  V30 20 2 20 21
M  V30 21 2 15 22
M  V30 22 2 9 23
M  V30 23 1 23 24
M  V30 24 2 24 25
M  V30 25 1 25 26
M  V30 26 1 26 27
M  V30 27 1 27 28
M  V30 28 1 27 29
M  V30 29 1 26 30
M  V30 30 2 30 31
M  V30 31 1 31 7
M  V30 32 1 22 11
M  V30 33 1 30 23
M  V30 34 1 21 16
M  V30 35 1 1 32
M  V30 36 1 1 33
M  V30 37 1 1 34
M  V30 38 1 2 35
M  V30 39 1 2 36
M  V30 40 1 3 37
M  V30 41 1 3 38
M  V30 42 1 4 39 CFG=3
M  V30 43 1 5 40
M  V30 44 1 6 41
M  V30 45 1 10 42
M  V30 46 1 12 43
M  V30 47 1 13 44
M  V30 48 1 14 45
M  V30 49 1 18 46
M  V30 50 1 19 47
M  V30 51 1 20 48
M  V30 52 1 22 49
M  V30 53 1 25 50
M  V30 54 1 27 51
M  V30 55 1 28 52
M  V30 56 1 28 53
M  V30 57 1 28 54
M  V30 58 1 29 55
M  V30 59 1 29 56
M  V30 60 1 29 57
M  V30 END BOND
M  V30 END CTAB
M  END
>  <Dataset>  (90) 
ChEMBL_Kinases

>  <Ligand_Instance>  (90) 
nan

>  <PDB_ID>  (90) 
nan

>  <Standardized_SMILES>  (90) 
CCC[C@@H](O)Nc1nc(Nc2cccc(-c3ncccn3)c2)c2ncn(C(C)C)c2n1

>  <Name>  (90) 
nan

>  <Pocket>  (90) 
nan

>  <ATP_Site>  (90) 
nan

>  <Peripheral>  (90) 
nan

>  <Num_H_Atoms_ProtBoundConf>  (90) 
nan

>  <Num_Resolved_Atoms>  (90) 
nan

>  <Num_Not_Resolved_Atoms>  (90) 
nan

$$$$
CHEMBL2295959
     RDKit          3D

  0  0  0  0  0  0  0  0  0  0999 V3000
M  V30 BEGIN CTAB
M  V30 COUNTS 42 45 0 0 0
M  V30 BEGIN ATOM
M  V30 1 C 2.261114 -5.271339 3.238024 0
M  V30 2 C 1.048561 -4.614795 2.664331 0
M  V30 3 C 0.207539 -5.521164 1.800581 0
M  V30 4 N 1.417637 -3.382583 1.996460 0
M  V30 5 C 1.994487 -2.359845 2.616977 0
M  V30 6 N 2.202748 -1.374710 1.693405 0
M  V30 7 C 1.733846 -1.849106 0.525289 0
M  V30 8 C 1.717404 -1.221584 -0.704097 0
M  V30 9 N 2.198189 0.053123 -1.021225 0
M  V30 10 C 1.698410 1.372392 -0.951853 0
M  V30 11 C 2.424326 2.418989 -1.473008 0
M  V30 12 C 1.859115 3.688615 -1.348434 0
M  V30 13 C 0.624658 3.928818 -0.734536 0
M  V30 14 C -0.067553 2.848191 -0.226518 0
M  V30 15 C -1.354053 3.049218 0.427861 0
M  V30 16 N -2.050961 2.018414 0.924539 0
M  V30 17 C -3.238331 2.143351 1.544952 0
M  V30 18 C -3.787089 3.409599 1.686421 0
M  V30 19 C -3.071938 4.483364 1.174484 0
M  V30 20 N -1.874310 4.279715 0.558031 0
M  V30 21 C 0.479784 1.588580 -0.343269 0
M  V30 22 N 1.179961 -1.915018 -1.752195 0
M  V30 23 C 0.687132 -3.172613 -1.568173 0
M  V30 24 Cl 0.012984 -4.012799 -2.953263 0
M  V30 25 N 0.706570 -3.780402 -0.363374 0
M  V30 26 C 1.218858 -3.142457 0.679858 0
M  V30 27 H 2.295119 -6.370500 3.090979 0
M  V30 28 H 3.204712 -4.846321 2.794273 0
M  V30 29 H 2.384420 -5.101712 4.339686 0
M  V30 30 H 0.387020 -4.367637 3.546421 0
M  V30 31 H 0.743245 -5.971518 0.963212 0
M  V30 32 H -0.652445 -4.908500 1.433318 0
M  V30 33 H -0.255999 -6.279715 2.493506 0
M  V30 34 H 2.253499 -2.317194 3.674816 0
M  V30 35 H 3.149060 -0.174868 -1.376495 0
M  V30 36 H 3.369819 2.266729 -1.947400 0
M  V30 37 H 2.470568 4.481555 -1.774230 0
M  V30 38 H 0.270925 4.949324 -0.685585 0
M  V30 39 H -3.805950 1.307459 1.949132 0
M  V30 40 H -4.737102 3.622776 2.168843 0
M  V30 41 H -3.376751 5.518244 1.213303 0
M  V30 42 H -0.064333 0.735378 0.056667 0
M  V30 END ATOM
M  V30 BEGIN BOND
M  V30 1 1 1 2
M  V30 2 1 2 3
M  V30 3 1 2 4
M  V30 4 1 4 5
M  V30 5 2 5 6
M  V30 6 1 6 7
M  V30 7 2 7 8
M  V30 8 1 8 9
M  V30 9 1 9 10
M  V30 10 2 10 11
M  V30 11 1 11 12
M  V30 12 2 12 13
M  V30 13 1 13 14
M  V30 14 1 14 15
M  V30 15 2 15 16
M  V30 16 1 16 17
M  V30 17 2 17 18
M  V30 18 1 18 19
M  V30 19 2 19 20
M  V30 20 2 14 21
M  V30 21 1 8 22
M  V30 22 2 22 23
M  V30 23 1 23 24
M  V30 24 1 23 25
M  V30 25 2 25 26
M  V30 26 1 26 4
M  V30 27 1 26 7
M  V30 28 1 21 10
M  V30 29 1 20 15
M  V30 30 1 1 27
M  V30 31 1 1 28
M  V30 32 1 1 29
M  V30 33 1 2 30
M  V30 34 1 3 31
M  V30 35 1 3 32
M  V30 36 1 3 33
M  V30 37 1 5 34
M  V30 38 1 9 35
M  V30 39 1 11 36
M  V30 40 1 12 37
M  V30 41 1 13 38
M  V30 42 1 17 39
M  V30 43 1 18 40
M  V30 44 1 19 41
M  V30 45 1 21 42
M  V30 END BOND
M  V30 END CTAB
M  END
>  <Dataset>  (91) 
ChEMBL_Kinases

>  <Ligand_Instance>  (91) 
nan

>  <PDB_ID>  (91) 
nan

>  <Standardized_SMILES>  (91) 
CC(C)n1cnc2c(Nc3cccc(-c4ncccn4)c3)nc(Cl)nc21

>  <Name>  (91) 
nan

>  <Pocket>  (91) 
nan

>  <ATP_Site>  (91) 
nan

>  <Peripheral>  (91) 
nan

>  <Num_H_Atoms_ProtBoundConf>  (91) 
nan

>  <Num_Resolved_Atoms>  (91) 
nan

>  <Num_Not_Resolved_Atoms>  (91) 
nan

$$$$
CHEMBL2295952
     RDKit          3D

  0  0  0  0  0  0  0  0  0  0999 V3000
M  V30 BEGIN CTAB
M  V30 COUNTS 57 60 0 0 0
M  V30 BEGIN ATOM
M  V30 1 C -0.202765 -0.580288 3.017140 0
M  V30 2 C 0.451361 -1.966757 2.913593 0
M  V30 3 C 1.812836 -1.974226 3.508419 0
M  V30 4 C 2.810153 -1.047413 2.914071 0 CFG=1
M  V30 5 O 4.008003 -1.242218 3.648501 0
M  V30 6 N 3.175906 -1.312972 1.545339 0
M  V30 7 C 2.428438 -1.399921 0.327758 0
M  V30 8 N 2.040946 -0.281319 -0.273796 0
M  V30 9 C 1.333460 -0.226760 -1.428759 0
M  V30 10 N 1.042154 1.097703 -1.847916 0
M  V30 11 C -0.158724 1.448851 -1.125592 0
M  V30 12 C -0.173611 2.790846 -0.821194 0
M  V30 13 C -1.225133 3.392124 -0.123034 0
M  V30 14 C -2.273362 2.581535 0.260916 0
M  V30 15 C -3.448526 3.005925 1.017613 0
M  V30 16 C -3.324014 4.036559 1.961803 0
M  V30 17 N -4.392731 4.443884 2.672719 0
M  V30 18 C -5.605011 3.867104 2.490299 0
M  V30 19 N -5.742143 2.882182 1.594190 0
M  V30 20 C -4.691494 2.432196 0.847487 0
M  V30 21 C -2.255267 1.237060 -0.047804 0
M  V30 22 C -1.208208 0.653666 -0.739456 0
M  V30 23 C 1.006397 -1.424422 -1.998148 0
M  V30 24 N 0.318457 -1.637520 -3.132826 0
M  V30 25 C 0.245231 -2.991272 -3.295796 0
M  V30 26 N 0.898479 -3.549687 -2.241855 0
M  V30 27 C 1.111513 -4.954262 -1.940583 0
M  V30 28 C 0.682842 -5.810053 -3.092824 0
M  V30 29 C 0.345291 -5.398105 -0.707337 0
M  V30 30 C 1.386727 -2.613789 -1.411843 0
M  V30 31 N 2.085250 -2.544424 -0.267274 0
M  V30 32 H -1.300017 -0.675253 2.968219 0
M  V30 33 H 0.123078 -0.056759 3.930578 0
M  V30 34 H 0.178240 -0.009960 2.126521 0
M  V30 35 H 0.362901 -2.308114 1.879290 0
M  V30 36 H -0.188259 -2.600561 3.604042 0
M  V30 37 H 2.236233 -3.000075 3.478568 0
M  V30 38 H 1.695120 -1.661974 4.582341 0
M  V30 39 H 2.563211 0.026232 3.080209 0
M  V30 40 H 4.558851 -0.425412 3.668052 0
M  V30 41 H 4.147252 -1.506118 1.197508 0
M  V30 42 H 1.524388 1.707767 -2.502868 0
M  V30 43 H 0.594095 3.539251 -1.071681 0
M  V30 44 H -1.288745 4.428456 0.141383 0
M  V30 45 H -2.369413 4.522807 2.137876 0
M  V30 46 H -6.433724 4.249706 3.103416 0
M  V30 47 H -4.773541 1.645640 0.128180 0
M  V30 48 H -3.047255 0.527171 0.220565 0
M  V30 49 H -1.082166 -0.381083 -1.039276 0
M  V30 50 H -0.236073 -3.508509 -4.096496 0
M  V30 51 H 2.181890 -5.189184 -1.712944 0
M  V30 52 H 0.511460 -6.857622 -2.750546 0
M  V30 53 H -0.303541 -5.444539 -3.458267 0
M  V30 54 H 1.377944 -5.767954 -3.954385 0
M  V30 55 H 0.368528 -6.499562 -0.716113 0
M  V30 56 H -0.709525 -5.083342 -0.704159 0
M  V30 57 H 0.888628 -5.098988 0.227265 0
M  V30 END ATOM
M  V30 BEGIN BOND
M  V30 1 1 1 2
M  V30 2 1 2 3
M  V30 3 1 3 4
M  V30 4 1 4 5
M  V30 5 1 4 6
M  V30 6 1 6 7
M  V30 7 2 7 8
M  V30 8 1 8 9
M  V30 9 1 9 10
M  V30 10 1 10 11
M  V30 11 2 11 12
M  V30 12 1 12 13
M  V30 13 2 13 14
M  V30 14 1 14 15
M  V30 15 2 15 16
M  V30 16 1 16 17
M  V30 17 2 17 18
M  V30 18 1 18 19
M  V30 19 2 19 20
M  V30 20 1 14 21
M  V30 21 2 21 22
M  V30 22 2 9 23
M  V30 23 1 23 24
M  V30 24 2 24 25
M  V30 25 1 25 26
M  V30 26 1 26 27
M  V30 27 1 27 28
M  V30 28 1 27 29
M  V30 29 1 26 30
M  V30 30 2 30 31
M  V30 31 1 31 7
M  V30 32 1 22 11
M  V30 33 1 30 23
M  V30 34 1 20 15
M  V30 35 1 1 32
M  V30 36 1 1 33
M  V30 37 1 1 34
M  V30 38 1 2 35
M  V30 39 1 2 36
M  V30 40 1 3 37
M  V30 41 1 3 38
M  V30 42 1 4 39 CFG=3
M  V30 43 1 5 40
M  V30 44 1 6 41
M  V30 45 1 10 42
M  V30 46 1 12 43
M  V30 47 1 13 44
M  V30 48 1 16 45
M  V30 49 1 18 46
M  V30 50 1 20 47
M  V30 51 1 21 48
M  V30 52 1 22 49
M  V30 53 1 25 50
M  V30 54 1 27 51
M  V30 55 1 28 52
M  V30 56 1 28 53
M  V30 57 1 28 54
M  V30 58 1 29 55
M  V30 59 1 29 56
M  V30 60 1 29 57
M  V30 END BOND
M  V30 END CTAB
M  END
>  <Dataset>  (92) 
ChEMBL_Kinases

>  <Ligand_Instance>  (92) 
nan

>  <PDB_ID>  (92) 
nan

>  <Standardized_SMILES>  (92) 
CCC[C@@H](O)Nc1nc(Nc2ccc(-c3cncnc3)cc2)c2ncn(C(C)C)c2n1

>  <Name>  (92) 
nan

>  <Pocket>  (92) 
nan

>  <ATP_Site>  (92) 
nan

>  <Peripheral>  (92) 
nan

>  <Num_H_Atoms_ProtBoundConf>  (92) 
nan

>  <Num_Resolved_Atoms>  (92) 
nan

>  <Num_Not_Resolved_Atoms>  (92) 
nan

$$$$
CHEMBL2295947
     RDKit          3D

  0  0  0  0  0  0  0  0  0  0999 V3000
M  V30 BEGIN CTAB
M  V30 COUNTS 57 60 0 0 0
M  V30 BEGIN ATOM
M  V30 1 C 0.679981 -0.538384 3.838494 0
M  V30 2 C 1.424296 -1.834505 3.511580 0
M  V30 3 C 2.883878 -1.624960 3.718630 0
M  V30 4 C 3.475497 -0.541754 2.863122 0 CFG=1
M  V30 5 O 4.843610 -0.485412 3.207942 0
M  V30 6 N 3.482235 -0.864664 1.440172 0
M  V30 7 C 2.586777 -1.220350 0.396765 0
M  V30 8 N 1.997907 -0.191545 -0.265551 0
M  V30 9 C 1.117603 -0.451246 -1.271206 0
M  V30 10 N 0.409420 0.456925 -2.098287 0
M  V30 11 C -0.737049 1.170882 -1.660737 0
M  V30 12 C -1.038894 1.108665 -0.296186 0
M  V30 13 C -2.147653 1.809685 0.116932 0
M  V30 14 C -2.962565 2.548801 -0.691053 0
M  V30 15 C -4.110868 3.254545 -0.143655 0
M  V30 16 N -4.401226 3.234826 1.153641 0
M  V30 17 C -5.444430 3.864800 1.716511 0
M  V30 18 C -6.293282 4.596613 0.888106 0
M  V30 19 C -5.998243 4.624032 -0.474464 0
M  V30 20 N -4.931974 3.965446 -0.961199 0
M  V30 21 C -2.627383 2.579848 -2.023519 0
M  V30 22 C -1.533459 1.904935 -2.512168 0
M  V30 23 C 0.849388 -1.790749 -1.588490 0
M  V30 24 N 0.067851 -2.414711 -2.486559 0
M  V30 25 C 0.207513 -3.749546 -2.341693 0
M  V30 26 N 1.080338 -4.014420 -1.348678 0
M  V30 27 C 1.453031 -5.354687 -0.944352 0
M  V30 28 C 1.557128 -6.284076 -2.118875 0
M  V30 29 C 0.493455 -5.951061 0.057422 0
M  V30 30 C 1.464629 -2.806029 -0.896716 0
M  V30 31 N 2.313870 -2.514732 0.073596 0
M  V30 32 H 0.873338 0.203195 3.035899 0
M  V30 33 H -0.400935 -0.756608 3.945862 0
M  V30 34 H 1.114534 -0.131650 4.776889 0
M  V30 35 H 1.075604 -2.577859 4.260718 0
M  V30 36 H 1.120501 -2.189596 2.537387 0
M  V30 37 H 3.404408 -2.589144 3.527495 0
M  V30 38 H 3.047421 -1.305428 4.774348 0
M  V30 39 H 2.958493 0.399935 3.054232 0
M  V30 40 H 4.918301 0.309302 3.812322 0
M  V30 41 H 4.347463 -0.883516 0.843575 0
M  V30 42 H 0.711043 0.639336 -3.096430 0
M  V30 43 H -0.407283 0.526187 0.374772 0
M  V30 44 H -2.342164 1.729310 1.197874 0
M  V30 45 H -5.659821 3.834736 2.789952 0
M  V30 46 H -7.156281 5.135304 1.247715 0
M  V30 47 H -6.608135 5.172231 -1.206375 0
M  V30 48 H -3.231216 3.150753 -2.735899 0
M  V30 49 H -1.219417 1.890137 -3.556108 0
M  V30 50 H -0.359214 -4.387798 -2.994170 0
M  V30 51 H 2.432270 -5.271629 -0.406896 0
M  V30 52 H 1.486678 -7.334029 -1.731273 0
M  V30 53 H 0.664489 -6.146608 -2.774223 0
M  V30 54 H 2.442869 -6.119135 -2.751000 0
M  V30 55 H 0.952514 -6.840048 0.527696 0
M  V30 56 H -0.471499 -6.270912 -0.430464 0
M  V30 57 H 0.206670 -5.187386 0.807667 0
M  V30 END ATOM
M  V30 BEGIN BOND
M  V30 1 1 1 2
M  V30 2 1 2 3
M  V30 3 1 3 4
M  V30 4 1 4 5
M  V30 5 1 4 6
M  V30 6 1 6 7
M  V30 7 2 7 8
M  V30 8 1 8 9
M  V30 9 1 9 10
M  V30 10 1 10 11
M  V30 11 2 11 12
M  V30 12 1 12 13
M  V30 13 2 13 14
M  V30 14 1 14 15
M  V30 15 2 15 16
M  V30 16 1 16 17
M  V30 17 2 17 18
M  V30 18 1 18 19
M  V30 19 2 19 20
M  V30 20 1 14 21
M  V30 21 2 21 22
M  V30 22 2 9 23
M  V30 23 1 23 24
M  V30 24 2 24 25
M  V30 25 1 25 26
M  V30 26 1 26 27
M  V30 27 1 27 28
M  V30 28 1 27 29
M  V30 29 1 26 30
M  V30 30 2 30 31
M  V30 31 1 31 7
M  V30 32 1 22 11
M  V30 33 1 30 23
M  V30 34 1 20 15
M  V30 35 1 1 32
M  V30 36 1 1 33
M  V30 37 1 1 34
M  V30 38 1 2 35
M  V30 39 1 2 36
M  V30 40 1 3 37
M  V30 41 1 3 38
M  V30 42 1 4 39 CFG=3
M  V30 43 1 5 40
M  V30 44 1 6 41
M  V30 45 1 10 42
M  V30 46 1 12 43
M  V30 47 1 13 44
M  V30 48 1 17 45
M  V30 49 1 18 46
M  V30 50 1 19 47
M  V30 51 1 21 48
M  V30 52 1 22 49
M  V30 53 1 25 50
M  V30 54 1 27 51
M  V30 55 1 28 52
M  V30 56 1 28 53
M  V30 57 1 28 54
M  V30 58 1 29 55
M  V30 59 1 29 56
M  V30 60 1 29 57
M  V30 END BOND
M  V30 END CTAB
M  END
>  <Dataset>  (93) 
ChEMBL_Kinases

>  <Ligand_Instance>  (93) 
nan

>  <PDB_ID>  (93) 
nan

>  <Standardized_SMILES>  (93) 
CCC[C@@H](O)Nc1nc(Nc2ccc(-c3ncccn3)cc2)c2ncn(C(C)C)c2n1

>  <Name>  (93) 
nan

>  <Pocket>  (93) 
nan

>  <ATP_Site>  (93) 
nan

>  <Peripheral>  (93) 
nan

>  <Num_H_Atoms_ProtBoundConf>  (93) 
nan

>  <Num_Resolved_Atoms>  (93) 
nan

>  <Num_Not_Resolved_Atoms>  (93) 
nan

$$$$
CHEMBL2295944
     RDKit          3D

  0  0  0  0  0  0  0  0  0  0999 V3000
M  V30 BEGIN CTAB
M  V30 COUNTS 57 60 0 0 0
M  V30 BEGIN ATOM
M  V30 1 C 0.087575 -0.232074 3.656240 0
M  V30 2 C 0.360978 -1.687530 3.413521 0
M  V30 3 C 1.693052 -2.165352 3.920895 0
M  V30 4 C 2.848949 -1.455419 3.307930 0 CFG=2
M  V30 5 O 2.816837 -0.100770 3.550650 0
M  V30 6 N 3.084416 -1.751107 1.917218 0
M  V30 7 C 2.358783 -1.689499 0.700585 0
M  V30 8 N 2.319778 -0.444376 0.177776 0
M  V30 9 C 1.701059 -0.131704 -0.976859 0
M  V30 10 N 1.706681 1.232964 -1.447023 0
M  V30 11 C 0.565068 2.021644 -1.122843 0
M  V30 12 C 0.533989 3.383196 -1.442591 0
M  V30 13 C -0.543618 4.226975 -1.172554 0
M  V30 14 C -1.646686 3.666827 -0.547872 0
M  V30 15 C -1.648741 2.322599 -0.217956 0
M  V30 16 C -2.855337 1.824668 0.431331 0
M  V30 17 C -3.588061 2.657992 1.253564 0
M  V30 18 N -4.691917 2.142262 1.823216 0
M  V30 19 C -5.073104 0.851635 1.599768 0
M  V30 20 N -4.339307 0.038360 0.784158 0
M  V30 21 C -3.225089 0.499928 0.186739 0
M  V30 22 C -0.551866 1.525745 -0.507532 0
M  V30 23 C 1.079718 -1.170413 -1.640475 0
M  V30 24 N 0.386218 -1.169609 -2.806833 0
M  V30 25 C -0.025557 -2.452679 -3.028842 0
M  V30 26 N 0.427805 -3.203938 -1.990808 0
M  V30 27 C 0.207070 -4.628597 -1.841184 0
M  V30 28 C -0.730182 -5.123080 -2.933988 0
M  V30 29 C -0.483197 -4.972919 -0.534886 0
M  V30 30 C 1.115790 -2.459691 -1.106430 0
M  V30 31 N 1.745456 -2.705344 0.042915 0
M  V30 32 H 0.360021 0.345992 2.733252 0
M  V30 33 H -0.996293 -0.029620 3.795707 0
M  V30 34 H 0.705112 0.163153 4.474241 0
M  V30 35 H 0.353843 -1.863913 2.320884 0
M  V30 36 H -0.483405 -2.293496 3.818274 0
M  V30 37 H 1.743407 -3.249161 3.713954 0
M  V30 38 H 1.750765 -1.974589 5.028205 0
M  V30 39 H 3.765750 -1.832313 3.857364 0
M  V30 40 H 3.157917 0.455310 2.799182 0
M  V30 41 H 3.992747 -2.121647 1.538738 0
M  V30 42 H 2.470482 1.657544 -1.988877 0
M  V30 43 H 1.396177 3.807181 -1.926234 0
M  V30 44 H -0.492311 5.270454 -1.450292 0
M  V30 45 H -2.443949 4.378753 -0.369678 0
M  V30 46 H -3.246245 3.668560 1.398208 0
M  V30 47 H -5.978532 0.631222 2.143757 0
M  V30 48 H -2.668082 -0.177064 -0.454968 0
M  V30 49 H -0.563467 0.488916 -0.248851 0
M  V30 50 H -0.605147 -2.787921 -3.879993 0
M  V30 51 H 1.198918 -5.117139 -1.905967 0
M  V30 52 H -1.030103 -6.150585 -2.630013 0
M  V30 53 H -1.652725 -4.479664 -2.826997 0
M  V30 54 H -0.294214 -5.080835 -3.938014 0
M  V30 55 H -0.446044 -6.069187 -0.410202 0
M  V30 56 H -1.538427 -4.596733 -0.639273 0
M  V30 57 H -0.030741 -4.407666 0.290854 0
M  V30 END ATOM
M  V30 BEGIN BOND
M  V30 1 1 1 2
M  V30 2 1 2 3
M  V30 3 1 3 4
M  V30 4 1 4 5
M  V30 5 1 4 6
M  V30 6 1 6 7
M  V30 7 2 7 8
M  V30 8 1 8 9
M  V30 9 1 9 10
M  V30 10 1 10 11
M  V30 11 2 11 12
M  V30 12 1 12 13
M  V30 13 2 13 14
M  V30 14 1 14 15
M  V30 15 1 15 16
M  V30 16 2 16 17
M  V30 17 1 17 18
M  V30 18 2 18 19
M  V30 19 1 19 20
M  V30 20 2 20 21
M  V30 21 2 15 22
M  V30 22 2 9 23
M  V30 23 1 23 24
M  V30 24 2 24 25
M  V30 25 1 25 26
M  V30 26 1 26 27
M  V30 27 1 27 28
M  V30 28 1 27 29
M  V30 29 1 26 30
M  V30 30 2 30 31
M  V30 31 1 31 7
M  V30 32 1 22 11
M  V30 33 1 30 23
M  V30 34 1 21 16
M  V30 35 1 1 32
M  V30 36 1 1 33
M  V30 37 1 1 34
M  V30 38 1 2 35
M  V30 39 1 2 36
M  V30 40 1 3 37
M  V30 41 1 3 38
M  V30 42 1 4 39 CFG=1
M  V30 43 1 5 40
M  V30 44 1 6 41
M  V30 45 1 10 42
M  V30 46 1 12 43
M  V30 47 1 13 44
M  V30 48 1 14 45
M  V30 49 1 17 46
M  V30 50 1 19 47
M  V30 51 1 21 48
M  V30 52 1 22 49
M  V30 53 1 25 50
M  V30 54 1 27 51
M  V30 55 1 28 52
M  V30 56 1 28 53
M  V30 57 1 28 54
M  V30 58 1 29 55
M  V30 59 1 29 56
M  V30 60 1 29 57
M  V30 END BOND
M  V30 END CTAB
M  END
>  <Dataset>  (94) 
ChEMBL_Kinases

>  <Ligand_Instance>  (94) 
nan

>  <PDB_ID>  (94) 
nan

>  <Standardized_SMILES>  (94) 
CCC[C@H](O)Nc1nc(Nc2cccc(-c3cncnc3)c2)c2ncn(C(C)C)c2n1

>  <Name>  (94) 
nan

>  <Pocket>  (94) 
nan

>  <ATP_Site>  (94) 
nan

>  <Peripheral>  (94) 
nan

>  <Num_H_Atoms_ProtBoundConf>  (94) 
nan

>  <Num_Resolved_Atoms>  (94) 
nan

>  <Num_Not_Resolved_Atoms>  (94) 
nan

$$$$
CHEMBL2295943
     RDKit          3D

  0  0  0  0  0  0  0  0  0  0999 V3000
M  V30 BEGIN CTAB
M  V30 COUNTS 57 60 0 0 0
M  V30 BEGIN ATOM
M  V30 1 C 0.446978 -0.383624 3.690277 0
M  V30 2 C 0.726004 -1.851233 3.436735 0
M  V30 3 C 2.132964 -2.165420 3.862944 0
M  V30 4 C 3.112887 -1.339171 3.102511 0 CFG=1
M  V30 5 O 4.412717 -1.675938 3.562210 0
M  V30 6 N 3.026221 -1.562359 1.685138 0
M  V30 7 C 2.247737 -1.551024 0.507411 0
M  V30 8 N 2.148969 -0.308766 -0.007047 0
M  V30 9 C 1.457214 -0.028226 -1.149500 0
M  V30 10 N 1.379533 1.302301 -1.645759 0
M  V30 11 C 0.303537 2.174226 -1.309984 0
M  V30 12 C 0.288050 3.517192 -1.640474 0
M  V30 13 C -0.757135 4.371641 -1.322760 0
M  V30 14 C -1.839542 3.818472 -0.631171 0
M  V30 15 C -1.871398 2.480181 -0.277923 0
M  V30 16 C -3.016637 1.937731 0.440707 0
M  V30 17 C -3.729429 2.738082 1.336667 0
M  V30 18 N -4.808769 2.304836 2.041636 0
M  V30 19 C -5.223611 1.021893 1.869920 0
M  V30 20 N -4.568128 0.215785 1.018258 0
M  V30 21 C -3.494709 0.636859 0.313472 0
M  V30 22 C -0.791772 1.685440 -0.628192 0
M  V30 23 C 0.877318 -1.147094 -1.713364 0
M  V30 24 N 0.133916 -1.219847 -2.832972 0
M  V30 25 C -0.241665 -2.507395 -3.032464 0
M  V30 26 N 0.271204 -3.268450 -2.023085 0
M  V30 27 C 0.168816 -4.692754 -1.773642 0
M  V30 28 C -0.699695 -5.364282 -2.814162 0
M  V30 29 C -0.552742 -4.912722 -0.447875 0
M  V30 30 C 0.947024 -2.433472 -1.229889 0
M  V30 31 N 1.652581 -2.609493 -0.095648 0
M  V30 32 H 0.401385 0.197534 2.744457 0
M  V30 33 H -0.563729 -0.268713 4.149885 0
M  V30 34 H 1.209835 0.099444 4.330870 0
M  V30 35 H 0.577572 -2.175604 2.410694 0
M  V30 36 H 0.007431 -2.473956 4.049396 0
M  V30 37 H 2.336377 -3.247447 3.654221 0
M  V30 38 H 2.230546 -1.939247 4.948091 0
M  V30 39 H 2.941867 -0.245847 3.328937 0
M  V30 40 H 4.933730 -0.861227 3.790291 0
M  V30 41 H 3.908465 -1.894203 1.195073 0
M  V30 42 H 2.101557 1.699772 -2.274485 0
M  V30 43 H 1.130518 3.928640 -2.174397 0
M  V30 44 H -0.728660 5.435993 -1.604542 0
M  V30 45 H -2.689645 4.460162 -0.359671 0
M  V30 46 H -3.393168 3.758965 1.469045 0
M  V30 47 H -6.084317 0.742254 2.458154 0
M  V30 48 H -2.973043 -0.012597 -0.368635 0
M  V30 49 H -0.777332 0.629856 -0.371133 0
M  V30 50 H -0.838817 -2.936647 -3.824166 0
M  V30 51 H 1.170367 -5.178857 -1.751703 0
M  V30 52 H -0.960138 -6.365686 -2.361127 0
M  V30 53 H -1.666826 -4.809997 -2.823002 0
M  V30 54 H -0.232911 -5.483624 -3.793072 0
M  V30 55 H -0.983754 -5.927196 -0.389102 0
M  V30 56 H -1.322027 -4.114009 -0.378507 0
M  V30 57 H 0.188289 -4.714883 0.343542 0
M  V30 END ATOM
M  V30 BEGIN BOND
M  V30 1 1 1 2
M  V30 2 1 2 3
M  V30 3 1 3 4
M  V30 4 1 4 5
M  V30 5 1 4 6
M  V30 6 1 6 7
M  V30 7 2 7 8
M  V30 8 1 8 9
M  V30 9 1 9 10
M  V30 10 1 10 11
M  V30 11 2 11 12
M  V30 12 1 12 13
M  V30 13 2 13 14
M  V30 14 1 14 15
M  V30 15 1 15 16
M  V30 16 2 16 17
M  V30 17 1 17 18
M  V30 18 2 18 19
M  V30 19 1 19 20
M  V30 20 2 20 21
M  V30 21 2 15 22
M  V30 22 2 9 23
M  V30 23 1 23 24
M  V30 24 2 24 25
M  V30 25 1 25 26
M  V30 26 1 26 27
M  V30 27 1 27 28
M  V30 28 1 27 29
M  V30 29 1 26 30
M  V30 30 2 30 31
M  V30 31 1 31 7
M  V30 32 1 22 11
M  V30 33 1 30 23
M  V30 34 1 21 16
M  V30 35 1 1 32
M  V30 36 1 1 33
M  V30 37 1 1 34
M  V30 38 1 2 35
M  V30 39 1 2 36
M  V30 40 1 3 37
M  V30 41 1 3 38
M  V30 42 1 4 39 CFG=3
M  V30 43 1 5 40
M  V30 44 1 6 41
M  V30 45 1 10 42
M  V30 46 1 12 43
M  V30 47 1 13 44
M  V30 48 1 14 45
M  V30 49 1 17 46
M  V30 50 1 19 47
M  V30 51 1 21 48
M  V30 52 1 22 49
M  V30 53 1 25 50
M  V30 54 1 27 51
M  V30 55 1 28 52
M  V30 56 1 28 53
M  V30 57 1 28 54
M  V30 58 1 29 55
M  V30 59 1 29 56
M  V30 60 1 29 57
M  V30 END BOND
M  V30 END CTAB
M  END
>  <Dataset>  (95) 
ChEMBL_Kinases

>  <Ligand_Instance>  (95) 
nan

>  <PDB_ID>  (95) 
nan

>  <Standardized_SMILES>  (95) 
CCC[C@@H](O)Nc1nc(Nc2cccc(-c3cncnc3)c2)c2ncn(C(C)C)c2n1

>  <Name>  (95) 
nan

>  <Pocket>  (95) 
nan

>  <ATP_Site>  (95) 
nan

>  <Peripheral>  (95) 
nan

>  <Num_H_Atoms_ProtBoundConf>  (95) 
nan

>  <Num_Resolved_Atoms>  (95) 
nan

>  <Num_Not_Resolved_Atoms>  (95) 
nan

$$$$
CHEMBL229548
     RDKit          3D

  0  0  0  0  0  0  0  0  0  0999 V3000
M  V30 BEGIN CTAB
M  V30 COUNTS 54 58 0 0 0
M  V30 BEGIN ATOM
M  V30 1 C 2.005204 0.109022 5.253702 0
M  V30 2 C 1.775631 -1.227379 4.578881 0
M  V30 3 C 2.292451 -1.107050 3.189235 0
M  V30 4 C 3.620875 -1.448158 3.031138 0
M  V30 5 C 4.173899 -1.362135 1.768381 0
M  V30 6 C 3.375648 -0.940485 0.726903 0
M  V30 7 C 2.049843 -0.600994 0.889144 0
M  V30 8 C 1.125468 -0.149773 -0.143577 0
M  V30 9 N 0.577838 1.075724 -0.211159 0
M  V30 10 C -0.224456 1.216197 -1.253494 0
M  V30 11 C -1.096110 2.254011 -1.861026 0
M  V30 12 N -2.462331 2.184379 -1.448546 0
M  V30 13 C -3.058065 2.378921 -0.193652 0
M  V30 14 C -2.405296 2.718360 0.964392 0
M  V30 15 C -2.968455 2.909251 2.207587 0
M  V30 16 C -4.327165 2.740347 2.287744 0
M  V30 17 C -5.021769 2.911260 3.520056 0
M  V30 18 N -5.573105 3.060923 4.528629 0
M  V30 19 C -5.061973 2.399604 1.173898 0
M  V30 20 C -4.418500 2.228191 -0.028981 0
M  V30 21 N -0.169094 -0.003781 -1.872058 0
M  V30 22 C 0.643327 -0.836227 -1.209541 0
M  V30 23 C 0.909878 -2.199877 -1.611452 0
M  V30 24 C 2.051858 -2.814292 -2.028373 0
M  V30 25 C 2.077306 -4.151427 -2.366049 0
M  V30 26 C 0.921537 -4.896926 -2.283534 0
M  V30 27 N 0.977043 -6.214878 -2.623774 0
M  V30 28 C -0.138753 -6.986508 -2.557308 0
M  V30 29 C -1.318919 -6.404895 -2.139665 0
M  V30 30 N -1.348608 -5.096366 -1.807743 0
M  V30 31 C -0.256094 -4.318278 -1.867332 0
M  V30 32 C -0.263308 -2.961639 -1.528930 0
M  V30 33 N 1.553922 -0.702052 2.146599 0
M  V30 34 H 1.355761 0.257863 6.139664 0
M  V30 35 H 3.093466 0.159517 5.523089 0
M  V30 36 H 1.883262 0.891389 4.474068 0
M  V30 37 H 2.305240 -2.027259 5.137426 0
M  V30 38 H 0.679762 -1.465126 4.590443 0
M  V30 39 H 4.253366 -1.779904 3.844430 0
M  V30 40 H 5.211391 -1.614008 1.568098 0
M  V30 41 H 3.767112 -0.859241 -0.260586 0
M  V30 42 H 0.727104 1.866649 0.438496 0
M  V30 43 H -0.989618 2.223016 -2.966425 0
M  V30 44 H -0.664238 3.251661 -1.567591 0
M  V30 45 H -3.130475 1.941176 -2.242390 0
M  V30 46 H -1.340003 2.863835 0.933787 0
M  V30 47 H -2.387589 3.175348 3.072928 0
M  V30 48 H -6.132638 2.266787 1.235884 0
M  V30 49 H -5.043319 1.958940 -0.881184 0
M  V30 50 H 2.890511 -2.155130 -2.061034 0
M  V30 51 H 3.020940 -4.567201 -2.687732 0
M  V30 52 H -0.142774 -8.046364 -2.819763 0
M  V30 53 H -2.232825 -7.003210 -2.076882 0
M  V30 54 H -1.253206 -2.625262 -1.216117 0
M  V30 END ATOM
M  V30 BEGIN BOND
M  V30 1 1 1 2
M  V30 2 1 2 3
M  V30 3 2 3 4
M  V30 4 1 4 5
M  V30 5 2 5 6
M  V30 6 1 6 7
M  V30 7 1 7 8
M  V30 8 1 8 9
M  V30 9 1 9 10
M  V30 10 1 10 11
M  V30 11 1 11 12
M  V30 12 1 12 13
M  V30 13 2 13 14
M  V30 14 1 14 15
M  V30 15 2 15 16
M  V30 16 1 16 17
M  V30 17 3 17 18
M  V30 18 1 16 19
M  V30 19 2 19 20
M  V30 20 2 10 21
M  V30 21 1 21 22
M  V30 22 1 22 23
M  V30 23 2 23 24
M  V30 24 1 24 25
M  V30 25 2 25 26
M  V30 26 1 26 27
M  V30 27 2 27 28
M  V30 28 1 28 29
M  V30 29 2 29 30
M  V30 30 1 30 31
M  V30 31 2 31 32
M  V30 32 2 7 33
M  V30 33 1 33 3
M  V30 34 2 22 8
M  V30 35 1 32 23
M  V30 36 1 20 13
M  V30 37 1 31 26
M  V30 38 1 1 34
M  V30 39 1 1 35
M  V30 40 1 1 36
M  V30 41 1 2 37
M  V30 42 1 2 38
M  V30 43 1 4 39
M  V30 44 1 5 40
M  V30 45 1 6 41
M  V30 46 1 9 42
M  V30 47 1 11 43
M  V30 48 1 11 44
M  V30 49 1 12 45
M  V30 50 1 14 46
M  V30 51 1 15 47
M  V30 52 1 19 48
M  V30 53 1 20 49
M  V30 54 1 24 50
M  V30 55 1 25 51
M  V30 56 1 28 52
M  V30 57 1 29 53
M  V30 58 1 32 54
M  V30 END BOND
M  V30 END CTAB
M  END
>  <Dataset>  (96) 
ChEMBL_Kinases

>  <Ligand_Instance>  (96) 
nan

>  <PDB_ID>  (96) 
nan

>  <Standardized_SMILES>  (96) 
CCc1cccc(-c2[nH]c(CNc3ccc(C#N)cc3)nc2-c2ccc3nccnc3c2)n1

>  <Name>  (96) 
nan

>  <Pocket>  (96) 
nan

>  <ATP_Site>  (96) 
nan

>  <Peripheral>  (96) 
nan

>  <Num_H_Atoms_ProtBoundConf>  (96) 
nan

>  <Num_Resolved_Atoms>  (96) 
nan

>  <Num_Not_Resolved_Atoms>  (96) 
nan

$$$$
CHEMBL229547
     RDKit          3D

  0  0  0  0  0  0  0  0  0  0999 V3000
M  V30 BEGIN CTAB
M  V30 COUNTS 54 58 0 0 0
M  V30 BEGIN ATOM
M  V30 1 C 1.065541 -2.695599 3.881948 0
M  V30 2 C 2.574498 -2.860918 3.858125 0
M  V30 3 C 3.072549 -2.055753 2.701894 0
M  V30 4 C 4.411409 -1.970315 2.371054 0
M  V30 5 C 4.846988 -1.218374 1.296276 0
M  V30 6 C 3.903980 -0.537729 0.539882 0
M  V30 7 C 2.563694 -0.630593 0.880831 0
M  V30 8 C 1.538964 0.068468 0.113541 0
M  V30 9 N 1.382596 1.389385 -0.089082 0
M  V30 10 C 0.293926 1.662533 -0.870973 0
M  V30 11 C 0.014798 3.097152 -1.175045 0
M  V30 12 N -0.811835 3.754782 -0.220661 0
M  V30 13 C -2.160176 3.524746 0.128450 0
M  V30 14 C -2.847082 4.242117 1.113351 0
M  V30 15 C -4.161052 3.994848 1.418024 0
M  V30 16 C -4.884117 3.019572 0.767386 0
M  V30 17 C -4.253860 2.284297 -0.211583 0
M  V30 18 C -5.008202 1.268950 -0.888325 0
M  V30 19 N -5.612695 0.436294 -1.441956 0
M  V30 20 C -2.928455 2.562209 -0.491262 0
M  V30 21 N -0.213509 0.448779 -1.140886 0
M  V30 22 C 0.515324 -0.519635 -0.562077 0
M  V30 23 C 0.166918 -1.907035 -0.708279 0
M  V30 24 C 1.131332 -2.643972 -1.349035 0
M  V30 25 C 0.974181 -4.013478 -1.585076 0
M  V30 26 C -0.170038 -4.662996 -1.173120 0
M  V30 27 N -0.411958 -5.975873 -1.354680 0
M  V30 28 C -1.529828 -6.588349 -0.947183 0
M  V30 29 C -2.484584 -5.827409 -0.305710 0
M  V30 30 N -2.261613 -4.503212 -0.112271 0
M  V30 31 C -1.130080 -3.908965 -0.530601 0
M  V30 32 C -0.979753 -2.557409 -0.295327 0
M  V30 33 N 2.204450 -1.387117 1.949401 0
M  V30 34 H 0.841889 -1.660118 3.533412 0
M  V30 35 H 0.641248 -2.851246 4.883438 0
M  V30 36 H 0.642551 -3.381323 3.130845 0
M  V30 37 H 2.822077 -3.916648 3.694280 0
M  V30 38 H 2.995068 -2.489604 4.812533 0
M  V30 39 H 5.145792 -2.504456 2.965699 0
M  V30 40 H 5.895939 -1.144054 1.027155 0
M  V30 41 H 4.168752 0.078657 -0.326100 0
M  V30 42 H 2.089072 2.046998 0.359480 0
M  V30 43 H -0.495927 3.129405 -2.167425 0
M  V30 44 H 0.952001 3.669087 -1.308221 0
M  V30 45 H -0.382589 4.550022 0.338770 0
M  V30 46 H -2.287362 5.016501 1.635850 0
M  V30 47 H -4.609824 4.604946 2.199366 0
M  V30 48 H -5.910881 2.905061 1.082365 0
M  V30 49 H -2.535049 1.937191 -1.272292 0
M  V30 50 H 2.072864 -2.266285 -1.723799 0
M  V30 51 H 1.704249 -4.626802 -2.082685 0
M  V30 52 H -1.586286 -7.650032 -1.162085 0
M  V30 53 H -3.385419 -6.340413 0.018103 0
M  V30 54 H -1.699516 -1.919743 0.202980 0
M  V30 END ATOM
M  V30 BEGIN BOND
M  V30 1 1 1 2
M  V30 2 1 2 3
M  V30 3 2 3 4
M  V30 4 1 4 5
M  V30 5 2 5 6
M  V30 6 1 6 7
M  V30 7 1 7 8
M  V30 8 1 8 9
M  V30 9 1 9 10
M  V30 10 1 10 11
M  V30 11 1 11 12
M  V30 12 1 12 13
M  V30 13 2 13 14
M  V30 14 1 14 15
M  V30 15 2 15 16
M  V30 16 1 16 17
M  V30 17 1 17 18
M  V30 18 3 18 19
M  V30 19 2 17 20
M  V30 20 2 10 21
M  V30 21 1 21 22
M  V30 22 1 22 23
M  V30 23 2 23 24
M  V30 24 1 24 25
M  V30 25 2 25 26
M  V30 26 1 26 27
M  V30 27 2 27 28
M  V30 28 1 28 29
M  V30 29 2 29 30
M  V30 30 1 30 31
M  V30 31 2 31 32
M  V30 32 2 7 33
M  V30 33 1 33 3
M  V30 34 2 22 8
M  V30 35 1 32 23
M  V30 36 1 20 13
M  V30 37 1 31 26
M  V30 38 1 1 34
M  V30 39 1 1 35
M  V30 40 1 1 36
M  V30 41 1 2 37
M  V30 42 1 2 38
M  V30 43 1 4 39
M  V30 44 1 5 40
M  V30 45 1 6 41
M  V30 46 1 9 42
M  V30 47 1 11 43
M  V30 48 1 11 44
M  V30 49 1 12 45
M  V30 50 1 14 46
M  V30 51 1 15 47
M  V30 52 1 16 48
M  V30 53 1 20 49
M  V30 54 1 24 50
M  V30 55 1 25 51
M  V30 56 1 28 52
M  V30 57 1 29 53
M  V30 58 1 32 54
M  V30 END BOND
M  V30 END CTAB
M  END
>  <Dataset>  (97) 
ChEMBL_Kinases

>  <Ligand_Instance>  (97) 
nan

>  <PDB_ID>  (97) 
nan

>  <Standardized_SMILES>  (97) 
CCc1cccc(-c2[nH]c(CNc3cccc(C#N)c3)nc2-c2ccc3nccnc3c2)n1

>  <Name>  (97) 
nan

>  <Pocket>  (97) 
nan

>  <ATP_Site>  (97) 
nan

>  <Peripheral>  (97) 
nan

>  <Num_H_Atoms_ProtBoundConf>  (97) 
nan

>  <Num_Resolved_Atoms>  (97) 
nan

>  <Num_Not_Resolved_Atoms>  (97) 
nan

$$$$
CHEMBL229546
     RDKit          3D

  0  0  0  0  0  0  0  0  0  0999 V3000
M  V30 BEGIN CTAB
M  V30 COUNTS 51 55 0 0 0
M  V30 BEGIN ATOM
M  V30 1 C 4.540126 -1.199869 3.532372 0
M  V30 2 C 3.061136 -1.290415 3.315885 0
M  V30 3 C 2.195179 -1.759682 4.288838 0
M  V30 4 C 0.823771 -1.837793 4.070914 0
M  V30 5 C 0.339733 -1.435987 2.858738 0
M  V30 6 C 1.189861 -0.968444 1.885633 0
M  V30 7 C 0.776002 -0.524550 0.581522 0
M  V30 8 N 0.916856 0.719456 0.094411 0
M  V30 9 C 0.440225 0.833028 -1.140755 0
M  V30 10 C 0.260801 1.839527 -2.216622 0
M  V30 11 N -1.020206 2.473901 -2.193296 0
M  V30 12 C -1.621707 3.325693 -1.239793 0
M  V30 13 C -1.028797 3.750164 -0.074872 0
M  V30 14 C -1.608967 4.576024 0.864822 0
M  V30 15 C -2.897708 5.004871 0.596546 0
M  V30 16 C -3.582518 5.866830 1.516503 0
M  V30 17 N -4.152391 6.554348 2.265274 0
M  V30 18 C -3.542989 4.612244 -0.555418 0
M  V30 19 C -2.903205 3.786023 -1.449827 0
M  V30 20 N -0.027014 -0.414005 -1.446644 0
M  V30 21 C 0.172485 -1.242938 -0.408213 0
M  V30 22 C -0.157238 -2.662336 -0.264677 0
M  V30 23 C -1.464517 -3.122128 -0.335750 0
M  V30 24 C -1.748885 -4.469036 -0.197108 0
M  V30 25 C -0.704162 -5.353236 0.014364 0
M  V30 26 N -0.941443 -6.689703 0.156114 0
M  V30 27 C 0.078708 -7.562280 0.363514 0
M  V30 28 C 1.394908 -7.113083 0.436783 0
M  V30 29 N 1.640888 -5.797043 0.298426 0
M  V30 30 C 0.624014 -4.935205 0.092628 0
M  V30 31 C 0.854872 -3.577819 -0.052535 0
M  V30 32 N 2.527356 -0.904188 2.129650 0
M  V30 33 H 5.072894 -1.388508 2.560360 0
M  V30 34 H 4.790402 -0.227143 3.968814 0
M  V30 35 H 4.882015 -1.996077 4.252042 0
M  V30 36 H 2.599889 -2.070732 5.236721 0
M  V30 37 H 0.185590 -2.212549 4.864594 0
M  V30 38 H -0.720415 -1.473977 2.631148 0
M  V30 39 H 1.332918 1.571204 0.524929 0
M  V30 40 H 1.009543 2.657357 -2.010399 0
M  V30 41 H 0.537601 1.437631 -3.204332 0
M  V30 42 H -1.599078 2.244246 -3.058596 0
M  V30 43 H -0.040996 3.440240 0.150623 0
M  V30 44 H -1.126584 4.892548 1.764927 0
M  V30 45 H -4.554984 4.962494 -0.743782 0
M  V30 46 H -3.463840 3.515709 -2.332180 0
M  V30 47 H -2.261474 -2.412834 -0.501237 0
M  V30 48 H -2.764523 -4.847859 -0.249523 0
M  V30 49 H -0.128230 -8.628969 0.474839 0
M  V30 50 H 2.187887 -7.834442 0.603385 0
M  V30 51 H 1.873915 -3.237417 0.004900 0
M  V30 END ATOM
M  V30 BEGIN BOND
M  V30 1 1 1 2
M  V30 2 2 2 3
M  V30 3 1 3 4
M  V30 4 2 4 5
M  V30 5 1 5 6
M  V30 6 1 6 7
M  V30 7 1 7 8
M  V30 8 1 8 9
M  V30 9 1 9 10
M  V30 10 1 10 11
M  V30 11 1 11 12
M  V30 12 2 12 13
M  V30 13 1 13 14
M  V30 14 2 14 15
M  V30 15 1 15 16
M  V30 16 3 16 17
M  V30 17 1 15 18
M  V30 18 2 18 19
M  V30 19 2 9 20
M  V30 20 1 20 21
M  V30 21 1 21 22
M  V30 22 2 22 23
M  V30 23 1 23 24
M  V30 24 2 24 25
M  V30 25 1 25 26
M  V30 26 2 26 27
M  V30 27 1 27 28
M  V30 28 2 28 29
M  V30 29 1 29 30
M  V30 30 2 30 31
M  V30 31 2 6 32
M  V30 32 1 32 2
M  V30 33 2 21 7
M  V30 34 1 31 22
M  V30 35 1 19 12
M  V30 36 1 30 25
M  V30 37 1 1 33
M  V30 38 1 1 34
M  V30 39 1 1 35
M  V30 40 1 3 36
M  V30 41 1 4 37
M  V30 42 1 5 38
M  V30 43 1 8 39
M  V30 44 1 10 40
M  V30 45 1 10 41
M  V30 46 1 11 42
M  V30 47 1 13 43
M  V30 48 1 14 44
M  V30 49 1 18 45
M  V30 50 1 19 46
M  V30 51 1 23 47
M  V30 52 1 24 48
M  V30 53 1 27 49
M  V30 54 1 28 50
M  V30 55 1 31 51
M  V30 END BOND
M  V30 END CTAB
M  END
>  <Dataset>  (98) 
ChEMBL_Kinases

>  <Ligand_Instance>  (98) 
nan

>  <PDB_ID>  (98) 
nan

>  <Standardized_SMILES>  (98) 
Cc1cccc(-c2[nH]c(CNc3ccc(C#N)cc3)nc2-c2ccc3nccnc3c2)n1

>  <Name>  (98) 
nan

>  <Pocket>  (98) 
nan

>  <ATP_Site>  (98) 
nan

>  <Peripheral>  (98) 
nan

>  <Num_H_Atoms_ProtBoundConf>  (98) 
nan

>  <Num_Resolved_Atoms>  (98) 
nan

>  <Num_Not_Resolved_Atoms>  (98) 
nan

$$$$
CHEMBL229497
     RDKit          3D

  0  0  0  0  0  0  0  0  0  0999 V3000
M  V30 BEGIN CTAB
M  V30 COUNTS 53 57 0 0 0
M  V30 BEGIN ATOM
M  V30 1 C 4.923238 -3.099610 2.710415 0
M  V30 2 C 3.590300 -3.837760 2.534645 0
M  V30 3 C 2.527036 -2.785494 2.599838 0
M  V30 4 C 1.977220 -2.467573 3.846196 0
M  V30 5 C 1.003003 -1.497840 3.881263 0
M  V30 6 C 0.602899 -0.877029 2.705519 0
M  V30 7 C 1.163860 -1.210817 1.483760 0
M  V30 8 C 0.675904 -0.500143 0.306933 0
M  V30 9 N 0.778166 0.825977 0.126652 0
M  V30 10 C 0.261313 1.246460 -1.022389 0
M  V30 11 C 0.091092 2.557801 -1.709357 0
M  V30 12 N -1.197931 3.106918 -1.440326 0
M  V30 13 C -1.789473 3.589456 -0.248030 0
M  V30 14 C -1.177489 3.655898 0.979615 0
M  V30 15 C -1.743904 4.113179 2.143714 0
M  V30 16 C -3.050275 4.547838 2.078116 0
M  V30 17 C -3.728123 5.043228 3.240275 0
M  V30 18 N -4.289429 5.436803 4.171447 0
M  V30 19 C -3.714947 4.507316 0.883578 0
M  V30 20 C -3.091238 4.042289 -0.226998 0
M  V30 21 N -0.194300 0.118814 -1.602994 0
M  V30 22 C 0.039125 -0.941288 -0.832358 0
M  V30 23 C -0.286938 -2.348918 -1.076040 0
M  V30 24 C 0.728206 -3.293195 -1.202926 0
M  V30 25 C 0.463618 -4.632475 -1.431637 0
M  V30 26 C -0.845254 -5.072154 -1.541761 0
M  V30 27 C -1.861716 -4.144861 -1.417692 0
M  V30 28 C -1.593393 -2.795986 -1.187267 0
M  V30 29 O -3.050789 -4.846838 -1.567622 0
M  V30 30 C -2.796209 -6.160058 -2.036153 0
M  V30 31 O -1.415935 -6.308912 -1.762315 0
M  V30 32 N 2.102821 -2.156315 1.508108 0
M  V30 33 H 5.773808 -3.761733 2.482556 0
M  V30 34 H 4.920916 -2.291822 1.944651 0
M  V30 35 H 4.972140 -2.696563 3.752701 0
M  V30 36 H 3.465051 -4.628053 3.274963 0
M  V30 37 H 3.595901 -4.207762 1.487981 0
M  V30 38 H 2.350522 -3.006751 4.727968 0
M  V30 39 H 0.585696 -1.259302 4.843456 0
M  V30 40 H -0.171714 -0.127551 2.849358 0
M  V30 41 H 1.223274 1.475389 0.807685 0
M  V30 42 H 0.918556 3.236558 -1.362884 0
M  V30 43 H 0.230113 2.400420 -2.779419 0
M  V30 44 H -1.828826 3.163418 -2.288251 0
M  V30 45 H -0.159213 3.335465 1.074776 0
M  V30 46 H -1.209069 4.141166 3.084482 0
M  V30 47 H -4.739717 4.851669 0.845718 0
M  V30 48 H -3.682686 4.038119 -1.149124 0
M  V30 49 H 1.773553 -3.029126 -1.129852 0
M  V30 50 H 1.279310 -5.350964 -1.527097 0
M  V30 51 H -2.405047 -2.060042 -1.088841 0
M  V30 52 H -3.415812 -6.926581 -1.530619 0
M  V30 53 H -2.991149 -6.124650 -3.146814 0
M  V30 END ATOM
M  V30 BEGIN BOND
M  V30 1 1 1 2
M  V30 2 1 2 3
M  V30 3 2 3 4
M  V30 4 1 4 5
M  V30 5 2 5 6
M  V30 6 1 6 7
M  V30 7 1 7 8
M  V30 8 1 8 9
M  V30 9 1 9 10
M  V30 10 1 10 11
M  V30 11 1 11 12
M  V30 12 1 12 13
M  V30 13 2 13 14
M  V30 14 1 14 15
M  V30 15 2 15 16
M  V30 16 1 16 17
M  V30 17 3 17 18
M  V30 18 1 16 19
M  V30 19 2 19 20
M  V30 20 2 10 21
M  V30 21 1 21 22
M  V30 22 1 22 23
M  V30 23 2 23 24
M  V30 24 1 24 25
M  V30 25 2 25 26
M  V30 26 1 26 27
M  V30 27 2 27 28
M  V30 28 1 27 29
M  V30 29 1 29 30
M  V30 30 1 30 31
M  V30 31 2 7 32
M  V30 32 1 32 3
M  V30 33 2 22 8
M  V30 34 1 28 23
M  V30 35 1 20 13
M  V30 36 1 31 26
M  V30 37 1 1 33
M  V30 38 1 1 34
M  V30 39 1 1 35
M  V30 40 1 2 36
M  V30 41 1 2 37
M  V30 42 1 4 38
M  V30 43 1 5 39
M  V30 44 1 6 40
M  V30 45 1 9 41
M  V30 46 1 11 42
M  V30 47 1 11 43
M  V30 48 1 12 44
M  V30 49 1 14 45
M  V30 50 1 15 46
M  V30 51 1 19 47
M  V30 52 1 20 48
M  V30 53 1 24 49
M  V30 54 1 25 50
M  V30 55 1 28 51
M  V30 56 1 30 52
M  V30 57 1 30 53
M  V30 END BOND
M  V30 END CTAB
M  END
>  <Dataset>  (99) 
ChEMBL_Kinases

>  <Ligand_Instance>  (99) 
nan

>  <PDB_ID>  (99) 
nan

>  <Standardized_SMILES>  (99) 
CCc1cccc(-c2[nH]c(CNc3ccc(C#N)cc3)nc2-c2ccc3c(c2)OCO3)n1

>  <Name>  (99) 
nan

>  <Pocket>  (99) 
nan

>  <ATP_Site>  (99) 
nan

>  <Peripheral>  (99) 
nan

>  <Num_H_Atoms_ProtBoundConf>  (99) 
nan

>  <Num_Resolved_Atoms>  (99) 
nan

>  <Num_Not_Resolved_Atoms>  (99) 
nan

$$$$
CHEMBL229496
     RDKit          3D

  0  0  0  0  0  0  0  0  0  0999 V3000
M  V30 BEGIN CTAB
M  V30 COUNTS 53 57 0 0 0
M  V30 BEGIN ATOM
M  V30 1 C 4.096372 -3.700434 1.459348 0
M  V30 2 C 3.527225 -3.750076 2.839495 0
M  V30 3 C 2.404066 -2.784342 2.958880 0
M  V30 4 C 1.707904 -2.639903 4.145182 0
M  V30 5 C 0.670909 -1.750732 4.261029 0
M  V30 6 C 0.344460 -0.998665 3.140850 0
M  V30 7 C 1.038313 -1.142679 1.958641 0
M  V30 8 C 0.766085 -0.404445 0.751652 0
M  V30 9 N 0.839862 0.928457 0.614840 0
M  V30 10 C 0.530380 1.338364 -0.625553 0
M  V30 11 C 0.423760 2.621157 -1.351615 0
M  V30 12 N -0.902012 3.180471 -1.378489 0
M  V30 13 C -1.727105 3.668221 -0.346339 0
M  V30 14 C -1.397032 3.730105 0.988331 0
M  V30 15 C -2.196838 4.196813 1.994985 0
M  V30 16 C -3.448029 4.647560 1.647296 0
M  V30 17 C -3.835824 4.612914 0.339259 0
M  V30 18 C -5.143951 5.083427 -0.030745 0
M  V30 19 N -6.201700 5.462242 -0.323384 0
M  V30 20 C -2.991586 4.133346 -0.632742 0
M  V30 21 N 0.251464 0.193966 -1.287675 0
M  V30 22 C 0.389341 -0.857091 -0.472195 0
M  V30 23 C 0.171199 -2.244885 -0.841554 0
M  V30 24 C 0.886830 -2.913948 -1.822874 0
M  V30 25 C 0.632587 -4.244760 -2.132646 0
M  V30 26 C -0.353801 -4.930447 -1.454959 0
M  V30 27 C -1.082156 -4.278668 -0.468456 0
M  V30 28 C -0.822393 -2.961314 -0.169756 0
M  V30 29 O -1.979620 -5.251898 0.001483 0
M  V30 30 C -2.139909 -6.215526 -1.029318 0
M  V30 31 O -0.810766 -6.254812 -1.563656 0
M  V30 32 N 2.037812 -2.023728 1.905776 0
M  V30 33 H 5.188714 -3.517107 1.503894 0
M  V30 34 H 3.889851 -4.633372 0.903389 0
M  V30 35 H 3.663783 -2.853857 0.911072 0
M  V30 36 H 4.273957 -3.474995 3.606687 0
M  V30 37 H 3.150180 -4.776607 3.051841 0
M  V30 38 H 1.958044 -3.223433 5.021182 0
M  V30 39 H 0.117818 -1.623048 5.171964 0
M  V30 40 H -0.459035 -0.268318 3.129200 0
M  V30 41 H 1.106239 1.613502 1.346162 0
M  V30 42 H 1.072086 3.391334 -0.849300 0
M  V30 43 H 0.839556 2.501760 -2.352707 0
M  V30 44 H -1.315126 3.224420 -2.356743 0
M  V30 45 H -0.421437 3.390101 1.293911 0
M  V30 46 H -1.878982 4.217653 3.015582 0
M  V30 47 H -4.106105 5.021998 2.410840 0
M  V30 48 H -3.359584 4.132369 -1.654878 0
M  V30 49 H 1.657965 -2.368181 -2.348542 0
M  V30 50 H 1.230910 -4.695986 -2.907889 0
M  V30 51 H -1.402193 -2.473508 0.602653 0
M  V30 52 H -2.494695 -7.181489 -0.673694 0
M  V30 53 H -2.811723 -5.865910 -1.832114 0
M  V30 END ATOM
M  V30 BEGIN BOND
M  V30 1 1 1 2
M  V30 2 1 2 3
M  V30 3 2 3 4
M  V30 4 1 4 5
M  V30 5 2 5 6
M  V30 6 1 6 7
M  V30 7 1 7 8
M  V30 8 1 8 9
M  V30 9 1 9 10
M  V30 10 1 10 11
M  V30 11 1 11 12
M  V30 12 1 12 13
M  V30 13 2 13 14
M  V30 14 1 14 15
M  V30 15 2 15 16
M  V30 16 1 16 17
M  V30 17 1 17 18
M  V30 18 3 18 19
M  V30 19 2 17 20
M  V30 20 2 10 21
M  V30 21 1 21 22
M  V30 22 1 22 23
M  V30 23 2 23 24
M  V30 24 1 24 25
M  V30 25 2 25 26
M  V30 26 1 26 27
M  V30 27 2 27 28
M  V30 28 1 27 29
M  V30 29 1 29 30
M  V30 30 1 30 31
M  V30 31 2 7 32
M  V30 32 1 32 3
M  V30 33 2 22 8
M  V30 34 1 28 23
M  V30 35 1 20 13
M  V30 36 1 31 26
M  V30 37 1 1 33
M  V30 38 1 1 34
M  V30 39 1 1 35
M  V30 40 1 2 36
M  V30 41 1 2 37
M  V30 42 1 4 38
M  V30 43 1 5 39
M  V30 44 1 6 40
M  V30 45 1 9 41
M  V30 46 1 11 42
M  V30 47 1 11 43
M  V30 48 1 12 44
M  V30 49 1 14 45
M  V30 50 1 15 46
M  V30 51 1 16 47
M  V30 52 1 20 48
M  V30 53 1 24 49
M  V30 54 1 25 50
M  V30 55 1 28 51
M  V30 56 1 30 52
M  V30 57 1 30 53
M  V30 END BOND
M  V30 END CTAB
M  END
>  <Dataset>  (100) 
ChEMBL_Kinases

>  <Ligand_Instance>  (100) 
nan

>  <PDB_ID>  (100) 
nan

>  <Standardized_SMILES>  (100) 
CCc1cccc(-c2[nH]c(CNc3cccc(C#N)c3)nc2-c2ccc3c(c2)OCO3)n1

>  <Name>  (100) 
nan

>  <Pocket>  (100) 
nan

>  <ATP_Site>  (100) 
nan

>  <Peripheral>  (100) 
nan

>  <Num_H_Atoms_ProtBoundConf>  (100) 
nan

>  <Num_Resolved_Atoms>  (100) 
nan

>  <Num_Not_Resolved_Atoms>  (100) 
nan

$$$$
CHEMBL230597
     RDKit          3D

  0  0  0  0  0  0  0  0  0  0999 V3000
M  V30 BEGIN CTAB
M  V30 COUNTS 46 48 0 0 0
M  V30 BEGIN ATOM
M  V30 1 C -1.937623 -6.634441 0.056209 0
M  V30 2 S -1.429637 -6.260730 -1.583848 0
M  V30 3 O -2.074577 -7.231027 -2.548185 0
M  V30 4 O 0.059994 -6.545091 -1.682509 0
M  V30 5 N -1.767961 -4.626626 -2.046202 0
M  V30 6 C -1.147846 -3.584374 -1.309006 0
M  V30 7 C 0.173208 -3.515708 -0.917778 0
M  V30 8 C 0.629242 -2.427583 -0.200036 0
M  V30 9 C -0.221809 -1.382147 0.144499 0
M  V30 10 C 0.422248 -0.313451 0.902397 0
M  V30 11 C 0.232130 1.041287 0.617018 0
M  V30 12 C 0.866065 2.026822 1.363627 0
M  V30 13 C 0.620653 3.439340 1.006470 0
M  V30 14 C 1.609787 4.402723 1.205310 0
M  V30 15 C 1.382817 5.733222 0.870645 0
M  V30 16 C 0.153593 6.117813 0.328889 0
M  V30 17 C -0.806235 5.157464 0.140747 0
M  V30 18 C -0.587806 3.833774 0.470857 0
M  V30 19 C 1.707139 1.696520 2.415342 0
M  V30 20 C 1.917609 0.369039 2.724932 0
M  V30 21 C 2.796646 -0.009918 3.825190 0
M  V30 22 N 3.442457 1.005705 4.584386 0
M  V30 23 O 2.966980 -1.230398 4.081921 0
M  V30 24 C 1.279211 -0.594718 1.971889 0
M  V30 25 N 1.527017 -1.957191 2.328775 0
M  V30 26 C -1.549200 -1.450615 -0.248285 0
M  V30 27 C -2.002231 -2.540611 -0.966255 0
M  V30 28 H -1.063618 -6.529368 0.745578 0
M  V30 29 H -2.764611 -6.021354 0.418777 0
M  V30 30 H -2.314075 -7.694376 0.086514 0
M  V30 31 H -2.407222 -4.380389 -2.842182 0
M  V30 32 H 0.768165 -4.365966 -1.223850 0
M  V30 33 H 1.691402 -2.534712 0.025260 0
M  V30 34 H -0.426253 1.288370 -0.206273 0
M  V30 35 H 2.563108 4.097013 1.626714 0
M  V30 36 H 2.157131 6.495780 1.025010 0
M  V30 37 H -0.055242 7.147165 0.057273 0
M  V30 38 H -1.768544 5.432716 -0.278518 0
M  V30 39 H -1.320250 3.046339 0.337602 0
M  V30 40 H 2.188670 2.485371 2.980919 0
M  V30 41 H 4.242591 1.050120 3.918658 0
M  V30 42 H 2.719787 1.063240 5.314668 0
M  V30 43 H 0.974008 -2.749380 2.766722 0
M  V30 44 H 0.644810 -2.339374 2.743482 0
M  V30 45 H -2.139711 -0.601150 0.058762 0
M  V30 46 H -3.063723 -2.455594 -1.204215 0
M  V30 END ATOM
M  V30 BEGIN BOND
M  V30 1 1 1 2
M  V30 2 2 2 3
M  V30 3 2 2 4
M  V30 4 1 2 5
M  V30 5 1 5 6
M  V30 6 2 6 7
M  V30 7 1 7 8
M  V30 8 2 8 9
M  V30 9 1 9 10
M  V30 10 2 10 11
M  V30 11 1 11 12
M  V30 12 1 12 13
M  V30 13 2 13 14
M  V30 14 1 14 15
M  V30 15 2 15 16
M  V30 16 1 16 17
M  V30 17 2 17 18
M  V30 18 2 12 19
M  V30 19 1 19 20
M  V30 20 1 20 21
M  V30 21 1 21 22
M  V30 22 2 21 23
M  V30 23 2 20 24
M  V30 24 1 24 25
M  V30 25 1 9 26
M  V30 26 2 26 27
M  V30 27 1 27 6
M  V30 28 1 24 10
M  V30 29 1 18 13
M  V30 30 1 1 28
M  V30 31 1 1 29
M  V30 32 1 1 30
M  V30 33 1 5 31
M  V30 34 1 7 32
M  V30 35 1 8 33
M  V30 36 1 11 34
M  V30 37 1 14 35
M  V30 38 1 15 36
M  V30 39 1 16 37
M  V30 40 1 17 38
M  V30 41 1 18 39
M  V30 42 1 19 40
M  V30 43 1 22 41
M  V30 44 1 22 42
M  V30 45 1 25 43
M  V30 46 1 25 44
M  V30 47 1 26 45
M  V30 48 1 27 46
M  V30 END BOND
M  V30 END CTAB
M  END
>  <Dataset>  (101) 
ChEMBL_Kinases

>  <Ligand_Instance>  (101) 
nan

>  <PDB_ID>  (101) 
nan

>  <Standardized_SMILES>  (101) 
CS(=O)(=O)Nc1ccc(-c2cc(-c3ccccc3)cc(C(N)=O)c2N)cc1

>  <Name>  (101) 
GSK-586581A

>  <Pocket>  (101) 
nan

>  <ATP_Site>  (101) 
nan

>  <Peripheral>  (101) 
nan

>  <Num_H_Atoms_ProtBoundConf>  (101) 
nan

>  <Num_Resolved_Atoms>  (101) 
nan

>  <Num_Not_Resolved_Atoms>  (101) 
nan

$$$$
CHEMBL228699
     RDKit          3D

  0  0  0  0  0  0  0  0  0  0999 V3000
M  V30 BEGIN CTAB
M  V30 COUNTS 47 49 0 0 0
M  V30 BEGIN ATOM
M  V30 1 C -1.465690 -5.133315 1.413505 0
M  V30 2 C -0.964949 -3.737045 1.530140 0
M  V30 3 N -0.226181 -3.076661 0.626439 0
M  V30 4 C 0.100516 -1.858515 1.014009 0
M  V30 5 C 0.834606 -0.738294 0.467020 0
M  V30 6 C 0.739600 -0.247806 -0.733652 0
M  V30 7 C -0.077925 -0.610359 -1.888924 0
M  V30 8 O -0.875990 -1.555633 -1.733398 0
M  V30 9 N 0.300585 0.272250 -2.889598 0
M  V30 10 C 1.306071 1.195643 -2.494652 0
M  V30 11 C 1.944484 2.218051 -3.157163 0
M  V30 12 C 2.898104 2.987372 -2.522424 0
M  V30 13 C 3.192223 2.702328 -1.207829 0
M  V30 14 N 4.114550 3.346291 -0.336030 0
M  V30 15 C 3.377203 4.367125 0.331381 0
M  V30 16 N 3.677980 5.341417 1.301358 0
M  V30 17 O 2.136803 4.530373 0.068879 0
M  V30 18 C 2.549262 1.680958 -0.561849 0
M  V30 19 C 1.573733 0.870136 -1.157298 0
M  V30 20 C -0.505395 -1.781545 2.282800 0
M  V30 21 C -0.417084 -0.548216 3.154513 0
M  V30 22 C -1.184057 -2.950131 2.636166 0
M  V30 23 C -1.936860 -3.050183 3.901682 0
M  V30 24 C -3.351874 -2.583832 3.748798 0
M  V30 25 C -4.123894 -3.313874 2.734823 0
M  V30 26 O -3.819533 -3.006007 1.560064 0
M  V30 27 O -5.114468 -4.265452 2.493298 0
M  V30 28 H -0.568523 -5.771906 1.695194 0
M  V30 29 H -2.223340 -5.360199 2.182320 0
M  V30 30 H -1.707084 -5.433859 0.396654 0
M  V30 31 H 0.054770 -3.522982 -0.273463 0
M  V30 32 H 1.535008 -0.288767 1.199029 0
M  V30 33 H -0.165664 0.182514 -3.817141 0
M  V30 34 H 1.717619 2.445137 -4.193113 0
M  V30 35 H 3.462444 3.798223 -2.951632 0
M  V30 36 H 5.098338 3.361813 0.000526 0
M  V30 37 H 3.968040 6.338853 1.221252 0
M  V30 38 H 3.654469 5.209163 2.350057 0
M  V30 39 H 2.727586 1.403631 0.471455 0
M  V30 40 H -1.130566 -0.558653 3.970493 0
M  V30 41 H 0.615329 -0.522439 3.584895 0
M  V30 42 H -0.466111 0.315559 2.466085 0
M  V30 43 H -1.460487 -2.431638 4.696911 0
M  V30 44 H -1.946539 -4.130292 4.207120 0
M  V30 45 H -3.894369 -2.583715 4.728628 0
M  V30 46 H -3.327499 -1.485671 3.459003 0
M  V30 47 H -6.035156 -3.964118 2.145266 0
M  V30 END ATOM
M  V30 BEGIN BOND
M  V30 1 1 1 2
M  V30 2 1 2 3
M  V30 3 1 3 4
M  V30 4 1 4 5
M  V30 5 2 5 6
M  V30 6 1 6 7
M  V30 7 2 7 8
M  V30 8 1 7 9
M  V30 9 1 9 10
M  V30 10 2 10 11
M  V30 11 1 11 12
M  V30 12 2 12 13
M  V30 13 1 13 14
M  V30 14 1 14 15
M  V30 15 1 15 16
M  V30 16 2 15 17
M  V30 17 1 13 18
M  V30 18 2 18 19
M  V30 19 2 4 20
M  V30 20 1 20 21
M  V30 21 1 20 22
M  V30 22 1 22 23
M  V30 23 1 23 24
M  V30 24 1 24 25
M  V30 25 2 25 26
M  V30 26 1 25 27
M  V30 27 2 22 2
M  V30 28 1 19 6
M  V30 29 1 19 10
M  V30 30 1 1 28
M  V30 31 1 1 29
M  V30 32 1 1 30
M  V30 33 1 3 31
M  V30 34 1 5 32
M  V30 35 1 9 33
M  V30 36 1 11 34
M  V30 37 1 12 35
M  V30 38 1 14 36
M  V30 39 1 16 37
M  V30 40 1 16 38
M  V30 41 1 18 39
M  V30 42 1 21 40
M  V30 43 1 21 41
M  V30 44 1 21 42
M  V30 45 1 23 43
M  V30 46 1 23 44
M  V30 47 1 24 45
M  V30 48 1 24 46
M  V30 49 1 27 47
M  V30 END BOND
M  V30 END CTAB
M  END
>  <Dataset>  (102) 
ChEMBL_Kinases

>  <Ligand_Instance>  (102) 
nan

>  <PDB_ID>  (102) 
nan

>  <Standardized_SMILES>  (102) 
Cc1[nH]c(/C=C2\C(=O)Nc3ccc(NC(N)=O)cc32)c(C)c1CCC(=O)O

>  <Name>  (102) 
nan

>  <Pocket>  (102) 
nan

>  <ATP_Site>  (102) 
nan

>  <Peripheral>  (102) 
nan

>  <Num_H_Atoms_ProtBoundConf>  (102) 
nan

>  <Num_Resolved_Atoms>  (102) 
nan

>  <Num_Not_Resolved_Atoms>  (102) 
nan

$$$$
CHEMBL228700
     RDKit          3D

  0  0  0  0  0  0  0  0  0  0999 V3000
M  V30 BEGIN CTAB
M  V30 COUNTS 50 52 0 0 0
M  V30 BEGIN ATOM
M  V30 1 C 4.384043 -1.525446 7.620605 0
M  V30 2 N 3.150096 -0.892818 7.245508 0
M  V30 3 C 2.025678 -1.370999 8.010994 0
M  V30 4 C 2.845183 -1.036538 5.834467 0
M  V30 5 C 3.793572 -0.269661 4.939341 0
M  V30 6 N 3.374004 -0.504195 3.564647 0
M  V30 7 C 2.111801 -0.167710 3.009883 0
M  V30 8 O 1.234523 0.388567 3.719848 0
M  V30 9 C 1.809742 -0.462225 1.603467 0
M  V30 10 C 2.595812 -1.063039 0.637107 0
M  V30 11 N 1.887553 -1.117693 -0.504405 0
M  V30 12 C 0.642969 -0.570828 -0.341711 0
M  V30 13 C -0.275401 -0.565496 -1.466361 0
M  V30 14 C -1.006861 0.392522 -1.953363 0
M  V30 15 C -1.025817 1.741886 -1.406099 0
M  V30 16 O -0.352808 2.158496 -0.432441 0
M  V30 17 N -1.944936 2.499719 -2.178515 0
M  V30 18 C -2.480753 1.638325 -3.179717 0
M  V30 19 C -3.413241 1.904400 -4.174877 0
M  V30 20 C -3.783336 0.892555 -5.041083 0
M  V30 21 C -3.245470 -0.381615 -4.939930 0
M  V30 22 N -3.623580 -1.445803 -5.836338 0
M  V30 23 C -4.752203 -2.156109 -5.294940 0
M  V30 24 N -5.326208 -3.268935 -5.999994 0
M  V30 25 O -5.269395 -1.831073 -4.198190 0
M  V30 26 C -2.316401 -0.640707 -3.946178 0
M  V30 27 C -1.938747 0.363329 -3.074027 0
M  V30 28 C 0.626179 -0.180009 0.956927 0
M  V30 29 H 4.263407 -2.589856 7.907778 0
M  V30 30 H 4.814229 -1.032740 8.525729 0
M  V30 31 H 5.148532 -1.515520 6.821461 0
M  V30 32 H 2.063986 -2.473913 8.207606 0
M  V30 33 H 1.060539 -1.250167 7.436736 0
M  V30 34 H 1.854250 -0.816727 8.958245 0
M  V30 35 H 1.821416 -0.635575 5.708534 0
M  V30 36 H 2.785446 -2.109216 5.550539 0
M  V30 37 H 3.680469 0.808655 5.191563 0
M  V30 38 H 4.830330 -0.585649 5.042786 0
M  V30 39 H 4.039101 -0.965134 2.884094 0
M  V30 40 H 3.598897 -1.412038 0.815740 0
M  V30 41 H 2.316628 -1.544175 -1.364292 0
M  V30 42 H -0.390812 -1.519009 -2.012418 0
M  V30 43 H -2.153469 3.506152 -2.001115 0
M  V30 44 H -3.860615 2.894491 -4.288693 0
M  V30 45 H -4.518362 1.050430 -5.847298 0
M  V30 46 H -3.232807 -1.761906 -6.755663 0
M  V30 47 H -4.910619 -4.183955 -5.707861 0
M  V30 48 H -5.969309 -3.682023 -6.683897 0
M  V30 49 H -1.861187 -1.629421 -3.822619 0
M  V30 50 H -0.204527 0.276962 1.427688 0
M  V30 END ATOM
M  V30 BEGIN BOND
M  V30 1 1 1 2
M  V30 2 1 2 3
M  V30 3 1 2 4
M  V30 4 1 4 5
M  V30 5 1 5 6
M  V30 6 1 6 7
M  V30 7 2 7 8
M  V30 8 1 7 9
M  V30 9 2 9 10
M  V30 10 1 10 11
M  V30 11 1 11 12
M  V30 12 1 12 13
M  V30 13 2 13 14
M  V30 14 1 14 15
M  V30 15 2 15 16
M  V30 16 1 15 17
M  V30 17 1 17 18
M  V30 18 2 18 19
M  V30 19 1 19 20
M  V30 20 2 20 21
M  V30 21 1 21 22
M  V30 22 1 22 23
M  V30 23 1 23 24
M  V30 24 2 23 25
M  V30 25 1 21 26
M  V30 26 2 26 27
M  V30 27 2 12 28
M  V30 28 1 28 9
M  V30 29 1 27 14
M  V30 30 1 27 18
M  V30 31 1 1 29
M  V30 32 1 1 30
M  V30 33 1 1 31
M  V30 34 1 3 32
M  V30 35 1 3 33
M  V30 36 1 3 34
M  V30 37 1 4 35
M  V30 38 1 4 36
M  V30 39 1 5 37
M  V30 40 1 5 38
M  V30 41 1 6 39
M  V30 42 1 10 40
M  V30 43 1 11 41
M  V30 44 1 13 42
M  V30 45 1 17 43
M  V30 46 1 19 44
M  V30 47 1 20 45
M  V30 48 1 22 46
M  V30 49 1 24 47
M  V30 50 1 24 48
M  V30 51 1 26 49
M  V30 52 1 28 50
M  V30 END BOND
M  V30 END CTAB
M  END
>  <Dataset>  (103) 
ChEMBL_Kinases

>  <Ligand_Instance>  (103) 
nan

>  <PDB_ID>  (103) 
nan

>  <Standardized_SMILES>  (103) 
CN(C)CCNC(=O)c1c[nH]c(/C=C2\C(=O)Nc3ccc(NC(N)=O)cc32)c1

>  <Name>  (103) 
nan

>  <Pocket>  (103) 
nan

>  <ATP_Site>  (103) 
nan

>  <Peripheral>  (103) 
nan

>  <Num_H_Atoms_ProtBoundConf>  (103) 
nan

>  <Num_Resolved_Atoms>  (103) 
nan

>  <Num_Not_Resolved_Atoms>  (103) 
nan

$$$$
CHEMBL228705
     RDKit          3D

  0  0  0  0  0  0  0  0  0  0999 V3000
M  V30 BEGIN CTAB
M  V30 COUNTS 40 42 0 0 0
M  V30 BEGIN ATOM
M  V30 1 C -1.645664 -1.161443 -0.022819 0
M  V30 2 C -0.698447 -1.107378 1.101265 0
M  V30 3 C 0.597742 -0.904030 0.924440 0
M  V30 4 C 1.678236 -0.825960 1.908157 0
M  V30 5 O 1.587942 -0.964440 3.143101 0
M  V30 6 N 2.931900 -0.561627 1.307891 0
M  V30 7 C 2.651101 -0.469161 -0.094806 0
M  V30 8 C 3.562739 -0.216564 -1.126807 0
M  V30 9 C 3.081194 -0.165005 -2.418861 0
M  V30 10 C 1.717070 -0.361837 -2.672297 0
M  V30 11 N 1.434702 -0.261876 -4.071271 0
M  V30 12 C 1.134483 1.093739 -4.380065 0
M  V30 13 N 0.792591 1.673778 -5.650345 0
M  V30 14 O 1.153279 1.955695 -3.459729 0
M  V30 15 C 0.856104 -0.608801 -1.620695 0
M  V30 16 C 1.295935 -0.666020 -0.340309 0
M  V30 17 C -1.230313 -1.215412 2.485183 0
M  V30 18 C -1.035440 -0.324536 3.534391 0
M  V30 19 C -1.680305 -0.804388 4.664340 0
M  V30 20 C -1.711293 -0.147227 5.992470 0
M  V30 21 N -0.602115 -0.569689 6.827683 0
M  V30 22 C -2.244581 -1.983740 4.231388 0
M  V30 23 N -1.989449 -2.248222 2.935699 0
M  V30 24 H -2.658190 -1.385894 0.450608 0
M  V30 25 H -1.859655 -0.210191 -0.515430 0
M  V30 26 H -1.537647 -2.054689 -0.669476 0
M  V30 27 H 3.868033 -0.452268 1.763765 0
M  V30 28 H 4.618512 -0.066824 -0.912273 0
M  V30 29 H 3.828942 0.032841 -3.170615 0
M  V30 30 H 1.390290 -0.897232 -4.903412 0
M  V30 31 H 1.120600 1.718552 -6.659205 0
M  V30 32 H -0.058091 2.288656 -5.725726 0
M  V30 33 H -0.126415 -0.734637 -1.947806 0
M  V30 34 H -0.492012 0.619391 3.536306 0
M  V30 35 H -2.684575 -0.398716 6.466006 0
M  V30 36 H -1.647002 0.955474 5.899293 0
M  V30 37 H 0.124954 -0.966988 6.161701 0
M  V30 38 H -0.157977 0.227561 7.357200 0
M  V30 39 H -2.831700 -2.588997 4.938546 0
M  V30 40 H -2.332000 -3.090342 2.438341 0
M  V30 END ATOM
M  V30 BEGIN BOND
M  V30 1 1 1 2
M  V30 2 2 2 3
M  V30 3 1 3 4
M  V30 4 2 4 5
M  V30 5 1 4 6
M  V30 6 1 6 7
M  V30 7 2 7 8
M  V30 8 1 8 9
M  V30 9 2 9 10
M  V30 10 1 10 11
M  V30 11 1 11 12
M  V30 12 1 12 13
M  V30 13 2 12 14
M  V30 14 1 10 15
M  V30 15 2 15 16
M  V30 16 1 2 17
M  V30 17 2 17 18
M  V30 18 1 18 19
M  V30 19 1 19 20
M  V30 20 1 20 21
M  V30 21 2 19 22
M  V30 22 1 22 23
M  V30 23 1 16 3
M  V30 24 1 23 17
M  V30 25 1 16 7
M  V30 26 1 1 24
M  V30 27 1 1 25
M  V30 28 1 1 26
M  V30 29 1 6 27
M  V30 30 1 8 28
M  V30 31 1 9 29
M  V30 32 1 11 30
M  V30 33 1 13 31
M  V30 34 1 13 32
M  V30 35 1 15 33
M  V30 36 1 18 34
M  V30 37 1 20 35
M  V30 38 1 20 36
M  V30 39 1 21 37
M  V30 40 1 21 38
M  V30 41 1 22 39
M  V30 42 1 23 40
M  V30 END BOND
M  V30 END CTAB
M  END
>  <Dataset>  (104) 
ChEMBL_Kinases

>  <Ligand_Instance>  (104) 
nan

>  <PDB_ID>  (104) 
nan

>  <Standardized_SMILES>  (104) 
C/C(=C1/C(=O)Nc2ccc(NC(N)=O)cc21)c1cc(CN)c[nH]1

>  <Name>  (104) 
nan

>  <Pocket>  (104) 
nan

>  <ATP_Site>  (104) 
nan

>  <Peripheral>  (104) 
nan

>  <Num_H_Atoms_ProtBoundConf>  (104) 
nan

>  <Num_Resolved_Atoms>  (104) 
nan

>  <Num_Not_Resolved_Atoms>  (104) 
nan

$$$$
CHEMBL228749
     RDKit          3D

  0  0  0  0  0  0  0  0  0  0999 V3000
M  V30 BEGIN CTAB
M  V30 COUNTS 49 52 0 0 0
M  V30 BEGIN ATOM
M  V30 1 N 5.734337 -3.606896 -2.824537 0
M  V30 2 C 5.461866 -2.552322 -1.887218 0
M  V30 3 O 5.232686 -2.959337 -0.726958 0
M  V30 4 N 5.445997 -1.164313 -2.215374 0
M  V30 5 C 5.140962 -0.423279 -1.037205 0
M  V30 6 C 6.178083 -0.000129 -0.227348 0
M  V30 7 C 5.964726 0.721896 0.931717 0
M  V30 8 C 4.652021 1.004051 1.246535 0
M  V30 9 C 3.616618 0.582993 0.440423 0
M  V30 10 C 3.825760 -0.138238 -0.717686 0
M  V30 11 C 2.373431 1.041424 1.051564 0
M  V30 12 C 1.113088 0.878135 0.688922 0
M  V30 13 C -0.101183 1.358578 1.330241 0
M  V30 14 C -1.122279 0.411961 1.486808 0
M  V30 15 C -2.225604 0.983210 2.081961 0
M  V30 16 C -3.529211 0.440750 2.456577 0
M  V30 17 O -4.416961 1.149176 3.042571 0
M  V30 18 N -3.903117 -0.912413 2.195860 0
M  V30 19 C -5.219098 -1.216721 2.651037 0
M  V30 20 C -5.531136 -2.663133 2.334498 0
M  V30 21 C -5.453281 -2.873871 0.878585 0
M  V30 22 C -4.435144 -3.235941 0.034631 0
M  V30 23 N -4.863654 -3.299375 -1.243185 0
M  V30 24 C -6.188880 -2.972499 -1.236642 0
M  V30 25 N -6.508823 -2.723894 0.047941 0
M  V30 26 C -1.866381 2.299438 2.289502 0
M  V30 27 N -0.615596 2.479773 1.835417 0
M  V30 28 C 2.729508 1.758234 2.266974 0
M  V30 29 O 2.006063 2.321225 3.112229 0
M  V30 30 N 4.146522 1.733037 2.384191 0
M  V30 31 H 5.101797 -4.367600 -3.218465 0
M  V30 32 H 6.719393 -3.643595 -3.189552 0
M  V30 33 H 5.648432 -0.898272 -3.213840 0
M  V30 34 H 7.210424 -0.238274 -0.500986 0
M  V30 35 H 6.820471 1.022435 1.519735 0
M  V30 36 H 2.987551 -0.448590 -1.319881 0
M  V30 37 H 1.051886 0.284264 -0.244330 0
M  V30 38 H -1.201264 -0.652511 1.234332 0
M  V30 39 H -3.144556 -1.458095 1.711399 0
M  V30 40 H -5.375854 -1.033662 3.733401 0
M  V30 41 H -6.007633 -0.617342 2.124007 0
M  V30 42 H -6.528249 -2.966964 2.746234 0
M  V30 43 H -4.810122 -3.352179 2.834416 0
M  V30 44 H -3.423207 -3.437373 0.390026 0
M  V30 45 H -6.853031 -2.922898 -2.095360 0
M  V30 46 H -7.486315 -2.442635 0.353287 0
M  V30 47 H -2.418314 3.131880 2.733275 0
M  V30 48 H -0.060438 3.353524 1.829978 0
M  V30 49 H 4.720610 2.158915 3.145887 0
M  V30 END ATOM
M  V30 BEGIN BOND
M  V30 1 1 1 2
M  V30 2 2 2 3
M  V30 3 1 2 4
M  V30 4 1 4 5
M  V30 5 2 5 6
M  V30 6 1 6 7
M  V30 7 2 7 8
M  V30 8 1 8 9
M  V30 9 2 9 10
M  V30 10 1 9 11
M  V30 11 2 11 12
M  V30 12 1 12 13
M  V30 13 2 13 14
M  V30 14 1 14 15
M  V30 15 1 15 16
M  V30 16 2 16 17
M  V30 17 1 16 18
M  V30 18 1 18 19
M  V30 19 1 19 20
M  V30 20 1 20 21
M  V30 21 2 21 22
M  V30 22 1 22 23
M  V30 23 2 23 24
M  V30 24 1 24 25
M  V30 25 2 15 26
M  V30 26 1 26 27
M  V30 27 1 11 28
M  V30 28 2 28 29
M  V30 29 1 28 30
M  V30 30 1 10 5
M  V30 31 1 27 13
M  V30 32 1 30 8
M  V30 33 1 25 21
M  V30 34 1 1 31
M  V30 35 1 1 32
M  V30 36 1 4 33
M  V30 37 1 6 34
M  V30 38 1 7 35
M  V30 39 1 10 36
M  V30 40 1 12 37
M  V30 41 1 14 38
M  V30 42 1 18 39
M  V30 43 1 19 40
M  V30 44 1 19 41
M  V30 45 1 20 42
M  V30 46 1 20 43
M  V30 47 1 22 44
M  V30 48 1 24 45
M  V30 49 1 25 46
M  V30 50 1 26 47
M  V30 51 1 27 48
M  V30 52 1 30 49
M  V30 END BOND
M  V30 END CTAB
M  END
>  <Dataset>  (105) 
ChEMBL_Kinases

>  <Ligand_Instance>  (105) 
nan

>  <PDB_ID>  (105) 
nan

>  <Standardized_SMILES>  (105) 
NC(=O)Nc1ccc2c(c1)/C(=C/c1cc(C(=O)NCCc3cnc[nH]3)c[nH]1)C(=O)N2

>  <Name>  (105) 
nan

>  <Pocket>  (105) 
nan

>  <ATP_Site>  (105) 
nan

>  <Peripheral>  (105) 
nan

>  <Num_H_Atoms_ProtBoundConf>  (105) 
nan

>  <Num_Resolved_Atoms>  (105) 
nan

>  <Num_Not_Resolved_Atoms>  (105) 
nan

$$$$
CHEMBL228750
     RDKit          3D

  0  0  0  0  0  0  0  0  0  0999 V3000
M  V30 BEGIN CTAB
M  V30 COUNTS 51 54 0 0 0
M  V30 BEGIN ATOM
M  V30 1 N 5.256431 -0.498211 8.545028 0
M  V30 2 C 4.977725 -0.803817 7.169883 0
M  V30 3 O 4.098836 -1.702626 7.017426 0
M  V30 4 N 5.670938 -0.115385 6.106293 0
M  V30 5 C 5.196177 -0.625378 4.858335 0
M  V30 6 C 5.958086 -1.709417 4.434986 0
M  V30 7 C 5.607084 -2.311667 3.229997 0
M  V30 8 C 4.547363 -1.866468 2.468897 0
M  V30 9 C 3.833144 -0.787196 2.945755 0
M  V30 10 C 4.135681 -0.149379 4.134797 0
M  V30 11 C 2.750165 -0.452163 2.018813 0
M  V30 12 C 1.823342 0.486089 1.981590 0
M  V30 13 C 0.803580 0.664019 0.958623 0
M  V30 14 C -0.126232 -0.155977 0.331310 0
M  V30 15 C -0.806180 0.603184 -0.615708 0
M  V30 16 C -1.856294 0.041773 -1.456166 0
M  V30 17 O -2.207980 -1.157588 -1.239825 0
M  V30 18 N -2.519095 0.704960 -2.489755 0
M  V30 19 C -3.575465 0.074117 -3.300868 0
M  V30 20 C -4.752792 -0.356278 -2.487119 0
M  V30 21 C -5.815855 -1.004213 -3.322043 0
M  V30 22 C -5.620184 -2.387864 -3.393493 0
M  V30 23 C -6.502384 -3.165580 -4.120714 0
M  V30 24 N -7.536139 -2.588675 -4.749685 0
M  V30 25 C -7.733018 -1.262290 -4.687413 0
M  V30 26 C -6.883470 -0.429542 -3.975035 0
M  V30 27 C -0.301447 1.869991 -0.568437 0
M  V30 28 N 0.661252 1.849931 0.393436 0
M  V30 29 C 2.903930 -1.444835 0.950384 0
M  V30 30 O 2.253578 -1.632699 -0.105065 0
M  V30 31 N 4.004870 -2.306032 1.233031 0
M  V30 32 H 4.551382 -0.514777 9.290847 0
M  V30 33 H 5.684723 -0.243557 9.456412 0
M  V30 34 H 6.355503 0.589144 6.403845 0
M  V30 35 H 6.800310 -2.144970 4.937281 0
M  V30 36 H 6.175477 -3.163904 2.857422 0
M  V30 37 H 3.582999 0.692020 4.513400 0
M  V30 38 H 1.894041 1.166229 2.845989 0
M  V30 39 H -0.252484 -1.192026 0.599570 0
M  V30 40 H -2.229569 1.711003 -2.682808 0
M  V30 41 H -3.139508 -0.814262 -3.842282 0
M  V30 42 H -3.847371 0.799605 -4.092023 0
M  V30 43 H -4.500620 -0.954160 -1.591873 0
M  V30 44 H -5.187402 0.595028 -2.053714 0
M  V30 45 H -4.835830 -2.976437 -2.937963 0
M  V30 46 H -6.453896 -4.244212 -4.246949 0
M  V30 47 H -8.552841 -0.748622 -5.178118 0
M  V30 48 H -6.916134 0.626140 -3.840184 0
M  V30 49 H -0.666766 2.650931 -1.209678 0
M  V30 50 H 1.150277 2.778881 0.546697 0
M  V30 51 H 4.389765 -3.119548 0.681530 0
M  V30 END ATOM
M  V30 BEGIN BOND
M  V30 1 1 1 2
M  V30 2 2 2 3
M  V30 3 1 2 4
M  V30 4 1 4 5
M  V30 5 2 5 6
M  V30 6 1 6 7
M  V30 7 2 7 8
M  V30 8 1 8 9
M  V30 9 2 9 10
M  V30 10 1 9 11
M  V30 11 2 11 12
M  V30 12 1 12 13
M  V30 13 2 13 14
M  V30 14 1 14 15
M  V30 15 1 15 16
M  V30 16 2 16 17
M  V30 17 1 16 18
M  V30 18 1 18 19
M  V30 19 1 19 20
M  V30 20 1 20 21
M  V30 21 2 21 22
M  V30 22 1 22 23
M  V30 23 2 23 24
M  V30 24 1 24 25
M  V30 25 2 25 26
M  V30 26 2 15 27
M  V30 27 1 27 28
M  V30 28 1 11 29
M  V30 29 2 29 30
M  V30 30 1 29 31
M  V30 31 1 10 5
M  V30 32 1 28 13
M  V30 33 1 31 8
M  V30 34 1 26 21
M  V30 35 1 1 32
M  V30 36 1 1 33
M  V30 37 1 4 34
M  V30 38 1 6 35
M  V30 39 1 7 36
M  V30 40 1 10 37
M  V30 41 1 12 38
M  V30 42 1 14 39
M  V30 43 1 18 40
M  V30 44 1 19 41
M  V30 45 1 19 42
M  V30 46 1 20 43
M  V30 47 1 20 44
M  V30 48 1 22 45
M  V30 49 1 23 46
M  V30 50 1 25 47
M  V30 51 1 26 48
M  V30 52 1 27 49
M  V30 53 1 28 50
M  V30 54 1 31 51
M  V30 END BOND
M  V30 END CTAB
M  END
>  <Dataset>  (106) 
ChEMBL_Kinases

>  <Ligand_Instance>  (106) 
nan

>  <PDB_ID>  (106) 
nan

>  <Standardized_SMILES>  (106) 
NC(=O)Nc1ccc2c(c1)/C(=C/c1cc(C(=O)NCCc3ccncc3)c[nH]1)C(=O)N2

>  <Name>  (106) 
nan

>  <Pocket>  (106) 
nan

>  <ATP_Site>  (106) 
nan

>  <Peripheral>  (106) 
nan

>  <Num_H_Atoms_ProtBoundConf>  (106) 
nan

>  <Num_Resolved_Atoms>  (106) 
nan

>  <Num_Not_Resolved_Atoms>  (106) 
nan

$$$$
CHEMBL228751
     RDKit          3D

  0  0  0  0  0  0  0  0  0  0999 V3000
M  V30 BEGIN CTAB
M  V30 COUNTS 42 45 0 0 0
M  V30 BEGIN ATOM
M  V30 1 N 6.282644 -4.622612 -0.164680 0
M  V30 2 C 5.087028 -3.887714 -0.381096 0
M  V30 3 O 4.360780 -3.596635 0.591558 0
M  V30 4 N 4.673214 -3.463912 -1.664011 0
M  V30 5 C 3.521388 -2.734231 -2.038145 0
M  V30 6 C 3.333534 -2.430654 -3.361308 0
M  V30 7 C 2.287110 -1.740120 -3.908357 0
M  V30 8 C 1.285906 -1.283407 -3.041595 0
M  V30 9 C 1.447314 -1.573451 -1.704943 0
M  V30 10 C 2.522169 -2.273189 -1.208832 0
M  V30 11 C 0.289653 -1.003608 -1.001666 0
M  V30 12 C 0.003686 -1.002393 0.285866 0
M  V30 13 C -1.154021 -0.434987 0.963772 0
M  V30 14 C -0.913268 0.349436 2.097615 0
M  V30 15 C -2.107461 0.802842 2.649165 0
M  V30 16 C -2.293247 1.640471 3.831151 0
M  V30 17 C -1.375580 1.524907 4.878835 0
M  V30 18 C -1.505070 2.298076 6.015961 0
M  V30 19 C -2.533444 3.182171 6.122158 0
M  V30 20 C -3.457355 3.310208 5.087854 0
M  V30 21 C -3.336948 2.535303 3.935727 0
M  V30 22 C -3.070904 0.273402 1.822478 0
M  V30 23 N -2.500092 -0.441648 0.850819 0
M  V30 24 C -0.546505 -0.372273 -1.984610 0
M  V30 25 O -1.612517 0.229041 -1.841525 0
M  V30 26 N 0.084621 -0.555261 -3.240909 0
M  V30 27 H 6.597859 -5.612650 -0.212182 0
M  V30 28 H 7.157389 -4.123530 0.132826 0
M  V30 29 H 5.340564 -3.752998 -2.410874 0
M  V30 30 H 4.078731 -2.755258 -4.106441 0
M  V30 31 H 2.201072 -1.538886 -4.944360 0
M  V30 32 H 2.578680 -2.460620 -0.155379 0
M  V30 33 H 0.772406 -1.512315 0.896630 0
M  V30 34 H 0.024900 0.635653 2.578617 0
M  V30 35 H -0.567970 0.809014 4.762673 0
M  V30 36 H -0.800569 2.220102 6.836975 0
M  V30 37 H -2.680603 3.811221 6.991463 0
M  V30 38 H -4.291315 4.005311 5.135770 0
M  V30 39 H -3.992190 2.565150 3.097138 0
M  V30 40 H -4.142032 0.398314 1.917060 0
M  V30 41 H -2.953155 -0.976205 0.082089 0
M  V30 42 H -0.231512 -0.234614 -4.161574 0
M  V30 END ATOM
M  V30 BEGIN BOND
M  V30 1 1 1 2
M  V30 2 2 2 3
M  V30 3 1 2 4
M  V30 4 1 4 5
M  V30 5 2 5 6
M  V30 6 1 6 7
M  V30 7 2 7 8
M  V30 8 1 8 9
M  V30 9 2 9 10
M  V30 10 1 9 11
M  V30 11 2 11 12
M  V30 12 1 12 13
M  V30 13 2 13 14
M  V30 14 1 14 15
M  V30 15 1 15 16
M  V30 16 2 16 17
M  V30 17 1 17 18
M  V30 18 2 18 19
M  V30 19 1 19 20
M  V30 20 2 20 21
M  V30 21 2 15 22
M  V30 22 1 22 23
M  V30 23 1 11 24
M  V30 24 2 24 25
M  V30 25 1 24 26
M  V30 26 1 10 5
M  V30 27 1 23 13
M  V30 28 1 26 8
M  V30 29 1 21 16
M  V30 30 1 1 27
M  V30 31 1 1 28
M  V30 32 1 4 29
M  V30 33 1 6 30
M  V30 34 1 7 31
M  V30 35 1 10 32
M  V30 36 1 12 33
M  V30 37 1 14 34
M  V30 38 1 17 35
M  V30 39 1 18 36
M  V30 40 1 19 37
M  V30 41 1 20 38
M  V30 42 1 21 39
M  V30 43 1 22 40
M  V30 44 1 23 41
M  V30 45 1 26 42
M  V30 END BOND
M  V30 END CTAB
M  END
>  <Dataset>  (107) 
ChEMBL_Kinases

>  <Ligand_Instance>  (107) 
nan

>  <PDB_ID>  (107) 
nan

>  <Standardized_SMILES>  (107) 
NC(=O)Nc1ccc2c(c1)/C(=C/c1cc(-c3ccccc3)c[nH]1)C(=O)N2

>  <Name>  (107) 
nan

>  <Pocket>  (107) 
nan

>  <ATP_Site>  (107) 
nan

>  <Peripheral>  (107) 
nan

>  <Num_H_Atoms_ProtBoundConf>  (107) 
nan

>  <Num_Resolved_Atoms>  (107) 
nan

>  <Num_Not_Resolved_Atoms>  (107) 
nan

$$$$
CHEMBL228756
     RDKit          3D

  0  0  0  0  0  0  0  0  0  0999 V3000
M  V30 BEGIN CTAB
M  V30 COUNTS 51 54 0 0 0
M  V30 BEGIN ATOM
M  V30 1 C -0.050309 1.848319 1.034071 0
M  V30 2 C 0.425002 0.725504 0.183816 0
M  V30 3 C 1.652262 0.247191 0.229291 0
M  V30 4 C 2.278125 -0.831673 -0.513084 0
M  V30 5 O 1.732462 -1.565437 -1.371676 0
M  V30 6 N 3.644430 -0.983935 -0.149362 0
M  V30 7 C 3.894168 0.009939 0.838390 0
M  V30 8 C 5.090423 0.240308 1.483057 0
M  V30 9 C 5.144000 1.258487 2.419161 0
M  V30 10 C 4.008462 2.025760 2.694399 0
M  V30 11 N 4.089852 3.080877 3.673616 0
M  V30 12 C 4.458770 4.373366 3.176177 0
M  V30 13 N 4.590137 5.542534 3.992312 0
M  V30 14 O 4.684372 4.494720 1.931678 0
M  V30 15 C 2.835045 1.730203 1.998810 0
M  V30 16 C 2.741416 0.728802 1.063602 0
M  V30 17 C -0.515762 0.174448 -0.781790 0
M  V30 18 C -1.778737 -0.207272 -0.311948 0
M  V30 19 C -2.570481 -0.677024 -1.337937 0
M  V30 20 C -3.948775 -1.179984 -1.321584 0
M  V30 21 N -4.014393 -2.599183 -1.107041 0
M  V30 22 C -3.831863 -3.265459 0.132845 0
M  V30 23 O -3.592747 -2.509440 1.110183 0
M  V30 24 C -3.918205 -4.728373 0.258068 0
M  V30 25 C -4.173633 -5.603279 -0.780245 0
M  V30 26 C -4.219206 -6.940019 -0.476688 0
M  V30 27 N -4.030130 -7.446868 0.769306 0
M  V30 28 C -3.777734 -6.609265 1.807683 0
M  V30 29 C -3.728556 -5.253375 1.516162 0
M  V30 30 C -1.732619 -0.563985 -2.453460 0
M  V30 31 N -0.559927 -0.070537 -2.096760 0
M  V30 32 H 0.377355 2.819926 0.790694 0
M  V30 33 H -0.082001 1.555341 2.095413 0
M  V30 34 H -1.153721 1.979602 0.784486 0
M  V30 35 H 4.322653 -1.694539 -0.542422 0
M  V30 36 H 5.976447 -0.338223 1.286086 0
M  V30 37 H 6.061691 1.474393 2.948434 0
M  V30 38 H 3.933928 3.116574 4.711067 0
M  V30 39 H 3.666466 6.012711 4.103823 0
M  V30 40 H 5.288607 6.127757 4.540725 0
M  V30 41 H 2.038545 2.381092 2.290142 0
M  V30 42 H -2.196268 -0.183604 0.700591 0
M  V30 43 H -4.561854 -0.841687 -2.168515 0
M  V30 44 H -4.427465 -0.724881 -0.401352 0
M  V30 45 H -4.215136 -3.152894 -1.959328 0
M  V30 46 H -4.318977 -5.181125 -1.748548 0
M  V30 47 H -4.422195 -7.605890 -1.309956 0
M  V30 48 H -3.622735 -6.995262 2.814683 0
M  V30 49 H -3.523388 -4.625672 2.388484 0
M  V30 50 H -1.968730 -0.832941 -3.494256 0
M  V30 51 H 0.248631 0.137263 -2.716641 0
M  V30 END ATOM
M  V30 BEGIN BOND
M  V30 1 1 1 2
M  V30 2 2 2 3
M  V30 3 1 3 4
M  V30 4 2 4 5
M  V30 5 1 4 6
M  V30 6 1 6 7
M  V30 7 2 7 8
M  V30 8 1 8 9
M  V30 9 2 9 10
M  V30 10 1 10 11
M  V30 11 1 11 12
M  V30 12 1 12 13
M  V30 13 2 12 14
M  V30 14 1 10 15
M  V30 15 2 15 16
M  V30 16 1 2 17
M  V30 17 2 17 18
M  V30 18 1 18 19
M  V30 19 1 19 20
M  V30 20 1 20 21
M  V30 21 1 21 22
M  V30 22 2 22 23
M  V30 23 1 22 24
M  V30 24 2 24 25
M  V30 25 1 25 26
M  V30 26 2 26 27
M  V30 27 1 27 28
M  V30 28 2 28 29
M  V30 29 2 19 30
M  V30 30 1 30 31
M  V30 31 1 16 3
M  V30 32 1 31 17
M  V30 33 1 16 7
M  V30 34 1 29 24
M  V30 35 1 1 32
M  V30 36 1 1 33
M  V30 37 1 1 34
M  V30 38 1 6 35
M  V30 39 1 8 36
M  V30 40 1 9 37
M  V30 41 1 11 38
M  V30 42 1 13 39
M  V30 43 1 13 40
M  V30 44 1 15 41
M  V30 45 1 18 42
M  V30 46 1 20 43
M  V30 47 1 20 44
M  V30 48 1 21 45
M  V30 49 1 25 46
M  V30 50 1 26 47
M  V30 51 1 28 48
M  V30 52 1 29 49
M  V30 53 1 30 50
M  V30 54 1 31 51
M  V30 END BOND
M  V30 END CTAB
M  END
>  <Dataset>  (108) 
ChEMBL_Kinases

>  <Ligand_Instance>  (108) 
nan

>  <PDB_ID>  (108) 
nan

>  <Standardized_SMILES>  (108) 
C/C(=C1/C(=O)Nc2ccc(NC(N)=O)cc21)c1cc(CNC(=O)c2ccncc2)c[nH]1

>  <Name>  (108) 
nan

>  <Pocket>  (108) 
nan

>  <ATP_Site>  (108) 
nan

>  <Peripheral>  (108) 
nan

>  <Num_H_Atoms_ProtBoundConf>  (108) 
nan

>  <Num_Resolved_Atoms>  (108) 
nan

>  <Num_Not_Resolved_Atoms>  (108) 
nan

$$$$
CHEMBL229495
     RDKit          3D

  0  0  0  0  0  0  0  0  0  0999 V3000
M  V30 BEGIN CTAB
M  V30 COUNTS 50 54 0 0 0
M  V30 BEGIN ATOM
M  V30 1 C -0.748299 -0.313277 5.097502 0
M  V30 2 C 0.048179 -1.105985 4.139752 0
M  V30 3 C 0.649861 -2.275510 4.585022 0
M  V30 4 C 1.410950 -3.075348 3.756693 0
M  V30 5 C 1.601403 -2.730287 2.433621 0
M  V30 6 C 0.977377 -1.560988 2.061246 0
M  V30 7 C 1.076238 -1.047605 0.688686 0
M  V30 8 N 1.662840 0.123751 0.411997 0
M  V30 9 C 1.646818 0.405586 -0.898533 0
M  V30 10 C 2.084383 1.477565 -1.832565 0
M  V30 11 N 1.053314 2.435471 -2.119341 0
M  V30 12 C 0.424671 3.366442 -1.273217 0
M  V30 13 C 0.700315 3.577997 0.060935 0
M  V30 14 C 0.075701 4.484978 0.880726 0
M  V30 15 C -0.910195 5.261111 0.355938 0
M  V30 16 C -1.576230 6.214339 1.188686 0
M  V30 17 N -2.129078 6.989698 1.864959 0
M  V30 18 C -1.237858 5.108600 -0.957099 0
M  V30 19 C -0.589399 4.195368 -1.728444 0
M  V30 20 N 1.007652 -0.666999 -1.457218 0
M  V30 21 C 0.652889 -1.558448 -0.519288 0
M  V30 22 C -0.037052 -2.844659 -0.577982 0
M  V30 23 C -1.249573 -2.957744 0.075935 0
M  V30 24 C -1.992819 -4.120833 0.092157 0
M  V30 25 C -1.497907 -5.233679 -0.582255 0
M  V30 26 C -0.286460 -5.149726 -1.245798 0
M  V30 27 C 0.426128 -3.971358 -1.239197 0
M  V30 28 O -0.007653 -6.394612 -1.843049 0
M  V30 29 C -0.831291 -7.367839 -1.189108 0
M  V30 30 O -1.915763 -6.544304 -0.804117 0
M  V30 31 N 0.231021 -0.764068 2.847513 0
M  V30 32 H -1.539610 0.300070 4.606525 0
M  V30 33 H -1.266453 -0.979512 5.820738 0
M  V30 34 H -0.091784 0.357345 5.670040 0
M  V30 35 H 0.532246 -2.595098 5.620215 0
M  V30 36 H 1.877256 -3.994571 4.124842 0
M  V30 37 H 2.184989 -3.307918 1.726508 0
M  V30 38 H 2.113038 0.806198 1.054878 0
M  V30 39 H 2.998278 2.002237 -1.418286 0
M  V30 40 H 2.448242 1.052702 -2.790171 0
M  V30 41 H 0.706732 2.452307 -3.108036 0
M  V30 42 H 1.479328 2.991496 0.520111 0
M  V30 43 H 0.343832 4.597082 1.920843 0
M  V30 44 H -2.024520 5.729255 -1.372509 0
M  V30 45 H -0.907828 4.131659 -2.767948 0
M  V30 46 H -1.729733 -2.150805 0.633959 0
M  V30 47 H -2.940098 -4.230091 0.595329 0
M  V30 48 H 1.379292 -3.870873 -1.749117 0
M  V30 49 H -1.139847 -8.174552 -1.876464 0
M  V30 50 H -0.242000 -7.716008 -0.316351 0
M  V30 END ATOM
M  V30 BEGIN BOND
M  V30 1 1 1 2
M  V30 2 2 2 3
M  V30 3 1 3 4
M  V30 4 2 4 5
M  V30 5 1 5 6
M  V30 6 1 6 7
M  V30 7 1 7 8
M  V30 8 1 8 9
M  V30 9 1 9 10
M  V30 10 1 10 11
M  V30 11 1 11 12
M  V30 12 2 12 13
M  V30 13 1 13 14
M  V30 14 2 14 15
M  V30 15 1 15 16
M  V30 16 3 16 17
M  V30 17 1 15 18
M  V30 18 2 18 19
M  V30 19 2 9 20
M  V30 20 1 20 21
M  V30 21 1 21 22
M  V30 22 2 22 23
M  V30 23 1 23 24
M  V30 24 2 24 25
M  V30 25 1 25 26
M  V30 26 2 26 27
M  V30 27 1 26 28
M  V30 28 1 28 29
M  V30 29 1 29 30
M  V30 30 2 6 31
M  V30 31 1 31 2
M  V30 32 2 21 7
M  V30 33 1 27 22
M  V30 34 1 19 12
M  V30 35 1 30 25
M  V30 36 1 1 32
M  V30 37 1 1 33
M  V30 38 1 1 34
M  V30 39 1 3 35
M  V30 40 1 4 36
M  V30 41 1 5 37
M  V30 42 1 8 38
M  V30 43 1 10 39
M  V30 44 1 10 40
M  V30 45 1 11 41
M  V30 46 1 13 42
M  V30 47 1 14 43
M  V30 48 1 18 44
M  V30 49 1 19 45
M  V30 50 1 23 46
M  V30 51 1 24 47
M  V30 52 1 27 48
M  V30 53 1 29 49
M  V30 54 1 29 50
M  V30 END BOND
M  V30 END CTAB
M  END
>  <Dataset>  (109) 
ChEMBL_Kinases

>  <Ligand_Instance>  (109) 
nan

>  <PDB_ID>  (109) 
nan

>  <Standardized_SMILES>  (109) 
Cc1cccc(-c2[nH]c(CNc3ccc(C#N)cc3)nc2-c2ccc3c(c2)OCO3)n1

>  <Name>  (109) 
nan

>  <Pocket>  (109) 
nan

>  <ATP_Site>  (109) 
nan

>  <Peripheral>  (109) 
nan

>  <Num_H_Atoms_ProtBoundConf>  (109) 
nan

>  <Num_Resolved_Atoms>  (109) 
nan

>  <Num_Not_Resolved_Atoms>  (109) 
nan

$$$$
CHEMBL228803
     RDKit          3D

  0  0  0  0  0  0  0  0  0  0999 V3000
M  V30 BEGIN CTAB
M  V30 COUNTS 45 48 0 0 0
M  V30 BEGIN ATOM
M  V30 1 N 7.493973 -4.003597 -2.060536 0
M  V30 2 C 6.175214 -4.281510 -1.620779 0
M  V30 3 O 5.914088 -5.496890 -1.457101 0
M  V30 4 N 5.170189 -3.321864 -1.362978 0
M  V30 5 C 3.855840 -3.505127 -0.930116 0
M  V30 6 C 3.230576 -4.679460 -0.629369 0
M  V30 7 C 1.919377 -4.788705 -0.209366 0
M  V30 8 C 1.151062 -3.655202 -0.070616 0
M  V30 9 C 1.755669 -2.453018 -0.367758 0
M  V30 10 C 3.063184 -2.402352 -0.781491 0
M  V30 11 C 0.767160 -1.411777 -0.147708 0
M  V30 12 C 0.895326 -0.118166 -0.344019 0
M  V30 13 C -0.074468 0.943313 -0.126156 0
M  V30 14 C -0.778008 1.135996 1.071940 0
M  V30 15 C -1.633234 2.224258 0.915426 0
M  V30 16 C -2.550157 2.763874 1.948558 0
M  V30 17 C -2.848429 4.108859 1.979022 0
M  V30 18 C -3.715001 4.547224 2.984294 0
M  V30 19 C -4.245274 3.651460 3.907296 0
M  V30 20 C -3.904983 2.320998 3.818384 0
M  V30 21 C -4.483273 1.401266 4.806932 0
M  V30 22 O -5.258174 1.837630 5.698722 0
M  V30 23 O -4.247263 0.036848 4.854429 0
M  V30 24 C -3.056120 1.831612 2.849113 0
M  V30 25 C -1.452133 2.692482 -0.369538 0
M  V30 26 N -0.534657 1.910586 -0.930585 0
M  V30 27 C -0.472513 -2.028645 0.296103 0
M  V30 28 O -1.543004 -1.463883 0.580855 0
M  V30 29 N -0.187357 -3.427772 0.330130 0
M  V30 30 H 8.074515 -4.046999 -2.922680 0
M  V30 31 H 8.243194 -3.627221 -1.436039 0
M  V30 32 H 5.545543 -2.360434 -1.546777 0
M  V30 33 H 3.770391 -5.606633 -0.714872 0
M  V30 34 H 1.471225 -5.732610 0.016148 0
M  V30 35 H 3.462975 -1.413961 -0.995185 0
M  V30 36 H 1.835206 0.300976 -0.724461 0
M  V30 37 H -0.749803 0.617736 2.023754 0
M  V30 38 H -2.427770 4.808680 1.249208 0
M  V30 39 H -3.987898 5.590494 3.061727 0
M  V30 40 H -4.928820 3.984105 4.701092 0
M  V30 41 H -4.043785 -0.462812 5.719492 0
M  V30 42 H -2.772090 0.777855 2.760290 0
M  V30 43 H -1.978487 3.546506 -0.816677 0
M  V30 44 H -0.171193 2.001062 -1.911114 0
M  V30 45 H -0.921979 -4.118187 0.623153 0
M  V30 END ATOM
M  V30 BEGIN BOND
M  V30 1 1 1 2
M  V30 2 2 2 3
M  V30 3 1 2 4
M  V30 4 1 4 5
M  V30 5 2 5 6
M  V30 6 1 6 7
M  V30 7 2 7 8
M  V30 8 1 8 9
M  V30 9 2 9 10
M  V30 10 1 9 11
M  V30 11 2 11 12
M  V30 12 1 12 13
M  V30 13 2 13 14
M  V30 14 1 14 15
M  V30 15 1 15 16
M  V30 16 2 16 17
M  V30 17 1 17 18
M  V30 18 2 18 19
M  V30 19 1 19 20
M  V30 20 1 20 21
M  V30 21 2 21 22
M  V30 22 1 21 23
M  V30 23 2 20 24
M  V30 24 2 15 25
M  V30 25 1 25 26
M  V30 26 1 11 27
M  V30 27 2 27 28
M  V30 28 1 27 29
M  V30 29 1 10 5
M  V30 30 1 26 13
M  V30 31 1 29 8
M  V30 32 1 24 16
M  V30 33 1 1 30
M  V30 34 1 1 31
M  V30 35 1 4 32
M  V30 36 1 6 33
M  V30 37 1 7 34
M  V30 38 1 10 35
M  V30 39 1 12 36
M  V30 40 1 14 37
M  V30 41 1 17 38
M  V30 42 1 18 39
M  V30 43 1 19 40
M  V30 44 1 23 41
M  V30 45 1 24 42
M  V30 46 1 25 43
M  V30 47 1 26 44
M  V30 48 1 29 45
M  V30 END BOND
M  V30 END CTAB
M  END
>  <Dataset>  (110) 
ChEMBL_Kinases

>  <Ligand_Instance>  (110) 
nan

>  <PDB_ID>  (110) 
nan

>  <Standardized_SMILES>  (110) 
NC(=O)Nc1ccc2c(c1)/C(=C/c1cc(-c3cccc(C(=O)O)c3)c[nH]1)C(=O)N2

>  <Name>  (110) 
nan

>  <Pocket>  (110) 
nan

>  <ATP_Site>  (110) 
nan

>  <Peripheral>  (110) 
nan

>  <Num_H_Atoms_ProtBoundConf>  (110) 
nan

>  <Num_Resolved_Atoms>  (110) 
nan

>  <Num_Not_Resolved_Atoms>  (110) 
nan

$$$$
CHEMBL228810
     RDKit          3D

  0  0  0  0  0  0  0  0  0  0999 V3000
M  V30 BEGIN CTAB
M  V30 COUNTS 60 63 0 0 0
M  V30 BEGIN ATOM
M  V30 1 C 0.088148 2.320006 1.905067 0
M  V30 2 C 0.215951 0.911673 2.330310 0
M  V30 3 C 1.344655 0.334997 2.628925 0
M  V30 4 C 1.645522 -1.043029 3.060265 0
M  V30 5 O 0.818042 -1.972733 3.213045 0
M  V30 6 N 3.038786 -1.205330 3.290692 0
M  V30 7 C 3.642000 0.065684 3.008421 0
M  V30 8 C 4.987215 0.343445 3.104599 0
M  V30 9 C 5.378774 1.628255 2.788866 0
M  V30 10 C 4.432066 2.560258 2.399366 0
M  V30 11 N 4.979713 3.836305 2.104426 0
M  V30 12 C 5.301038 5.063056 2.745892 0
M  V30 13 N 5.864807 6.057234 1.902578 0
M  V30 14 O 5.079711 5.212507 3.995179 0
M  V30 15 C 3.094954 2.207369 2.325572 0
M  V30 16 C 2.662082 0.945418 2.628623 0
M  V30 17 C -1.004166 0.125416 2.474442 0
M  V30 18 C -1.857258 0.054440 1.389321 0
M  V30 19 C -2.953433 -0.706775 1.732264 0
M  V30 20 C -4.126729 -1.065552 0.850541 0
M  V30 21 N -3.753021 -2.347320 0.222653 0
M  V30 22 C -2.842883 -2.547296 -0.828291 0
M  V30 23 O -2.245486 -1.546463 -1.338356 0
M  V30 24 C -2.552712 -3.898241 -1.365632 0
M  V30 25 C -3.723183 -4.589965 -1.959885 0
M  V30 26 C -3.790970 -4.523512 -3.461298 0
M  V30 27 N -2.507765 -4.828090 -4.011902 0
M  V30 28 C -2.489007 -5.131561 -5.408788 0
M  V30 29 C -1.640258 -3.684402 -3.692923 0
M  V30 30 C -1.327102 -3.830892 -2.226473 0
M  V30 31 C -2.724011 -1.076615 3.038092 0
M  V30 32 N -1.548600 -0.574722 3.486741 0
M  V30 33 H -1.023219 2.509462 1.748405 0
M  V30 34 H 0.329645 3.011563 2.736862 0
M  V30 35 H 0.528111 2.557180 0.930482 0
M  V30 36 H 3.506987 -2.105995 3.608936 0
M  V30 37 H 5.721722 -0.382200 3.408027 0
M  V30 38 H 6.431239 1.854200 2.861004 0
M  V30 39 H 5.156129 3.697890 1.063819 0
M  V30 40 H 6.683524 6.603736 1.578776 0
M  V30 41 H 5.280694 6.589892 1.205173 0
M  V30 42 H 2.499502 3.037262 2.010749 0
M  V30 43 H -1.771862 0.491496 0.395219 0
M  V30 44 H -5.048224 -1.204688 1.414163 0
M  V30 45 H -4.240325 -0.304034 0.068834 0
M  V30 46 H -4.203972 -3.221115 0.584243 0
M  V30 47 H -2.240213 -4.542110 -0.487864 0
M  V30 48 H -4.653096 -4.119028 -1.580503 0
M  V30 49 H -3.786203 -5.665174 -1.690289 0
M  V30 50 H -4.485320 -5.344958 -3.807289 0
M  V30 51 H -4.132103 -3.539878 -3.833746 0
M  V30 52 H -2.884474 -6.171839 -5.516988 0
M  V30 53 H -3.038187 -4.385770 -5.990216 0
M  V30 54 H -1.415038 -5.200629 -5.705564 0
M  V30 55 H -2.161294 -2.723327 -3.845527 0
M  V30 56 H -0.698460 -3.772274 -4.238642 0
M  V30 57 H -0.696028 -4.752642 -2.132784 0
M  V30 58 H -0.672817 -2.986716 -1.931239 0
M  V30 59 H -3.397238 -1.696152 3.647079 0
M  V30 60 H -1.119690 -0.672676 4.431416 0
M  V30 END ATOM
M  V30 BEGIN BOND
M  V30 1 1 1 2
M  V30 2 2 2 3
M  V30 3 1 3 4
M  V30 4 2 4 5
M  V30 5 1 4 6
M  V30 6 1 6 7
M  V30 7 2 7 8
M  V30 8 1 8 9
M  V30 9 2 9 10
M  V30 10 1 10 11
M  V30 11 1 11 12
M  V30 12 1 12 13
M  V30 13 2 12 14
M  V30 14 1 10 15
M  V30 15 2 15 16
M  V30 16 1 2 17
M  V30 17 2 17 18
M  V30 18 1 18 19
M  V30 19 1 19 20
M  V30 20 1 20 21
M  V30 21 1 21 22
M  V30 22 2 22 23
M  V30 23 1 22 24
M  V30 24 1 24 25
M  V30 25 1 25 26
M  V30 26 1 26 27
M  V30 27 1 27 28
M  V30 28 1 27 29
M  V30 29 1 29 30
M  V30 30 2 19 31
M  V30 31 1 31 32
M  V30 32 1 16 3
M  V30 33 1 32 17
M  V30 34 1 16 7
M  V30 35 1 30 24
M  V30 36 1 1 33
M  V30 37 1 1 34
M  V30 38 1 1 35
M  V30 39 1 6 36
M  V30 40 1 8 37
M  V30 41 1 9 38
M  V30 42 1 11 39
M  V30 43 1 13 40
M  V30 44 1 13 41
M  V30 45 1 15 42
M  V30 46 1 18 43
M  V30 47 1 20 44
M  V30 48 1 20 45
M  V30 49 1 21 46
M  V30 50 1 24 47
M  V30 51 1 25 48
M  V30 52 1 25 49
M  V30 53 1 26 50
M  V30 54 1 26 51
M  V30 55 1 28 52
M  V30 56 1 28 53
M  V30 57 1 28 54
M  V30 58 1 29 55
M  V30 59 1 29 56
M  V30 60 1 30 57
M  V30 61 1 30 58
M  V30 62 1 31 59
M  V30 63 1 32 60
M  V30 END BOND
M  V30 END CTAB
M  END
>  <Dataset>  (111) 
ChEMBL_Kinases

>  <Ligand_Instance>  (111) 
nan

>  <PDB_ID>  (111) 
nan

>  <Standardized_SMILES>  (111) 
C/C(=C1/C(=O)Nc2ccc(NC(N)=O)cc21)c1cc(CNC(=O)C2CCN(C)CC2)c[nH]1

>  <Name>  (111) 
nan

>  <Pocket>  (111) 
nan

>  <ATP_Site>  (111) 
nan

>  <Peripheral>  (111) 
nan

>  <Num_H_Atoms_ProtBoundConf>  (111) 
nan

>  <Num_Resolved_Atoms>  (111) 
nan

>  <Num_Not_Resolved_Atoms>  (111) 
nan

$$$$
CHEMBL228811
     RDKit          3D

  0  0  0  0  0  0  0  0  0  0999 V3000
M  V30 BEGIN CTAB
M  V30 COUNTS 56 59 0 0 0
M  V30 BEGIN ATOM
M  V30 1 C -0.082918 2.215107 0.926266 0
M  V30 2 C 0.230263 0.962366 0.213246 0
M  V30 3 C 1.424497 0.395680 0.238850 0
M  V30 4 C 1.913522 -0.828282 -0.390303 0
M  V30 5 O 1.243933 -1.621596 -1.095493 0
M  V30 6 N 3.287044 -1.051345 -0.114438 0
M  V30 7 C 3.684126 0.043370 0.702991 0
M  V30 8 C 4.937097 0.283051 1.236497 0
M  V30 9 C 5.153382 1.406037 2.016580 0
M  V30 10 C 4.100739 2.266111 2.243515 0
M  V30 11 N 4.358543 3.425316 3.058714 0
M  V30 12 C 4.784362 4.596614 2.372477 0
M  V30 13 N 5.085215 5.842015 3.030386 0
M  V30 14 O 4.986709 4.821236 1.137463 0
M  V30 15 C 2.836622 2.003805 1.692198 0
M  V30 16 C 2.616635 0.889428 0.916476 0
M  V30 17 C -0.826543 0.335933 -0.615621 0
M  V30 18 C -2.071761 0.071682 -0.029425 0
M  V30 19 C -2.866603 -0.475552 -1.047583 0
M  V30 20 C -4.275868 -0.869206 -0.723668 0
M  V30 21 N -4.245117 -2.242805 -0.296854 0
M  V30 22 C -4.123572 -3.329213 -1.190400 0
M  V30 23 O -4.040549 -3.086563 -2.413449 0
M  V30 24 C -4.095464 -4.735003 -0.686544 0
M  V30 25 C -2.980603 -5.516968 -1.297153 0
M  V30 26 N -1.704505 -5.364306 -0.672952 0
M  V30 27 C -1.727453 -4.668034 0.588032 0
M  V30 28 C -2.917666 -5.049653 1.406061 0
M  V30 29 N -4.160518 -4.798455 0.741274 0
M  V30 30 C -2.088188 -0.518501 -2.183017 0
M  V30 31 N -0.885249 -0.033221 -1.906155 0
M  V30 32 H -1.187220 2.395170 0.718580 0
M  V30 33 H 0.363432 3.124662 0.503911 0
M  V30 34 H -0.099718 2.132911 2.030228 0
M  V30 35 H 3.871160 -1.863560 -0.453857 0
M  V30 36 H 5.760415 -0.396398 1.055474 0
M  V30 37 H 6.120887 1.615422 2.443806 0
M  V30 38 H 4.282336 3.543982 4.085838 0
M  V30 39 H 5.816682 6.456857 3.446129 0
M  V30 40 H 4.250523 6.475611 3.211709 0
M  V30 41 H 2.131627 2.732148 1.940316 0
M  V30 42 H -2.362257 0.257323 1.016751 0
M  V30 43 H -4.728483 -0.181912 -0.011698 0
M  V30 44 H -4.872628 -0.837914 -1.667359 0
M  V30 45 H -4.321793 -2.369770 0.747954 0
M  V30 46 H -5.047926 -5.203448 -1.076351 0
M  V30 47 H -2.896254 -5.207935 -2.359365 0
M  V30 48 H -3.274165 -6.606358 -1.267658 0
M  V30 49 H -0.943681 -5.010229 -1.296812 0
M  V30 50 H -0.817599 -4.975117 1.173750 0
M  V30 51 H -1.728825 -3.559832 0.459831 0
M  V30 52 H -2.821316 -6.097690 1.767455 0
M  V30 53 H -2.889698 -4.407373 2.335062 0
M  V30 54 H -4.936825 -5.357432 1.134880 0
M  V30 55 H -2.491666 -0.901417 -3.086469 0
M  V30 56 H -0.103616 0.067384 -2.587230 0
M  V30 END ATOM
M  V30 BEGIN BOND
M  V30 1 1 1 2
M  V30 2 2 2 3
M  V30 3 1 3 4
M  V30 4 2 4 5
M  V30 5 1 4 6
M  V30 6 1 6 7
M  V30 7 2 7 8
M  V30 8 1 8 9
M  V30 9 2 9 10
M  V30 10 1 10 11
M  V30 11 1 11 12
M  V30 12 1 12 13
M  V30 13 2 12 14
M  V30 14 1 10 15
M  V30 15 2 15 16
M  V30 16 1 2 17
M  V30 17 2 17 18
M  V30 18 1 18 19
M  V30 19 1 19 20
M  V30 20 1 20 21
M  V30 21 1 21 22
M  V30 22 2 22 23
M  V30 23 1 22 24
M  V30 24 1 24 25
M  V30 25 1 25 26
M  V30 26 1 26 27
M  V30 27 1 27 28
M  V30 28 1 28 29
M  V30 29 2 19 30
M  V30 30 1 30 31
M  V30 31 1 16 3
M  V30 32 1 31 17
M  V30 33 1 16 7
M  V30 34 1 29 24
M  V30 35 1 1 32
M  V30 36 1 1 33
M  V30 37 1 1 34
M  V30 38 1 6 35
M  V30 39 1 8 36
M  V30 40 1 9 37
M  V30 41 1 11 38
M  V30 42 1 13 39
M  V30 43 1 13 40
M  V30 44 1 15 41
M  V30 45 1 18 42
M  V30 46 1 20 43
M  V30 47 1 20 44
M  V30 48 1 21 45
M  V30 49 1 24 46
M  V30 50 1 25 47
M  V30 51 1 25 48
M  V30 52 1 26 49
M  V30 53 1 27 50
M  V30 54 1 27 51
M  V30 55 1 28 52
M  V30 56 1 28 53
M  V30 57 1 29 54
M  V30 58 1 30 55
M  V30 59 1 31 56
M  V30 END BOND
M  V30 END CTAB
M  END
>  <Dataset>  (112) 
ChEMBL_Kinases

>  <Ligand_Instance>  (112) 
nan

>  <PDB_ID>  (112) 
nan

>  <Standardized_SMILES>  (112) 
C/C(=C1/C(=O)Nc2ccc(NC(N)=O)cc21)c1cc(CNC(=O)C2CNCCN2)c[nH]1

>  <Name>  (112) 
nan

>  <Pocket>  (112) 
nan

>  <ATP_Site>  (112) 
nan

>  <Peripheral>  (112) 
nan

>  <Num_H_Atoms_ProtBoundConf>  (112) 
nan

>  <Num_Resolved_Atoms>  (112) 
nan

>  <Num_Not_Resolved_Atoms>  (112) 
nan

$$$$
CHEMBL228812
     RDKit          3D

  0  0  0  0  0  0  0  0  0  0999 V3000
M  V30 BEGIN CTAB
M  V30 COUNTS 47 49 0 0 0
M  V30 BEGIN ATOM
M  V30 1 C 0.626454 0.800105 2.533227 0
M  V30 2 C 0.431075 -0.396598 1.699358 0
M  V30 3 C 1.299892 -0.798466 0.811285 0
M  V30 4 C 1.227326 -1.945669 -0.070433 0
M  V30 5 O 0.353533 -2.802444 -0.215904 0
M  V30 6 N 2.419366 -2.016443 -0.876848 0
M  V30 7 C 3.249663 -0.922331 -0.514589 0
M  V30 8 C 4.486553 -0.545284 -0.988833 0
M  V30 9 C 5.116131 0.573043 -0.482139 0
M  V30 10 C 4.474654 1.312450 0.518988 0
M  V30 11 N 5.210728 2.441834 0.969825 0
M  V30 12 C 6.156487 2.780908 1.947615 0
M  V30 13 N 6.583731 4.148684 1.949877 0
M  V30 14 O 6.685297 2.049598 2.826493 0
M  V30 15 C 3.229585 0.901252 0.970959 0
M  V30 16 C 2.585204 -0.208546 0.479849 0
M  V30 17 C -0.770979 -1.193527 1.919966 0
M  V30 18 C -2.001850 -0.523222 1.886305 0
M  V30 19 C -3.027065 -1.438386 2.147166 0
M  V30 20 C -4.484937 -1.119197 2.203686 0
M  V30 21 N -5.047546 -1.247619 0.876798 0
M  V30 22 C -5.379659 -2.448265 0.196346 0
M  V30 23 O -5.139133 -3.503370 0.870456 0
M  V30 24 C -5.955853 -2.333335 -1.190666 0
M  V30 25 N -6.248179 -3.625070 -1.748121 0
M  V30 26 C -2.357233 -2.627991 2.328389 0
M  V30 27 N -1.029395 -2.473119 2.192947 0
M  V30 28 H 1.415463 0.687612 3.272809 0
M  V30 29 H 0.622464 1.743266 1.948174 0
M  V30 30 H -0.313506 0.911335 3.165524 0
M  V30 31 H 2.680524 -2.719921 -1.609076 0
M  V30 32 H 4.993366 -1.106787 -1.762143 0
M  V30 33 H 6.084945 0.855512 -0.864384 0
M  V30 34 H 4.844618 3.157802 0.287990 0
M  V30 35 H 7.031044 4.918636 1.396508 0
M  V30 36 H 6.550840 4.912072 2.681397 0
M  V30 37 H 2.881466 1.565505 1.732872 0
M  V30 38 H -2.230251 0.529762 1.697676 0
M  V30 39 H -4.944112 -1.873756 2.882082 0
M  V30 40 H -4.668916 -0.103117 2.595506 0
M  V30 41 H -5.233590 -0.340264 0.354673 0
M  V30 42 H -6.885136 -1.734822 -1.189698 0
M  V30 43 H -5.166018 -1.853174 -1.843952 0
M  V30 44 H -7.116108 -3.647152 -2.334121 0
M  V30 45 H -5.471044 -3.938833 -2.379269 0
M  V30 46 H -2.881550 -3.545561 2.550774 0
M  V30 47 H -0.298263 -3.201379 2.296253 0
M  V30 END ATOM
M  V30 BEGIN BOND
M  V30 1 1 1 2
M  V30 2 2 2 3
M  V30 3 1 3 4
M  V30 4 2 4 5
M  V30 5 1 4 6
M  V30 6 1 6 7
M  V30 7 2 7 8
M  V30 8 1 8 9
M  V30 9 2 9 10
M  V30 10 1 10 11
M  V30 11 1 11 12
M  V30 12 1 12 13
M  V30 13 2 12 14
M  V30 14 1 10 15
M  V30 15 2 15 16
M  V30 16 1 2 17
M  V30 17 2 17 18
M  V30 18 1 18 19
M  V30 19 1 19 20
M  V30 20 1 20 21
M  V30 21 1 21 22
M  V30 22 2 22 23
M  V30 23 1 22 24
M  V30 24 1 24 25
M  V30 25 2 19 26
M  V30 26 1 26 27
M  V30 27 1 16 3
M  V30 28 1 27 17
M  V30 29 1 16 7
M  V30 30 1 1 28
M  V30 31 1 1 29
M  V30 32 1 1 30
M  V30 33 1 6 31
M  V30 34 1 8 32
M  V30 35 1 9 33
M  V30 36 1 11 34
M  V30 37 1 13 35
M  V30 38 1 13 36
M  V30 39 1 15 37
M  V30 40 1 18 38
M  V30 41 1 20 39
M  V30 42 1 20 40
M  V30 43 1 21 41
M  V30 44 1 24 42
M  V30 45 1 24 43
M  V30 46 1 25 44
M  V30 47 1 25 45
M  V30 48 1 26 46
M  V30 49 1 27 47
M  V30 END BOND
M  V30 END CTAB
M  END
>  <Dataset>  (113) 
ChEMBL_Kinases

>  <Ligand_Instance>  (113) 
nan

>  <PDB_ID>  (113) 
nan

>  <Standardized_SMILES>  (113) 
C/C(=C1/C(=O)Nc2ccc(NC(N)=O)cc21)c1cc(CNC(=O)CN)c[nH]1

>  <Name>  (113) 
nan

>  <Pocket>  (113) 
nan

>  <ATP_Site>  (113) 
nan

>  <Peripheral>  (113) 
nan

>  <Num_H_Atoms_ProtBoundConf>  (113) 
nan

>  <Num_Resolved_Atoms>  (113) 
nan

>  <Num_Not_Resolved_Atoms>  (113) 
nan

$$$$
CHEMBL228862
     RDKit          3D

  0  0  0  0  0  0  0  0  0  0999 V3000
M  V30 BEGIN CTAB
M  V30 COUNTS 28 30 0 0 0
M  V30 BEGIN ATOM
M  V30 1 C -0.532125 -4.225931 2.269287 0
M  V30 2 C -0.313313 -3.291044 3.253408 0
M  V30 3 C 0.543265 -2.246092 3.082420 0
M  V30 4 C 1.260191 -2.051184 1.893616 0
M  V30 5 C 2.172190 -0.906562 1.793878 0
M  V30 6 N 1.435717 0.262473 1.360178 0
M  V30 7 C 0.702647 0.537689 0.173890 0
M  V30 8 N 0.651672 -0.425620 -0.758041 0
M  V30 9 C 0.011150 -0.318291 -1.917102 0
M  V30 10 N -0.655232 0.831219 -2.226166 0
M  V30 11 C -0.633581 1.826941 -1.323361 0
M  V30 12 N -1.147289 3.067256 -1.252792 0
M  V30 13 C -0.831545 3.683615 -0.101027 0
M  V30 14 N -0.076229 2.816460 0.623963 0
M  V30 15 C 0.032483 1.705929 -0.126209 0
M  V30 16 C 1.013645 -3.002085 0.943297 0
M  V30 17 C 0.161914 -4.071990 1.065410 0
M  V30 18 H -1.192559 -5.076123 2.332444 0
M  V30 19 H -0.878613 -3.456014 4.173899 0
M  V30 20 H 0.694401 -1.523264 3.881114 0
M  V30 21 H 2.530409 -0.695146 2.825654 0
M  V30 22 H 3.047595 -1.109112 1.136125 0
M  V30 23 H 1.394771 1.112057 2.001908 0
M  V30 24 H 0.044548 -1.174261 -2.590458 0
M  V30 25 H -1.732732 3.536317 -1.994001 0
M  V30 26 H -1.050001 4.654168 0.317186 0
M  V30 27 H 1.533336 -2.925244 0.004611 0
M  V30 28 H 0.018890 -4.789147 0.259477 0
M  V30 END ATOM
M  V30 BEGIN BOND
M  V30 1 2 1 2
M  V30 2 1 2 3
M  V30 3 2 3 4
M  V30 4 1 4 5
M  V30 5 1 5 6
M  V30 6 1 6 7
M  V30 7 2 7 8
M  V30 8 1 8 9
M  V30 9 2 9 10
M  V30 10 1 10 11
M  V30 11 1 11 12
M  V30 12 1 12 13
M  V30 13 2 13 14
M  V30 14 1 14 15
M  V30 15 1 4 16
M  V30 16 2 16 17
M  V30 17 1 17 1
M  V30 18 1 15 7
M  V30 19 2 15 11
M  V30 20 1 1 18
M  V30 21 1 2 19
M  V30 22 1 3 20
M  V30 23 1 5 21
M  V30 24 1 5 22
M  V30 25 1 6 23
M  V30 26 1 9 24
M  V30 27 1 12 25
M  V30 28 1 13 26
M  V30 29 1 16 27
M  V30 30 1 17 28
M  V30 END BOND
M  V30 END CTAB
M  END
>  <Dataset>  (114) 
ChEMBL_Kinases

>  <Ligand_Instance>  (114) 
nan

>  <PDB_ID>  (114) 
nan

>  <Standardized_SMILES>  (114) 
c1ccc(CNc2ncnc3[nH]cnc23)cc1

>  <Name>  (114) 
6-BENZYLAMINOPURINE

>  <Pocket>  (114) 
nan

>  <ATP_Site>  (114) 
nan

>  <Peripheral>  (114) 
nan

>  <Num_H_Atoms_ProtBoundConf>  (114) 
nan

>  <Num_Resolved_Atoms>  (114) 
nan

>  <Num_Not_Resolved_Atoms>  (114) 
nan

$$$$
CHEMBL229314
     RDKit          3D

  0  0  0  0  0  0  0  0  0  0999 V3000
M  V30 BEGIN CTAB
M  V30 COUNTS 49 52 0 0 0
M  V30 BEGIN ATOM
M  V30 1 C 2.624475 -4.824789 1.559970 0
M  V30 2 C 3.843143 -4.348804 0.857128 0
M  V30 3 N 5.093862 -4.873645 0.703359 0
M  V30 4 N 5.798044 -4.021886 -0.025772 0
M  V30 5 C 5.093078 -2.933946 -0.382714 0
M  V30 6 C 5.393240 -1.821330 -1.113283 0
M  V30 7 C 4.440925 -0.844413 -1.319429 0
M  V30 8 C 3.174083 -1.013397 -0.771204 0
M  V30 9 C 2.180346 0.030738 -1.001179 0
M  V30 10 C 2.131622 0.800460 -2.144106 0
M  V30 11 N 1.153241 1.748633 -2.245928 0
M  V30 12 C 0.264688 1.895273 -1.213707 0
M  V30 13 C 0.291467 1.124219 -0.037928 0
M  V30 14 O -0.748978 1.587126 0.713803 0
M  V30 15 C -1.204165 1.189825 1.961749 0
M  V30 16 C -1.680002 -0.233318 2.039991 0 CFG=1
M  V30 17 N -2.132709 -0.523686 3.384818 0
M  V30 18 C -2.762981 -0.442583 1.014945 0
M  V30 19 C -3.927135 0.422269 1.200949 0
M  V30 20 C -4.148736 1.676331 0.669259 0
M  V30 21 C -5.310126 2.383856 0.935688 0
M  V30 22 C -6.304410 1.846179 1.759028 0
M  V30 23 C -6.091058 0.582287 2.300337 0
M  V30 24 F -7.068368 0.074402 3.099023 0
M  V30 25 C -4.925672 -0.110499 2.023986 0
M  V30 26 C 1.288117 0.181971 0.029685 0
M  V30 27 C 2.900590 -2.149441 -0.037103 0
M  V30 28 C 3.849998 -3.144751 0.180359 0
M  V30 29 H 1.721218 -4.763494 0.930086 0
M  V30 30 H 2.798336 -5.872558 1.941747 0
M  V30 31 H 2.397118 -4.197552 2.466490 0
M  V30 32 H 6.802247 -4.219890 -0.274371 0
M  V30 33 H 6.396900 -1.751398 -1.511808 0
M  V30 34 H 4.701171 0.045913 -1.911192 0
M  V30 35 H 2.881940 0.585326 -2.871897 0
M  V30 36 H -0.399682 2.709457 -1.551201 0
M  V30 37 H -1.998482 1.912966 2.264693 0
M  V30 38 H -0.356325 1.298065 2.678510 0
M  V30 39 H -0.827497 -0.903535 1.859626 0
M  V30 40 H -1.556000 -0.024690 4.101692 0
M  V30 41 H -2.043763 -1.540500 3.618069 0
M  V30 42 H -3.043184 -1.512068 1.027542 0
M  V30 43 H -2.354784 -0.260407 -0.003345 0
M  V30 44 H -3.372895 2.055196 0.047599 0
M  V30 45 H -5.464136 3.369316 0.507190 0
M  V30 46 H -7.213804 2.384136 1.975897 0
M  V30 47 H -4.843379 -1.092414 2.490235 0
M  V30 48 H 1.229845 -0.337510 0.949186 0
M  V30 49 H 1.921475 -2.248895 0.369127 0
M  V30 END ATOM
M  V30 BEGIN BOND
M  V30 1 1 1 2
M  V30 2 2 2 3
M  V30 3 1 3 4
M  V30 4 1 4 5
M  V30 5 2 5 6
M  V30 6 1 6 7
M  V30 7 2 7 8
M  V30 8 1 8 9
M  V30 9 2 9 10
M  V30 10 1 10 11
M  V30 11 2 11 12
M  V30 12 1 12 13
M  V30 13 1 13 14
M  V30 14 1 14 15
M  V30 15 1 15 16
M  V30 16 1 16 17
M  V30 17 1 16 18
M  V30 18 1 18 19
M  V30 19 2 19 20
M  V30 20 1 20 21
M  V30 21 2 21 22
M  V30 22 1 22 23
M  V30 23 1 23 24
M  V30 24 2 23 25
M  V30 25 2 13 26
M  V30 26 1 8 27
M  V30 27 2 27 28
M  V30 28 1 28 2
M  V30 29 1 28 5
M  V30 30 1 26 9
M  V30 31 1 25 19
M  V30 32 1 1 29
M  V30 33 1 1 30
M  V30 34 1 1 31
M  V30 35 1 4 32
M  V30 36 1 6 33
M  V30 37 1 7 34
M  V30 38 1 10 35
M  V30 39 1 12 36
M  V30 40 1 15 37
M  V30 41 1 15 38
M  V30 42 1 16 39 CFG=3
M  V30 43 1 17 40
M  V30 44 1 17 41
M  V30 45 1 18 42
M  V30 46 1 18 43
M  V30 47 1 20 44
M  V30 48 1 21 45
M  V30 49 1 22 46
M  V30 50 1 25 47
M  V30 51 1 26 48
M  V30 52 1 27 49
M  V30 END BOND
M  V30 END CTAB
M  END
>  <Dataset>  (115) 
ChEMBL_Kinases

>  <Ligand_Instance>  (115) 
nan

>  <PDB_ID>  (115) 
nan

>  <Standardized_SMILES>  (115) 
Cc1n[nH]c2ccc(-c3cncc(OC[C@@H](N)Cc4cccc(F)c4)c3)cc12

>  <Name>  (115) 
nan

>  <Pocket>  (115) 
nan

>  <ATP_Site>  (115) 
nan

>  <Peripheral>  (115) 
nan

>  <Num_H_Atoms_ProtBoundConf>  (115) 
nan

>  <Num_Resolved_Atoms>  (115) 
nan

>  <Num_Not_Resolved_Atoms>  (115) 
nan

$$$$
CHEMBL229315
     RDKit          3D

  0  0  0  0  0  0  0  0  0  0999 V3000
M  V30 BEGIN CTAB
M  V30 COUNTS 49 52 0 0 0
M  V30 BEGIN ATOM
M  V30 1 C 2.458045 -4.075628 3.663045 0
M  V30 2 C 3.727201 -3.530216 3.137970 0
M  V30 3 N 4.951133 -3.898653 3.589374 0
M  V30 4 N 5.902656 -3.248846 2.938270 0
M  V30 5 C 5.307939 -2.427810 2.031661 0
M  V30 6 C 5.782099 -1.528876 1.092071 0
M  V30 7 C 4.879223 -0.843057 0.316280 0
M  V30 8 C 3.492527 -0.989064 0.407950 0
M  V30 9 C 2.607389 -0.215082 -0.458775 0
M  V30 10 C 2.902940 0.187357 -1.743685 0
M  V30 11 N 1.981279 0.919181 -2.440648 0
M  V30 12 C 0.791398 1.228364 -1.835588 0
M  V30 13 C 0.454984 0.834582 -0.525057 0
M  V30 14 O -0.794248 1.330646 -0.291626 0
M  V30 15 C -1.613520 1.243726 0.811503 0
M  V30 16 C -2.054994 -0.128147 1.229449 0 CFG=1
M  V30 17 N -2.894290 0.006095 2.406094 0
M  V30 18 C -2.804174 -0.839341 0.119451 0
M  V30 19 C -4.022717 -0.089586 -0.284140 0
M  V30 20 C -4.088893 0.692397 -1.440598 0
M  V30 21 C -5.260081 1.381504 -1.762741 0
M  V30 22 C -6.372697 1.318950 -0.970001 0
M  V30 23 F -7.476086 2.023099 -1.356953 0
M  V30 24 C -6.295145 0.550118 0.158883 0
M  V30 25 C -5.160589 -0.148899 0.519037 0
M  V30 26 F -5.236525 -0.871590 1.662366 0
M  V30 27 C 1.408718 0.099161 0.144134 0
M  V30 28 C 3.035357 -1.888122 1.348357 0
M  V30 29 C 3.943288 -2.590968 2.142660 0
M  V30 30 H 2.579643 -4.212932 4.773962 0
M  V30 31 H 1.598356 -3.401345 3.545115 0
M  V30 32 H 2.243119 -5.075950 3.229135 0
M  V30 33 H 6.943284 -3.350911 3.097302 0
M  V30 34 H 6.853140 -1.386782 0.990882 0
M  V30 35 H 5.309576 -0.148767 -0.406654 0
M  V30 36 H 3.878814 -0.109905 -2.137397 0
M  V30 37 H 0.232508 1.809406 -2.583764 0
M  V30 38 H -2.551070 1.829429 0.563574 0
M  V30 39 H -1.217881 1.764554 1.713362 0
M  V30 40 H -1.176780 -0.706434 1.545411 0
M  V30 41 H -2.848716 -0.768637 3.069411 0
M  V30 42 H -2.943902 0.956458 2.786254 0
M  V30 43 H -3.160380 -1.813874 0.529064 0
M  V30 44 H -2.123821 -0.990978 -0.735909 0
M  V30 45 H -3.168598 0.695928 -2.021930 0
M  V30 46 H -5.219173 1.957884 -2.670563 0
M  V30 47 H -7.202464 0.515678 0.779972 0
M  V30 48 H 1.056373 -0.136865 1.114377 0
M  V30 49 H 1.958657 -2.034705 1.455251 0
M  V30 END ATOM
M  V30 BEGIN BOND
M  V30 1 1 1 2
M  V30 2 2 2 3
M  V30 3 1 3 4
M  V30 4 1 4 5
M  V30 5 2 5 6
M  V30 6 1 6 7
M  V30 7 2 7 8
M  V30 8 1 8 9
M  V30 9 2 9 10
M  V30 10 1 10 11
M  V30 11 2 11 12
M  V30 12 1 12 13
M  V30 13 1 13 14
M  V30 14 1 14 15
M  V30 15 1 15 16
M  V30 16 1 16 17
M  V30 17 1 16 18
M  V30 18 1 18 19
M  V30 19 2 19 20
M  V30 20 1 20 21
M  V30 21 2 21 22
M  V30 22 1 22 23
M  V30 23 1 22 24
M  V30 24 2 24 25
M  V30 25 1 25 26
M  V30 26 2 13 27
M  V30 27 1 8 28
M  V30 28 2 28 29
M  V30 29 1 29 2
M  V30 30 1 29 5
M  V30 31 1 27 9
M  V30 32 1 25 19
M  V30 33 1 1 30
M  V30 34 1 1 31
M  V30 35 1 1 32
M  V30 36 1 4 33
M  V30 37 1 6 34
M  V30 38 1 7 35
M  V30 39 1 10 36
M  V30 40 1 12 37
M  V30 41 1 15 38
M  V30 42 1 15 39
M  V30 43 1 16 40 CFG=1
M  V30 44 1 17 41
M  V30 45 1 17 42
M  V30 46 1 18 43
M  V30 47 1 18 44
M  V30 48 1 20 45
M  V30 49 1 21 46
M  V30 50 1 24 47
M  V30 51 1 27 48
M  V30 52 1 28 49
M  V30 END BOND
M  V30 END CTAB
M  END
>  <Dataset>  (116) 
ChEMBL_Kinases

>  <Ligand_Instance>  (116) 
nan

>  <PDB_ID>  (116) 
nan

>  <Standardized_SMILES>  (116) 
Cc1n[nH]c2ccc(-c3cncc(OC[C@@H](N)Cc4ccc(F)cc4F)c3)cc12

>  <Name>  (116) 
nan

>  <Pocket>  (116) 
nan

>  <ATP_Site>  (116) 
nan

>  <Peripheral>  (116) 
nan

>  <Num_H_Atoms_ProtBoundConf>  (116) 
nan

>  <Num_Resolved_Atoms>  (116) 
nan

>  <Num_Not_Resolved_Atoms>  (116) 
nan

$$$$
CHEMBL229320
     RDKit          3D

  0  0  0  0  0  0  0  0  0  0999 V3000
M  V30 BEGIN CTAB
M  V30 COUNTS 49 52 0 0 0
M  V30 BEGIN ATOM
M  V30 1 C 2.926569 -4.278886 2.277850 0
M  V30 2 C 4.122726 -3.770041 1.567178 0
M  V30 3 N 5.403723 -4.174206 1.563450 0
M  V30 4 N 6.143616 -3.424584 0.776554 0
M  V30 5 C 5.372531 -2.469938 0.210936 0
M  V30 6 C 5.623054 -1.441672 -0.673756 0
M  V30 7 C 4.582276 -0.602021 -1.078782 0
M  V30 8 C 3.296404 -0.803529 -0.590270 0
M  V30 9 C 2.210564 0.075160 -1.014232 0
M  V30 10 C 2.128457 0.674281 -2.253296 0
M  V30 11 N 1.058836 1.478651 -2.530746 0
M  V30 12 C 0.100457 1.665237 -1.569443 0
M  V30 13 C 0.149802 1.075567 -0.304875 0
M  V30 14 O -0.965258 1.496361 0.354527 0
M  V30 15 C -1.434598 1.220075 1.628399 0
M  V30 16 C -1.753045 -0.230106 1.898411 0 CFG=1
M  V30 17 N -2.235382 -0.378127 3.258123 0
M  V30 18 C -2.744311 -0.726430 0.884079 0
M  V30 19 C -4.015839 -0.001847 0.887047 0
M  V30 20 C -4.337790 1.121674 0.142874 0
M  V30 21 C -5.577870 1.737453 0.218900 0
M  V30 22 C -6.528607 1.201679 1.076185 0
M  V30 23 C -6.286431 0.087426 1.849176 0
M  V30 24 I -7.714092 -0.740490 3.154532 0
M  V30 25 C -5.041625 -0.459150 1.716127 0
M  V30 26 C 1.240524 0.271242 -0.057001 0
M  V30 27 C 3.098762 -1.843953 0.290548 0
M  V30 28 C 4.106194 -2.679425 0.700765 0
M  V30 29 H 2.013332 -4.291564 1.659723 0
M  V30 30 H 3.161851 -5.308313 2.624020 0
M  V30 31 H 2.792104 -3.693429 3.226587 0
M  V30 32 H 7.181790 -3.548543 0.611000 0
M  V30 33 H 6.649186 -1.310694 -1.039743 0
M  V30 34 H 4.792528 0.213120 -1.783468 0
M  V30 35 H 2.934768 0.467214 -2.949297 0
M  V30 36 H -0.624238 2.330223 -2.028889 0
M  V30 37 H -2.304075 1.880986 1.870513 0
M  V30 38 H -0.640185 1.578753 2.355647 0
M  V30 39 H -0.815107 -0.801677 1.855043 0
M  V30 40 H -1.464812 -0.145799 3.919881 0
M  V30 41 H -2.386947 -1.419998 3.374683 0
M  V30 42 H -2.954811 -1.793418 1.111134 0
M  V30 43 H -2.311166 -0.643442 -0.119404 0
M  V30 44 H -3.573494 1.498742 -0.504648 0
M  V30 45 H -5.762642 2.609435 -0.388179 0
M  V30 46 H -7.494590 1.682559 1.134434 0
M  V30 47 H -4.843020 -1.350595 2.332215 0
M  V30 48 H 1.202274 -0.126257 0.922294 0
M  V30 49 H 2.110508 -2.015156 0.678793 0
M  V30 END ATOM
M  V30 BEGIN BOND
M  V30 1 1 1 2
M  V30 2 2 2 3
M  V30 3 1 3 4
M  V30 4 1 4 5
M  V30 5 2 5 6
M  V30 6 1 6 7
M  V30 7 2 7 8
M  V30 8 1 8 9
M  V30 9 2 9 10
M  V30 10 1 10 11
M  V30 11 2 11 12
M  V30 12 1 12 13
M  V30 13 1 13 14
M  V30 14 1 14 15
M  V30 15 1 15 16
M  V30 16 1 16 17
M  V30 17 1 16 18
M  V30 18 1 18 19
M  V30 19 2 19 20
M  V30 20 1 20 21
M  V30 21 2 21 22
M  V30 22 1 22 23
M  V30 23 1 23 24
M  V30 24 2 23 25
M  V30 25 2 13 26
M  V30 26 1 8 27
M  V30 27 2 27 28
M  V30 28 1 28 2
M  V30 29 1 28 5
M  V30 30 1 26 9
M  V30 31 1 25 19
M  V30 32 1 1 29
M  V30 33 1 1 30
M  V30 34 1 1 31
M  V30 35 1 4 32
M  V30 36 1 6 33
M  V30 37 1 7 34
M  V30 38 1 10 35
M  V30 39 1 12 36
M  V30 40 1 15 37
M  V30 41 1 15 38
M  V30 42 1 16 39 CFG=1
M  V30 43 1 17 40
M  V30 44 1 17 41
M  V30 45 1 18 42
M  V30 46 1 18 43
M  V30 47 1 20 44
M  V30 48 1 21 45
M  V30 49 1 22 46
M  V30 50 1 25 47
M  V30 51 1 26 48
M  V30 52 1 27 49
M  V30 END BOND
M  V30 END CTAB
M  END
>  <Dataset>  (117) 
ChEMBL_Kinases

>  <Ligand_Instance>  (117) 
nan

>  <PDB_ID>  (117) 
nan

>  <Standardized_SMILES>  (117) 
Cc1n[nH]c2ccc(-c3cncc(OC[C@@H](N)Cc4cccc(I)c4)c3)cc12

>  <Name>  (117) 
nan

>  <Pocket>  (117) 
nan

>  <ATP_Site>  (117) 
nan

>  <Peripheral>  (117) 
nan

>  <Num_H_Atoms_ProtBoundConf>  (117) 
nan

>  <Num_Resolved_Atoms>  (117) 
nan

>  <Num_Not_Resolved_Atoms>  (117) 
nan

$$$$
CHEMBL228757
     RDKit          3D

  0  0  0  0  0  0  0  0  0  0999 V3000
M  V30 BEGIN CTAB
M  V30 COUNTS 57 60 0 0 0
M  V30 BEGIN ATOM
M  V30 1 C 0.497131 0.684474 1.399186 0
M  V30 2 C 1.278937 0.088637 0.290271 0
M  V30 3 C 2.560647 0.333141 0.098494 0
M  V30 4 C 3.462021 -0.167006 -0.938533 0
M  V30 5 O 3.197319 -0.920855 -1.879469 0
M  V30 6 N 4.779657 0.334923 -0.754838 0
M  V30 7 C 4.717643 1.168128 0.415764 0
M  V30 8 C 5.762837 1.878448 0.991282 0
M  V30 9 C 5.483520 2.619499 2.119452 0
M  V30 10 C 4.209971 2.653395 2.657067 0
M  V30 11 N 4.086155 3.463350 3.820281 0
M  V30 12 C 3.750308 4.800249 3.409697 0
M  V30 13 N 3.534169 5.928555 4.239424 0
M  V30 14 O 3.641617 4.957166 2.147930 0
M  V30 15 C 3.198597 1.919392 2.035867 0
M  V30 16 C 3.431421 1.167639 0.910776 0
M  V30 17 C 0.601429 -0.844904 -0.594186 0
M  V30 18 C -0.609134 -0.475296 -1.199018 0
M  V30 19 C -1.117176 -1.513549 -1.987008 0
M  V30 20 C -2.372525 -1.430497 -2.750806 0
M  V30 21 N -3.496506 -1.908371 -1.970249 0
M  V30 22 C -3.789127 -3.305292 -1.758447 0
M  V30 23 O -2.915122 -3.998976 -2.363078 0
M  V30 24 C -4.984686 -3.605674 -0.925484 0
M  V30 25 C -5.167336 -5.085703 -0.865387 0
M  V30 26 C -4.003739 -5.800953 -0.263920 0
M  V30 27 N -3.530993 -5.129288 0.928694 0
M  V30 28 C -4.584083 -4.243908 1.421884 0
M  V30 29 C -4.759839 -3.064469 0.483235 0
M  V30 30 C -0.169188 -2.495621 -1.822292 0
M  V30 31 N 0.814518 -2.080010 -1.009410 0
M  V30 32 H -0.565387 0.291499 1.273765 0
M  V30 33 H 0.353149 1.779965 1.314491 0
M  V30 34 H 0.771273 0.311281 2.392473 0
M  V30 35 H 5.635313 0.150594 -1.337911 0
M  V30 36 H 6.758196 1.860599 0.584011 0
M  V30 37 H 6.305812 3.159060 2.546005 0
M  V30 38 H 4.171093 3.356401 4.864549 0
M  V30 39 H 2.490398 6.063983 4.391960 0
M  V30 40 H 3.927690 6.725398 4.796930 0
M  V30 41 H 2.266844 2.030141 2.548127 0
M  V30 42 H -1.124227 0.484598 -1.096677 0
M  V30 43 H -2.341142 -2.109498 -3.650696 0
M  V30 44 H -2.584898 -0.426900 -3.130242 0
M  V30 45 H -4.129494 -1.171009 -1.536953 0
M  V30 46 H -5.886694 -3.135059 -1.358049 0
M  V30 47 H -6.129206 -5.298255 -0.355125 0
M  V30 48 H -5.299018 -5.440278 -1.923581 0
M  V30 49 H -4.342724 -6.844594 -0.037887 0
M  V30 50 H -3.195264 -5.863616 -1.003994 0
M  V30 51 H -2.662849 -4.599709 0.775005 0
M  V30 52 H -5.532739 -4.806733 1.530069 0
M  V30 53 H -4.312494 -3.876314 2.426370 0
M  V30 54 H -3.808798 -2.468311 0.553150 0
M  V30 55 H -5.600176 -2.483292 0.870758 0
M  V30 56 H -0.233114 -3.459438 -2.296667 0
M  V30 57 H 1.622024 -2.670888 -0.735970 0
M  V30 END ATOM
M  V30 BEGIN BOND
M  V30 1 1 1 2
M  V30 2 2 2 3
M  V30 3 1 3 4
M  V30 4 2 4 5
M  V30 5 1 4 6
M  V30 6 1 6 7
M  V30 7 2 7 8
M  V30 8 1 8 9
M  V30 9 2 9 10
M  V30 10 1 10 11
M  V30 11 1 11 12
M  V30 12 1 12 13
M  V30 13 2 12 14
M  V30 14 1 10 15
M  V30 15 2 15 16
M  V30 16 1 2 17
M  V30 17 2 17 18
M  V30 18 1 18 19
M  V30 19 1 19 20
M  V30 20 1 20 21
M  V30 21 1 21 22
M  V30 22 2 22 23
M  V30 23 1 22 24
M  V30 24 1 24 25
M  V30 25 1 25 26
M  V30 26 1 26 27
M  V30 27 1 27 28
M  V30 28 1 28 29
M  V30 29 2 19 30
M  V30 30 1 30 31
M  V30 31 1 16 3
M  V30 32 1 31 17
M  V30 33 1 16 7
M  V30 34 1 29 24
M  V30 35 1 1 32
M  V30 36 1 1 33
M  V30 37 1 1 34
M  V30 38 1 6 35
M  V30 39 1 8 36
M  V30 40 1 9 37
M  V30 41 1 11 38
M  V30 42 1 13 39
M  V30 43 1 13 40
M  V30 44 1 15 41
M  V30 45 1 18 42
M  V30 46 1 20 43
M  V30 47 1 20 44
M  V30 48 1 21 45
M  V30 49 1 24 46
M  V30 50 1 25 47
M  V30 51 1 25 48
M  V30 52 1 26 49
M  V30 53 1 26 50
M  V30 54 1 27 51
M  V30 55 1 28 52
M  V30 56 1 28 53
M  V30 57 1 29 54
M  V30 58 1 29 55
M  V30 59 1 30 56
M  V30 60 1 31 57
M  V30 END BOND
M  V30 END CTAB
M  END
>  <Dataset>  (118) 
ChEMBL_Kinases

>  <Ligand_Instance>  (118) 
nan

>  <PDB_ID>  (118) 
nan

>  <Standardized_SMILES>  (118) 
C/C(=C1/C(=O)Nc2ccc(NC(N)=O)cc21)c1cc(CNC(=O)C2CCNCC2)c[nH]1

>  <Name>  (118) 
nan

>  <Pocket>  (118) 
nan

>  <ATP_Site>  (118) 
nan

>  <Peripheral>  (118) 
nan

>  <Num_H_Atoms_ProtBoundConf>  (118) 
nan

>  <Num_Resolved_Atoms>  (118) 
nan

>  <Num_Not_Resolved_Atoms>  (118) 
nan

$$$$
CHEMBL230569
     RDKit          3D

  0  0  0  0  0  0  0  0  0  0999 V3000
M  V30 BEGIN CTAB
M  V30 COUNTS 47 50 0 0 0
M  V30 BEGIN ATOM
M  V30 1 C -1.422432 -3.727566 -0.433263 0
M  V30 2 C -2.014605 -2.533631 -1.145442 0
M  V30 3 C -0.929592 -1.719999 -1.785455 0
M  V30 4 C -0.643177 -1.733806 -3.154208 0
M  V30 5 N 0.382681 -0.875591 -3.254571 0
M  V30 6 N 0.692141 -0.385039 -2.060817 0
M  V30 7 C 1.662835 0.498430 -1.779463 0
M  V30 8 N 2.581849 1.103684 -2.679708 0
M  V30 9 C 3.640631 2.047492 -2.539324 0
M  V30 10 C 4.794414 1.739097 -1.616334 0
M  V30 11 C 3.791048 2.844559 -1.312695 0
M  V30 12 N 1.795950 0.854773 -0.500615 0
M  V30 13 C 1.049433 0.409874 0.520847 0
M  V30 14 N 1.288331 0.856332 1.847454 0
M  V30 15 C 0.618091 0.539097 3.053916 0
M  V30 16 C 1.113535 1.049212 4.257764 0
M  V30 17 C 0.495413 0.770438 5.442811 0
M  V30 18 C -0.621814 -0.014440 5.473149 0
M  V30 19 C -1.150498 -0.541499 4.316394 0
M  V30 20 N -2.310310 -1.339954 4.464856 0
M  V30 21 C -3.105617 -2.009790 3.500180 0
M  V30 22 C -4.296761 -2.818151 3.764969 0
M  V30 23 O -2.765981 -1.907986 2.296347 0
M  V30 24 C -0.509672 -0.243072 3.159339 0
M  V30 25 N 0.108059 -0.468219 0.135821 0
M  V30 26 C -0.086643 -0.870566 -1.107166 0
M  V30 27 H -1.672748 -4.664580 -1.004797 0
M  V30 28 H -0.320453 -3.640300 -0.391647 0
M  V30 29 H -1.772529 -3.831505 0.613427 0
M  V30 30 H -2.717503 -2.881416 -1.952346 0
M  V30 31 H -2.582872 -1.891936 -0.442103 0
M  V30 32 H -1.134056 -2.301155 -3.935120 0
M  V30 33 H 2.382611 0.724328 -3.654331 0
M  V30 34 H 3.929048 2.542650 -3.512098 0
M  V30 35 H 5.810632 2.058347 -1.850946 0
M  V30 36 H 4.724076 0.786950 -1.058421 0
M  V30 37 H 3.251300 2.676260 -0.385241 0
M  V30 38 H 4.180864 3.884631 -1.451251 0
M  V30 39 H 2.101725 1.537185 1.936789 0
M  V30 40 H 2.006294 1.683596 4.288315 0
M  V30 41 H 0.883561 1.167526 6.369034 0
M  V30 42 H -1.075714 -0.204620 6.453948 0
M  V30 43 H -2.715843 -1.515926 5.420528 0
M  V30 44 H -5.211692 -2.259921 3.421367 0
M  V30 45 H -4.447288 -2.917938 4.877836 0
M  V30 46 H -4.299852 -3.790139 3.265403 0
M  V30 47 H -0.886784 -0.629986 2.248463 0
M  V30 END ATOM
M  V30 BEGIN BOND
M  V30 1 1 1 2
M  V30 2 1 2 3
M  V30 3 1 3 4
M  V30 4 2 4 5
M  V30 5 1 5 6
M  V30 6 1 6 7
M  V30 7 1 7 8
M  V30 8 1 8 9
M  V30 9 1 9 10
M  V30 10 1 10 11
M  V30 11 2 7 12
M  V30 12 1 12 13
M  V30 13 1 13 14
M  V30 14 1 14 15
M  V30 15 2 15 16
M  V30 16 1 16 17
M  V30 17 2 17 18
M  V30 18 1 18 19
M  V30 19 1 19 20
M  V30 20 1 20 21
M  V30 21 1 21 22
M  V30 22 2 21 23
M  V30 23 2 19 24
M  V30 24 2 13 25
M  V30 25 1 25 26
M  V30 26 2 26 3
M  V30 27 1 26 6
M  V30 28 1 11 9
M  V30 29 1 24 15
M  V30 30 1 1 27
M  V30 31 1 1 28
M  V30 32 1 1 29
M  V30 33 1 2 30
M  V30 34 1 2 31
M  V30 35 1 4 32
M  V30 36 1 8 33
M  V30 37 1 9 34
M  V30 38 1 10 35
M  V30 39 1 10 36
M  V30 40 1 11 37
M  V30 41 1 11 38
M  V30 42 1 14 39
M  V30 43 1 16 40
M  V30 44 1 17 41
M  V30 45 1 18 42
M  V30 46 1 20 43
M  V30 47 1 22 44
M  V30 48 1 22 45
M  V30 49 1 22 46
M  V30 50 1 24 47
M  V30 END BOND
M  V30 END CTAB
M  END
>  <Dataset>  (119) 
ChEMBL_Kinases

>  <Ligand_Instance>  (119) 
nan

>  <PDB_ID>  (119) 
nan

>  <Standardized_SMILES>  (119) 
CCc1cnn2c(NC3CC3)nc(Nc3cccc(NC(C)=O)c3)nc12

>  <Name>  (119) 
nan

>  <Pocket>  (119) 
nan

>  <ATP_Site>  (119) 
nan

>  <Peripheral>  (119) 
nan

>  <Num_H_Atoms_ProtBoundConf>  (119) 
nan

>  <Num_Resolved_Atoms>  (119) 
nan

>  <Num_Not_Resolved_Atoms>  (119) 
nan

$$$$
CHEMBL230568
     RDKit          3D

  0  0  0  0  0  0  0  0  0  0999 V3000
M  V30 BEGIN CTAB
M  V30 COUNTS 47 50 0 0 0
M  V30 BEGIN ATOM
M  V30 1 C 0.071882 -4.938761 2.702016 0
M  V30 2 C 0.998724 -3.816816 2.491235 0
M  V30 3 O 1.280333 -3.024118 3.418027 0
M  V30 4 N 1.550141 -3.687701 1.186503 0
M  V30 5 C 2.443850 -2.875458 0.404650 0
M  V30 6 C 3.779975 -3.088171 0.244423 0
M  V30 7 C 4.508587 -2.219049 -0.539921 0
M  V30 8 C 3.872650 -1.156814 -1.143723 0
M  V30 9 C 2.504769 -0.908628 -1.000994 0
M  V30 10 N 1.862144 0.203342 -1.658566 0
M  V30 11 C 0.503173 0.418654 -1.304670 0
M  V30 12 N 0.348907 1.381384 -0.368091 0
M  V30 13 C -0.850672 1.739181 0.132486 0
M  V30 14 N -0.857079 2.789971 1.113953 0
M  V30 15 C -0.560726 2.609659 2.478291 0
M  V30 16 C -0.641616 3.700680 3.306997 0
M  V30 17 C -0.323243 3.462034 4.632005 0
M  V30 18 C 0.046579 2.221942 5.083946 0
M  V30 19 C 0.117658 1.139179 4.217709 0
M  V30 20 C -0.196685 1.340377 2.870805 0
M  V30 21 N -1.970349 1.127599 -0.299486 0
M  V30 22 N -3.228266 1.283716 0.019068 0
M  V30 23 C -3.999975 0.419455 -0.699658 0
M  V30 24 C -3.094479 -0.271673 -1.479814 0
M  V30 25 C -3.441665 -1.344026 -2.450511 0
M  V30 26 C -1.815886 0.176191 -1.226223 0
M  V30 27 N -0.616860 -0.197698 -1.742476 0
M  V30 28 C 1.782185 -1.800764 -0.201541 0
M  V30 29 H -0.812607 -4.522833 3.267151 0
M  V30 30 H 0.481506 -5.737381 3.360443 0
M  V30 31 H -0.354680 -5.352662 1.768049 0
M  V30 32 H 1.289064 -4.378670 0.421673 0
M  V30 33 H 4.209994 -3.936229 0.745056 0
M  V30 34 H 5.580834 -2.388590 -0.669060 0
M  V30 35 H 4.430453 -0.457617 -1.768339 0
M  V30 36 H 2.463409 0.743660 -2.330890 0
M  V30 37 H -1.107357 3.701767 0.704470 0
M  V30 38 H -0.939960 4.666449 2.899563 0
M  V30 39 H -0.392346 4.346182 5.286191 0
M  V30 40 H 0.277457 2.135826 6.144915 0
M  V30 41 H 0.418607 0.223911 4.688263 0
M  V30 42 H -0.124943 0.476168 2.253494 0
M  V30 43 H -5.070162 0.306030 -0.660755 0
M  V30 44 H -4.458996 -1.761879 -2.225921 0
M  V30 45 H -3.365381 -0.892176 -3.454064 0
M  V30 46 H -2.714246 -2.195314 -2.407667 0
M  V30 47 H 0.705386 -1.604597 -0.087416 0
M  V30 END ATOM
M  V30 BEGIN BOND
M  V30 1 1 1 2
M  V30 2 2 2 3
M  V30 3 1 2 4
M  V30 4 1 4 5
M  V30 5 2 5 6
M  V30 6 1 6 7
M  V30 7 2 7 8
M  V30 8 1 8 9
M  V30 9 1 9 10
M  V30 10 1 10 11
M  V30 11 1 11 12
M  V30 12 2 12 13
M  V30 13 1 13 14
M  V30 14 1 14 15
M  V30 15 2 15 16
M  V30 16 1 16 17
M  V30 17 2 17 18
M  V30 18 1 18 19
M  V30 19 2 19 20
M  V30 20 1 13 21
M  V30 21 1 21 22
M  V30 22 2 22 23
M  V30 23 1 23 24
M  V30 24 1 24 25
M  V30 25 2 24 26
M  V30 26 1 26 27
M  V30 27 2 9 28
M  V30 28 1 28 5
M  V30 29 2 27 11
M  V30 30 1 20 15
M  V30 31 1 26 21
M  V30 32 1 1 29
M  V30 33 1 1 30
M  V30 34 1 1 31
M  V30 35 1 4 32
M  V30 36 1 6 33
M  V30 37 1 7 34
M  V30 38 1 8 35
M  V30 39 1 10 36
M  V30 40 1 14 37
M  V30 41 1 16 38
M  V30 42 1 17 39
M  V30 43 1 18 40
M  V30 44 1 19 41
M  V30 45 1 20 42
M  V30 46 1 23 43
M  V30 47 1 25 44
M  V30 48 1 25 45
M  V30 49 1 25 46
M  V30 50 1 28 47
M  V30 END BOND
M  V30 END CTAB
M  END
>  <Dataset>  (120) 
ChEMBL_Kinases

>  <Ligand_Instance>  (120) 
nan

>  <PDB_ID>  (120) 
nan

>  <Standardized_SMILES>  (120) 
CC(=O)Nc1cccc(Nc2nc(Nc3ccccc3)n3ncc(C)c3n2)c1

>  <Name>  (120) 
nan

>  <Pocket>  (120) 
nan

>  <ATP_Site>  (120) 
nan

>  <Peripheral>  (120) 
nan

>  <Num_H_Atoms_ProtBoundConf>  (120) 
nan

>  <Num_Resolved_Atoms>  (120) 
nan

>  <Num_Not_Resolved_Atoms>  (120) 
nan

$$$$
CHEMBL230554
     RDKit          3D

  0  0  0  0  0  0  0  0  0  0999 V3000
M  V30 BEGIN CTAB
M  V30 COUNTS 51 54 0 0 0
M  V30 BEGIN ATOM
M  V30 1 C 3.753490 0.648466 3.513686 0
M  V30 2 C 3.536177 -0.190471 2.292215 0
M  V30 3 C 4.171416 -1.544748 2.545917 0
M  V30 4 C 4.167410 0.387360 1.080648 0
M  V30 5 N 5.433460 0.155883 0.624934 0
M  V30 6 C 5.619623 0.862754 -0.493340 0
M  V30 7 N 4.479025 1.550142 -0.762220 0
M  V30 8 C 3.564964 1.271616 0.199006 0
M  V30 9 C 2.161886 1.769628 0.360623 0
M  V30 10 N 1.191232 0.775436 -0.017172 0
M  V30 11 C -0.203518 1.050483 0.065636 0
M  V30 12 C -0.616746 2.300512 0.520130 0
M  V30 13 C -1.970864 2.559497 0.597521 0
M  V30 14 Cl -2.579268 4.109222 1.160012 0
M  V30 15 C -2.893364 1.600904 0.232572 0
M  V30 16 N -4.207576 1.875382 0.316596 0
M  V30 17 C -5.170490 1.000675 -0.017598 0
M  V30 18 C -4.753937 -0.235590 -0.467092 0
M  V30 19 C -5.723949 -1.234875 -0.847619 0
M  V30 20 N -6.489047 -2.050212 -1.157179 0
M  V30 21 C -3.405049 -0.588901 -0.579696 0
M  V30 22 N -2.986766 -1.867755 -1.044261 0
M  V30 23 C -2.707845 -3.093096 -0.374046 0
M  V30 24 C -2.324208 -4.161498 -1.158661 0
M  V30 25 C -2.060545 -5.333443 -0.479304 0
M  V30 26 C -2.177199 -5.414407 0.888662 0
M  V30 27 F -1.911718 -6.586829 1.550983 0
M  V30 28 C -2.564564 -4.321641 1.641482 0
M  V30 29 Cl -2.708195 -4.447460 3.397126 0
M  V30 30 C -2.843070 -3.110598 0.999053 0
M  V30 31 C -2.471075 0.365199 -0.216575 0
M  V30 32 C -1.122312 0.087802 -0.300769 0
M  V30 33 H 3.800768 1.733601 3.300882 0
M  V30 34 H 2.900098 0.458161 4.210513 0
M  V30 35 H 4.656828 0.305881 4.026924 0
M  V30 36 H 2.459162 -0.396150 2.160921 0
M  V30 37 H 4.403794 -2.065297 1.579516 0
M  V30 38 H 3.515163 -2.177037 3.180137 0
M  V30 39 H 5.134348 -1.374431 3.042827 0
M  V30 40 H 6.144439 -0.466973 1.068389 0
M  V30 41 H 6.547499 0.859656 -1.063226 0
M  V30 42 H 1.981084 2.637999 -0.309342 0
M  V30 43 H 1.972724 2.149504 1.390506 0
M  V30 44 H 1.521361 -0.148117 -0.352235 0
M  V30 45 H 0.068827 3.079067 0.815688 0
M  V30 46 H -6.235937 1.209363 0.045247 0
M  V30 47 H -2.909352 -1.744112 -2.078028 0
M  V30 48 H -2.242464 -4.059635 -2.241022 0
M  V30 49 H -1.753376 -6.216515 -1.031564 0
M  V30 50 H -3.148881 -2.233517 1.555006 0
M  V30 51 H -0.755756 -0.867595 -0.647750 0
M  V30 END ATOM
M  V30 BEGIN BOND
M  V30 1 1 1 2
M  V30 2 1 2 3
M  V30 3 1 2 4
M  V30 4 1 4 5
M  V30 5 1 5 6
M  V30 6 2 6 7
M  V30 7 1 7 8
M  V30 8 1 8 9
M  V30 9 1 9 10
M  V30 10 1 10 11
M  V30 11 2 11 12
M  V30 12 1 12 13
M  V30 13 1 13 14
M  V30 14 2 13 15
M  V30 15 1 15 16
M  V30 16 2 16 17
M  V30 17 1 17 18
M  V30 18 1 18 19
M  V30 19 3 19 20
M  V30 20 2 18 21
M  V30 21 1 21 22
M  V30 22 1 22 23
M  V30 23 2 23 24
M  V30 24 1 24 25
M  V30 25 2 25 26
M  V30 26 1 26 27
M  V30 27 1 26 28
M  V30 28 1 28 29
M  V30 29 2 28 30
M  V30 30 1 21 31
M  V30 31 2 31 32
M  V30 32 2 8 4
M  V30 33 1 32 11
M  V30 34 1 31 15
M  V30 35 1 30 23
M  V30 36 1 1 33
M  V30 37 1 1 34
M  V30 38 1 1 35
M  V30 39 1 2 36
M  V30 40 1 3 37
M  V30 41 1 3 38
M  V30 42 1 3 39
M  V30 43 1 5 40
M  V30 44 1 6 41
M  V30 45 1 9 42
M  V30 46 1 9 43
M  V30 47 1 10 44
M  V30 48 1 12 45
M  V30 49 1 17 46
M  V30 50 1 22 47
M  V30 51 1 24 48
M  V30 52 1 25 49
M  V30 53 1 30 50
M  V30 54 1 32 51
M  V30 END BOND
M  V30 END CTAB
M  END
>  <Dataset>  (121) 
ChEMBL_Kinases

>  <Ligand_Instance>  (121) 
nan

>  <PDB_ID>  (121) 
nan

>  <Standardized_SMILES>  (121) 
CC(C)c1[nH]cnc1CNc1cc(Cl)c2ncc(C#N)c(Nc3ccc(F)c(Cl)c3)c2c1

>  <Name>  (121) 
nan

>  <Pocket>  (121) 
nan

>  <ATP_Site>  (121) 
nan

>  <Peripheral>  (121) 
nan

>  <Num_H_Atoms_ProtBoundConf>  (121) 
nan

>  <Num_Resolved_Atoms>  (121) 
nan

>  <Num_Not_Resolved_Atoms>  (121) 
nan

$$$$
CHEMBL230553
     RDKit          3D

  0  0  0  0  0  0  0  0  0  0999 V3000
M  V30 BEGIN CTAB
M  V30 COUNTS 51 54 0 0 0
M  V30 BEGIN ATOM
M  V30 1 C 3.612530 1.755172 2.907717 0
M  V30 2 C 3.448317 0.593030 1.961238 0
M  V30 3 C 4.165105 -0.599822 2.560444 0
M  V30 4 C 3.977895 0.933335 0.635712 0
M  V30 5 N 5.233001 0.761693 0.181313 0
M  V30 6 C 5.339623 1.191326 -1.077215 0
M  V30 7 N 4.135081 1.653713 -1.458872 0
M  V30 8 C 3.263917 1.509136 -0.419387 0
M  V30 9 C 1.806317 1.852806 -0.287179 0
M  V30 10 N 0.986159 0.670984 -0.366196 0
M  V30 11 C -0.422156 0.837488 -0.250347 0
M  V30 12 C -1.013354 2.088064 -0.067125 0
M  V30 13 C -2.375542 2.277174 0.049591 0
M  V30 14 Br -3.146156 4.002431 0.299403 0
M  V30 15 C -3.190423 1.165533 -0.019878 0
M  V30 16 N -4.534678 1.232752 0.083120 0
M  V30 17 C -5.353628 0.168339 0.020797 0
M  V30 18 C -4.821062 -1.112131 -0.162080 0
M  V30 19 C -5.690806 -2.247934 -0.229221 0
M  V30 20 N -6.385489 -3.183097 -0.287328 0
M  V30 21 C -3.447818 -1.251588 -0.275446 0
M  V30 22 N -2.845034 -2.524953 -0.463517 0
M  V30 23 C -2.319494 -3.568283 0.344182 0
M  V30 24 C -1.826616 -4.678525 -0.307287 0
M  V30 25 C -1.329593 -5.655534 0.529818 0
M  V30 26 C -1.313325 -5.560679 1.885178 0
M  V30 27 F -0.793507 -6.595696 2.623224 0
M  V30 28 C -1.817271 -4.430803 2.496706 0
M  V30 29 Cl -1.783224 -4.336484 4.248350 0
M  V30 30 C -2.341121 -3.390668 1.724799 0
M  V30 31 C -2.682067 -0.105018 -0.199805 0
M  V30 32 C -1.299196 -0.252975 -0.313096 0
M  V30 33 H 3.394539 1.426417 3.942496 0
M  V30 34 H 4.664707 2.119324 2.920765 0
M  V30 35 H 2.948295 2.603455 2.658386 0
M  V30 36 H 2.376299 0.310626 1.944077 0
M  V30 37 H 4.146799 -1.429693 1.810493 0
M  V30 38 H 3.595965 -0.947934 3.470412 0
M  V30 39 H 5.211667 -0.371257 2.809426 0
M  V30 40 H 6.039485 0.359277 0.691331 0
M  V30 41 H 6.157754 1.232000 -1.791733 0
M  V30 42 H 1.511690 2.475320 -1.180334 0
M  V30 43 H 1.619193 2.467425 0.595012 0
M  V30 44 H 1.343164 -0.278864 -0.499075 0
M  V30 45 H -0.342574 2.926166 -0.018999 0
M  V30 46 H -6.409307 0.347745 0.116138 0
M  V30 47 H -2.863241 -2.559003 -1.505132 0
M  V30 48 H -1.852998 -4.726054 -1.397201 0
M  V30 49 H -0.928348 -6.553411 0.053221 0
M  V30 50 H -2.736092 -2.506412 2.191245 0
M  V30 51 H -0.865681 -1.220619 -0.453482 0
M  V30 END ATOM
M  V30 BEGIN BOND
M  V30 1 1 1 2
M  V30 2 1 2 3
M  V30 3 1 2 4
M  V30 4 1 4 5
M  V30 5 1 5 6
M  V30 6 2 6 7
M  V30 7 1 7 8
M  V30 8 1 8 9
M  V30 9 1 9 10
M  V30 10 1 10 11
M  V30 11 2 11 12
M  V30 12 1 12 13
M  V30 13 1 13 14
M  V30 14 2 13 15
M  V30 15 1 15 16
M  V30 16 2 16 17
M  V30 17 1 17 18
M  V30 18 1 18 19
M  V30 19 3 19 20
M  V30 20 2 18 21
M  V30 21 1 21 22
M  V30 22 1 22 23
M  V30 23 2 23 24
M  V30 24 1 24 25
M  V30 25 2 25 26
M  V30 26 1 26 27
M  V30 27 1 26 28
M  V30 28 1 28 29
M  V30 29 2 28 30
M  V30 30 1 21 31
M  V30 31 2 31 32
M  V30 32 2 8 4
M  V30 33 1 32 11
M  V30 34 1 31 15
M  V30 35 1 30 23
M  V30 36 1 1 33
M  V30 37 1 1 34
M  V30 38 1 1 35
M  V30 39 1 2 36
M  V30 40 1 3 37
M  V30 41 1 3 38
M  V30 42 1 3 39
M  V30 43 1 5 40
M  V30 44 1 6 41
M  V30 45 1 9 42
M  V30 46 1 9 43
M  V30 47 1 10 44
M  V30 48 1 12 45
M  V30 49 1 17 46
M  V30 50 1 22 47
M  V30 51 1 24 48
M  V30 52 1 25 49
M  V30 53 1 30 50
M  V30 54 1 32 51
M  V30 END BOND
M  V30 END CTAB
M  END
>  <Dataset>  (122) 
ChEMBL_Kinases

>  <Ligand_Instance>  (122) 
nan

>  <PDB_ID>  (122) 
nan

>  <Standardized_SMILES>  (122) 
CC(C)c1[nH]cnc1CNc1cc(Br)c2ncc(C#N)c(Nc3ccc(F)c(Cl)c3)c2c1

>  <Name>  (122) 
nan

>  <Pocket>  (122) 
nan

>  <ATP_Site>  (122) 
nan

>  <Peripheral>  (122) 
nan

>  <Num_H_Atoms_ProtBoundConf>  (122) 
nan

>  <Num_Resolved_Atoms>  (122) 
nan

>  <Num_Not_Resolved_Atoms>  (122) 
nan

$$$$
CHEMBL230549
     RDKit          3D

  0  0  0  0  0  0  0  0  0  0999 V3000
M  V30 BEGIN CTAB
M  V30 COUNTS 41 44 0 0 0
M  V30 BEGIN ATOM
M  V30 1 C 4.684688 -2.664570 1.460754 0
M  V30 2 C 3.517602 -2.101647 0.740343 0
M  V30 3 O 3.093217 -1.168467 1.464920 0
M  V30 4 C 3.004354 -2.560579 -0.532999 0
M  V30 5 C 3.623499 -3.560635 -1.229214 0
M  V30 6 C 3.162606 -3.971407 -2.453420 0
M  V30 7 C 2.054745 -3.392062 -3.032968 0
M  V30 8 C 1.438573 -2.374436 -2.304736 0
M  V30 9 C 1.906462 -1.952899 -1.053521 0
M  V30 10 C 1.085906 -0.913531 -0.463270 0
M  V30 11 C 0.963305 0.221151 -1.274246 0
M  V30 12 C 0.216140 1.330760 -0.929308 0
M  V30 13 C -0.453540 1.351481 0.266751 0
M  V30 14 C -0.337268 0.236338 1.070534 0
M  V30 15 C 0.404791 -0.874628 0.735262 0
M  V30 16 N -0.930596 0.018474 2.345191 0
M  V30 17 C -2.043869 0.682957 2.967303 0
M  V30 18 C -2.618490 -0.074659 3.988711 0
M  V30 19 C -3.710377 0.455196 4.676407 0
M  V30 20 C -4.180712 1.708908 4.320126 0
M  V30 21 C -3.609154 2.453102 3.310136 0
M  V30 22 C -2.514075 1.931882 2.613951 0
M  V30 23 N -2.076327 2.850934 1.618303 0
M  V30 24 C -1.200923 2.580318 0.504401 0
M  V30 25 O -1.059160 3.489995 -0.357671 0
M  V30 26 H 4.340939 -3.026202 2.473618 0
M  V30 27 H 5.159280 -3.528098 0.928280 0
M  V30 28 H 5.439043 -1.872000 1.659421 0
M  V30 29 H 4.492291 -4.088814 -0.886586 0
M  V30 30 H 3.634940 -4.760208 -3.023545 0
M  V30 31 H 1.674576 -3.698994 -3.995880 0
M  V30 32 H 0.558084 -1.938665 -2.802622 0
M  V30 33 H 1.454839 0.318324 -2.254483 0
M  V30 34 H 0.128834 2.193441 -1.556597 0
M  V30 35 H 0.497572 -1.749631 1.329350 0
M  V30 36 H -0.498138 -0.741478 2.930912 0
M  V30 37 H -2.161477 -1.050608 4.180751 0
M  V30 38 H -4.128720 -0.160347 5.460731 0
M  V30 39 H -5.035145 2.042382 4.909906 0
M  V30 40 H -4.011443 3.425396 3.069055 0
M  V30 41 H -2.414036 3.837477 1.681030 0
M  V30 END ATOM
M  V30 BEGIN BOND
M  V30 1 1 1 2
M  V30 2 2 2 3
M  V30 3 1 2 4
M  V30 4 2 4 5
M  V30 5 1 5 6
M  V30 6 2 6 7
M  V30 7 1 7 8
M  V30 8 2 8 9
M  V30 9 1 9 10
M  V30 10 2 10 11
M  V30 11 1 11 12
M  V30 12 2 12 13
M  V30 13 1 13 14
M  V30 14 2 14 15
M  V30 15 1 14 16
M  V30 16 1 16 17
M  V30 17 2 17 18
M  V30 18 1 18 19
M  V30 19 2 19 20
M  V30 20 1 20 21
M  V30 21 2 21 22
M  V30 22 1 22 23
M  V30 23 1 23 24
M  V30 24 2 24 25
M  V30 25 1 9 4
M  V30 26 1 15 10
M  V30 27 1 22 17
M  V30 28 1 24 13
M  V30 29 1 1 26
M  V30 30 1 1 27
M  V30 31 1 1 28
M  V30 32 1 5 29
M  V30 33 1 6 30
M  V30 34 1 7 31
M  V30 35 1 8 32
M  V30 36 1 11 33
M  V30 37 1 12 34
M  V30 38 1 15 35
M  V30 39 1 16 36
M  V30 40 1 18 37
M  V30 41 1 19 38
M  V30 42 1 20 39
M  V30 43 1 21 40
M  V30 44 1 23 41
M  V30 END BOND
M  V30 END CTAB
M  END
>  <Dataset>  (123) 
ChEMBL_Kinases

>  <Ligand_Instance>  (123) 
nan

>  <PDB_ID>  (123) 
nan

>  <Standardized_SMILES>  (123) 
CC(=O)c1ccccc1-c1ccc2c(c1)Nc1ccccc1NC2=O

>  <Name>  (123) 
nan

>  <Pocket>  (123) 
nan

>  <ATP_Site>  (123) 
nan

>  <Peripheral>  (123) 
nan

>  <Num_H_Atoms_ProtBoundConf>  (123) 
nan

>  <Num_Resolved_Atoms>  (123) 
nan

>  <Num_Not_Resolved_Atoms>  (123) 
nan

$$$$
CHEMBL230463
     RDKit          3D

  0  0  0  0  0  0  0  0  0  0999 V3000
M  V30 BEGIN CTAB
M  V30 COUNTS 44 47 0 0 0
M  V30 BEGIN ATOM
M  V30 1 C 1.209991 -7.721234 -2.556897 0
M  V30 2 C 1.178853 -6.665538 -1.531655 0
M  V30 3 O 1.593093 -7.038918 -0.412898 0
M  V30 4 N 0.743191 -5.336392 -1.695801 0
M  V30 5 C 0.685590 -4.275506 -0.763142 0
M  V30 6 C 1.093088 -4.311817 0.545369 0
M  V30 7 C 1.012316 -3.252959 1.429657 0
M  V30 8 C 0.482303 -2.055664 0.977102 0
M  V30 9 C 0.069212 -2.009599 -0.338799 0
M  V30 10 N -0.484796 -0.786230 -0.814026 0
M  V30 11 C -0.511635 0.320872 0.073336 0
M  V30 12 N 0.471660 1.212108 -0.030481 0
M  V30 13 C 0.554772 2.308766 0.771867 0
M  V30 14 N 1.604463 3.245077 0.606782 0
M  V30 15 C 2.361299 4.412522 0.933560 0
M  V30 16 C 3.404967 4.465054 1.972892 0
M  V30 17 C 2.095265 5.169671 2.189551 0
M  V30 18 N -0.401201 2.498513 1.711119 0
M  V30 19 N -0.659113 3.400669 2.631756 0
M  V30 20 C -1.765633 3.141519 3.334115 0
M  V30 21 C -2.297869 1.966311 2.846205 0
M  V30 22 C -3.530047 1.294130 3.330385 0
M  V30 23 C -1.411538 1.622780 1.849900 0
M  V30 24 N -1.416796 0.575299 1.022272 0
M  V30 25 C 0.162124 -3.081573 -1.197015 0
M  V30 26 H 0.560302 -7.452636 -3.425775 0
M  V30 27 H 2.276173 -7.905985 -2.872065 0
M  V30 28 H 0.856905 -8.712358 -2.209233 0
M  V30 29 H 0.434906 -5.190628 -2.681371 0
M  V30 30 H 1.512386 -5.220355 0.939821 0
M  V30 31 H 1.353505 -3.363360 2.446120 0
M  V30 32 H 0.432454 -1.252375 1.685673 0
M  V30 33 H -0.864238 -0.679521 -1.772924 0
M  V30 34 H 2.236508 2.945302 -0.210166 0
M  V30 35 H 2.528336 5.125712 0.061432 0
M  V30 36 H 3.668743 3.566594 2.578112 0
M  V30 37 H 4.275722 5.152511 1.843546 0
M  V30 38 H 1.556073 4.814934 3.056128 0
M  V30 39 H 2.089428 6.299924 2.136757 0
M  V30 40 H -2.124141 3.781589 4.131987 0
M  V30 41 H -3.429947 0.172897 3.329771 0
M  V30 42 H -3.615346 1.566226 4.404535 0
M  V30 43 H -4.413862 1.540469 2.743549 0
M  V30 44 H -0.179583 -2.957618 -2.193459 0
M  V30 END ATOM
M  V30 BEGIN BOND
M  V30 1 1 1 2
M  V30 2 2 2 3
M  V30 3 1 2 4
M  V30 4 1 4 5
M  V30 5 2 5 6
M  V30 6 1 6 7
M  V30 7 2 7 8
M  V30 8 1 8 9
M  V30 9 1 9 10
M  V30 10 1 10 11
M  V30 11 1 11 12
M  V30 12 2 12 13
M  V30 13 1 13 14
M  V30 14 1 14 15
M  V30 15 1 15 16
M  V30 16 1 16 17
M  V30 17 1 13 18
M  V30 18 1 18 19
M  V30 19 2 19 20
M  V30 20 1 20 21
M  V30 21 1 21 22
M  V30 22 2 21 23
M  V30 23 1 23 24
M  V30 24 2 9 25
M  V30 25 1 25 5
M  V30 26 2 24 11
M  V30 27 1 17 15
M  V30 28 1 23 18
M  V30 29 1 1 26
M  V30 30 1 1 27
M  V30 31 1 1 28
M  V30 32 1 4 29
M  V30 33 1 6 30
M  V30 34 1 7 31
M  V30 35 1 8 32
M  V30 36 1 10 33
M  V30 37 1 14 34
M  V30 38 1 15 35
M  V30 39 1 16 36
M  V30 40 1 16 37
M  V30 41 1 17 38
M  V30 42 1 17 39
M  V30 43 1 20 40
M  V30 44 1 22 41
M  V30 45 1 22 42
M  V30 46 1 22 43
M  V30 47 1 25 44
M  V30 END BOND
M  V30 END CTAB
M  END
>  <Dataset>  (124) 
ChEMBL_Kinases

>  <Ligand_Instance>  (124) 
nan

>  <PDB_ID>  (124) 
nan

>  <Standardized_SMILES>  (124) 
CC(=O)Nc1cccc(Nc2nc(NC3CC3)n3ncc(C)c3n2)c1

>  <Name>  (124) 
nan

>  <Pocket>  (124) 
nan

>  <ATP_Site>  (124) 
nan

>  <Peripheral>  (124) 
nan

>  <Num_H_Atoms_ProtBoundConf>  (124) 
nan

>  <Num_Resolved_Atoms>  (124) 
nan

>  <Num_Not_Resolved_Atoms>  (124) 
nan

$$$$
CHEMBL230462
     RDKit          3D

  0  0  0  0  0  0  0  0  0  0999 V3000
M  V30 BEGIN CTAB
M  V30 COUNTS 45 48 0 0 0
M  V30 BEGIN ATOM
M  V30 1 C 0.131676 -4.923707 2.674666 0
M  V30 2 C 0.024335 -4.474381 1.263674 0
M  V30 3 O -1.061794 -4.708827 0.630589 0
M  V30 4 N 1.117098 -3.807349 0.668685 0
M  V30 5 C 1.414407 -3.237280 -0.609006 0
M  V30 6 C 2.012255 -3.929564 -1.648659 0
M  V30 7 C 2.266318 -3.283206 -2.865406 0
M  V30 8 C 1.907207 -1.958918 -2.990432 0
M  V30 9 C 1.305930 -1.243660 -1.962644 0
M  V30 10 N 0.940338 0.130675 -2.038862 0
M  V30 11 C 0.150906 0.755551 -1.039876 0
M  V30 12 N 0.446152 1.143120 0.236152 0
M  V30 13 C -0.489890 1.737627 1.004660 0
M  V30 14 N -0.140491 2.101169 2.308300 0
M  V30 15 C 1.133524 1.930308 2.927039 0
M  V30 16 C 1.166322 2.298507 4.401086 0
M  V30 17 C 2.077324 1.112196 4.618350 0
M  V30 18 C 1.543816 0.536006 3.320088 0
M  V30 19 N -1.711336 1.936750 0.482080 0
M  V30 20 N -2.738666 2.505182 1.084273 0
M  V30 21 C -3.811508 2.552619 0.276460 0
M  V30 22 C -3.360561 1.962469 -0.881953 0
M  V30 23 C -4.152335 1.774041 -2.068450 0
M  V30 24 N -4.774409 1.610223 -3.028443 0
M  V30 25 C -2.048937 1.573907 -0.767165 0
M  V30 26 N -1.105230 0.982622 -1.517339 0
M  V30 27 C 1.054703 -1.895258 -0.748240 0
M  V30 28 H 1.213812 -4.969908 2.956539 0
M  V30 29 H -0.439492 -4.302686 3.385541 0
M  V30 30 H -0.264651 -5.957987 2.694437 0
M  V30 31 H 2.021812 -3.608566 1.192398 0
M  V30 32 H 2.263324 -4.969807 -1.470681 0
M  V30 33 H 2.733334 -3.834393 -3.677009 0
M  V30 34 H 2.087734 -1.415370 -3.916628 0
M  V30 35 H 1.315992 0.597837 -2.900341 0
M  V30 36 H -0.883204 2.542432 2.884707 0
M  V30 37 H 1.973869 2.472061 2.424739 0
M  V30 38 H 0.191767 2.077188 4.925825 0
M  V30 39 H 1.551404 3.283821 4.641167 0
M  V30 40 H 1.833869 0.524743 5.532448 0
M  V30 41 H 3.140077 1.414710 4.509715 0
M  V30 42 H 0.664894 -0.117087 3.542037 0
M  V30 43 H 2.307882 0.087913 2.654690 0
M  V30 44 H -4.770406 2.974280 0.544677 0
M  V30 45 H 0.589661 -1.353010 0.066260 0
M  V30 END ATOM
M  V30 BEGIN BOND
M  V30 1 1 1 2
M  V30 2 2 2 3
M  V30 3 1 2 4
M  V30 4 1 4 5
M  V30 5 2 5 6
M  V30 6 1 6 7
M  V30 7 2 7 8
M  V30 8 1 8 9
M  V30 9 1 9 10
M  V30 10 1 10 11
M  V30 11 1 11 12
M  V30 12 2 12 13
M  V30 13 1 13 14
M  V30 14 1 14 15
M  V30 15 1 15 16
M  V30 16 1 16 17
M  V30 17 1 17 18
M  V30 18 1 13 19
M  V30 19 1 19 20
M  V30 20 2 20 21
M  V30 21 1 21 22
M  V30 22 1 22 23
M  V30 23 3 23 24
M  V30 24 2 22 25
M  V30 25 1 25 26
M  V30 26 2 9 27
M  V30 27 1 27 5
M  V30 28 2 26 11
M  V30 29 1 18 15
M  V30 30 1 25 19
M  V30 31 1 1 28
M  V30 32 1 1 29
M  V30 33 1 1 30
M  V30 34 1 4 31
M  V30 35 1 6 32
M  V30 36 1 7 33
M  V30 37 1 8 34
M  V30 38 1 10 35
M  V30 39 1 14 36
M  V30 40 1 15 37
M  V30 41 1 16 38
M  V30 42 1 16 39
M  V30 43 1 17 40
M  V30 44 1 17 41
M  V30 45 1 18 42
M  V30 46 1 18 43
M  V30 47 1 21 44
M  V30 48 1 27 45
M  V30 END BOND
M  V30 END CTAB
M  END
>  <Dataset>  (125) 
ChEMBL_Kinases

>  <Ligand_Instance>  (125) 
nan

>  <PDB_ID>  (125) 
nan

>  <Standardized_SMILES>  (125) 
CC(=O)Nc1cccc(Nc2nc(NC3CCC3)n3ncc(C#N)c3n2)c1

>  <Name>  (125) 
nan

>  <Pocket>  (125) 
nan

>  <ATP_Site>  (125) 
nan

>  <Peripheral>  (125) 
nan

>  <Num_H_Atoms_ProtBoundConf>  (125) 
nan

>  <Num_Resolved_Atoms>  (125) 
nan

>  <Num_Not_Resolved_Atoms>  (125) 
nan

$$$$
CHEMBL230456
     RDKit          3D

  0  0  0  0  0  0  0  0  0  0999 V3000
M  V30 BEGIN CTAB
M  V30 COUNTS 45 49 0 0 0
M  V30 BEGIN ATOM
M  V30 1 N 3.522607 -3.936373 3.527556 0
M  V30 2 C 3.627617 -3.119497 2.706677 0
M  V30 3 C 3.758968 -2.095613 1.707536 0
M  V30 4 C 4.904878 -1.718494 1.039804 0
M  V30 5 N 4.551817 -0.732644 0.208733 0
M  V30 6 N 3.262759 -0.455243 0.299784 0
M  V30 7 C 2.484644 0.456742 -0.345714 0
M  V30 8 N 3.095284 1.291047 -1.297398 0
M  V30 9 C 2.534646 2.311660 -2.104453 0
M  V30 10 C 3.287360 3.060110 -3.014231 0
M  V30 11 C 2.750937 4.046378 -3.795580 0
M  V30 12 C 1.424127 4.357631 -3.725946 0
M  V30 13 C 0.625010 3.657558 -2.849006 0
M  V30 14 C 1.210841 2.681861 -2.091100 0
M  V30 15 N 1.186825 0.489229 -0.021853 0
M  V30 16 C 0.627978 -0.316836 0.889110 0
M  V30 17 N -0.762808 -0.235337 1.192252 0
M  V30 18 C -1.411280 -1.072309 2.156764 0
M  V30 19 C -2.890857 -0.791873 2.297030 0
M  V30 20 C -3.326499 -2.016256 3.027390 0
M  V30 21 C -4.385451 -2.200123 3.904282 0
M  V30 22 C -4.587677 -3.448455 4.462103 0
M  V30 23 C -3.731824 -4.485573 4.134910 0
M  V30 24 C -2.674868 -4.307026 3.261272 0
M  V30 25 C -2.465856 -3.057717 2.697895 0
M  V30 26 C -1.452663 -2.527842 1.745005 0
M  V30 27 N 1.441023 -1.193058 1.491423 0
M  V30 28 C 2.756974 -1.284504 1.218080 0
M  V30 29 H 5.891082 -2.151554 1.177903 0
M  V30 30 H 4.136948 1.176899 -1.474518 0
M  V30 31 H 4.362788 2.845024 -3.105665 0
M  V30 32 H 3.416498 4.573114 -4.472959 0
M  V30 33 H 1.051511 5.134707 -4.355237 0
M  V30 34 H -0.418728 3.920737 -2.811477 0
M  V30 35 H 0.506641 2.190419 -1.436369 0
M  V30 36 H -1.343024 0.461462 0.695161 0
M  V30 37 H -0.968086 -0.990244 3.179972 0
M  V30 38 H -3.097283 0.129337 2.853025 0
M  V30 39 H -3.315911 -0.809857 1.266968 0
M  V30 40 H -5.043706 -1.362820 4.143180 0
M  V30 41 H -5.406818 -3.633681 5.154248 0
M  V30 42 H -3.882991 -5.479804 4.571544 0
M  V30 43 H -2.038905 -5.142448 3.038982 0
M  V30 44 H -1.905696 -2.559587 0.743142 0
M  V30 45 H -0.480001 -3.032148 1.829920 0
M  V30 END ATOM
M  V30 BEGIN BOND
M  V30 1 3 1 2
M  V30 2 1 2 3
M  V30 3 1 3 4
M  V30 4 2 4 5
M  V30 5 1 5 6
M  V30 6 1 6 7
M  V30 7 1 7 8
M  V30 8 1 8 9
M  V30 9 2 9 10
M  V30 10 1 10 11
M  V30 11 2 11 12
M  V30 12 1 12 13
M  V30 13 2 13 14
M  V30 14 2 7 15
M  V30 15 1 15 16
M  V30 16 1 16 17
M  V30 17 1 17 18
M  V30 18 1 18 19
M  V30 19 1 19 20
M  V30 20 2 20 21
M  V30 21 1 21 22
M  V30 22 2 22 23
M  V30 23 1 23 24
M  V30 24 2 24 25
M  V30 25 1 25 26
M  V30 26 2 16 27
M  V30 27 1 27 28
M  V30 28 2 28 3
M  V30 29 1 28 6
M  V30 30 1 14 9
M  V30 31 1 26 18
M  V30 32 1 25 20
M  V30 33 1 4 29
M  V30 34 1 8 30
M  V30 35 1 10 31
M  V30 36 1 11 32
M  V30 37 1 12 33
M  V30 38 1 13 34
M  V30 39 1 14 35
M  V30 40 1 17 36
M  V30 41 1 18 37
M  V30 42 1 19 38
M  V30 43 1 19 39
M  V30 44 1 21 40
M  V30 45 1 22 41
M  V30 46 1 23 42
M  V30 47 1 24 43
M  V30 48 1 26 44
M  V30 49 1 26 45
M  V30 END BOND
M  V30 END CTAB
M  END
>  <Dataset>  (126) 
ChEMBL_Kinases

>  <Ligand_Instance>  (126) 
nan

>  <PDB_ID>  (126) 
nan

>  <Standardized_SMILES>  (126) 
N#Cc1cnn2c(Nc3ccccc3)nc(NC3Cc4ccccc4C3)nc12

>  <Name>  (126) 
nan

>  <Pocket>  (126) 
nan

>  <ATP_Site>  (126) 
nan

>  <Peripheral>  (126) 
nan

>  <Num_H_Atoms_ProtBoundConf>  (126) 
nan

>  <Num_Resolved_Atoms>  (126) 
nan

>  <Num_Not_Resolved_Atoms>  (126) 
nan

$$$$
CHEMBL230455
     RDKit          3D

  0  0  0  0  0  0  0  0  0  0999 V3000
M  V30 BEGIN CTAB
M  V30 COUNTS 44 47 0 0 0
M  V30 BEGIN ATOM
M  V30 1 C 0.740356 -3.622117 -0.290975 0
M  V30 2 N 0.624115 -2.373473 0.435383 0
M  V30 3 C 1.782895 -2.097453 1.258995 0
M  V30 4 C 3.017553 -2.010051 0.402854 0
M  V30 5 C 3.419755 -0.795055 -0.141306 0
M  V30 6 C 4.549958 -0.674604 -0.934055 0
M  V30 7 C 5.310225 -1.792277 -1.199332 0
M  V30 8 C 4.927349 -3.001132 -0.669623 0
M  V30 9 C 3.810360 -3.097871 0.108872 0
M  V30 10 C -0.523888 -1.550101 0.314476 0
M  V30 11 N -0.700156 -0.390518 0.951468 0
M  V30 12 C -1.775506 0.406883 0.854614 0
M  V30 13 N -1.933437 1.630085 1.542289 0
M  V30 14 C -1.064922 2.266806 2.434034 0
M  V30 15 C -1.388740 3.491849 3.027609 0
M  V30 16 C -0.575425 4.155918 3.905742 0
M  V30 17 C 0.630364 3.629341 4.250704 0
M  V30 18 C 1.028764 2.424598 3.711956 0
M  V30 19 C 0.162500 1.810708 2.835811 0
M  V30 20 N -2.733398 -0.046848 0.029699 0
M  V30 21 N -3.902191 0.488469 -0.285867 0
M  V30 22 C -4.522720 -0.322435 -1.148299 0
M  V30 23 C -3.738680 -1.407785 -1.397450 0
M  V30 24 C -4.096864 -2.479309 -2.278193 0
M  V30 25 N -4.375785 -3.321301 -2.992880 0
M  V30 26 C -2.615083 -1.193627 -0.631648 0
M  V30 27 N -1.513235 -1.952687 -0.495605 0
M  V30 28 H 1.370479 -3.512751 -1.213882 0
M  V30 29 H 1.169914 -4.413738 0.342312 0
M  V30 30 H -0.287111 -3.976102 -0.555392 0
M  V30 31 H 1.666406 -1.106417 1.720608 0
M  V30 32 H 1.931128 -2.844521 2.059256 0
M  V30 33 H 2.794421 0.065334 0.090071 0
M  V30 34 H 4.739547 0.347459 -1.291034 0
M  V30 35 H 6.180560 -1.641006 -1.822885 0
M  V30 36 H 5.525237 -3.869820 -0.880534 0
M  V30 37 H 3.537915 -4.061506 0.508999 0
M  V30 38 H -2.837039 2.153251 1.367060 0
M  V30 39 H -2.341589 3.965158 2.791198 0
M  V30 40 H -0.886510 5.096407 4.326302 0
M  V30 41 H 1.271285 4.154290 4.943703 0
M  V30 42 H 1.988538 2.011211 3.990167 0
M  V30 43 H 0.538705 0.875515 2.455368 0
M  V30 44 H -5.508165 -0.089596 -1.553005 0
M  V30 END ATOM
M  V30 BEGIN BOND
M  V30 1 1 1 2
M  V30 2 1 2 3
M  V30 3 1 3 4
M  V30 4 2 4 5
M  V30 5 1 5 6
M  V30 6 2 6 7
M  V30 7 1 7 8
M  V30 8 2 8 9
M  V30 9 1 2 10
M  V30 10 1 10 11
M  V30 11 2 11 12
M  V30 12 1 12 13
M  V30 13 1 13 14
M  V30 14 2 14 15
M  V30 15 1 15 16
M  V30 16 2 16 17
M  V30 17 1 17 18
M  V30 18 2 18 19
M  V30 19 1 12 20
M  V30 20 1 20 21
M  V30 21 2 21 22
M  V30 22 1 22 23
M  V30 23 1 23 24
M  V30 24 3 24 25
M  V30 25 2 23 26
M  V30 26 1 26 27
M  V30 27 1 9 4
M  V30 28 2 27 10
M  V30 29 1 19 14
M  V30 30 1 26 20
M  V30 31 1 1 28
M  V30 32 1 1 29
M  V30 33 1 1 30
M  V30 34 1 3 31
M  V30 35 1 3 32
M  V30 36 1 5 33
M  V30 37 1 6 34
M  V30 38 1 7 35
M  V30 39 1 8 36
M  V30 40 1 9 37
M  V30 41 1 13 38
M  V30 42 1 15 39
M  V30 43 1 16 40
M  V30 44 1 17 41
M  V30 45 1 18 42
M  V30 46 1 19 43
M  V30 47 1 22 44
M  V30 END BOND
M  V30 END CTAB
M  END
>  <Dataset>  (127) 
ChEMBL_Kinases

>  <Ligand_Instance>  (127) 
nan

>  <PDB_ID>  (127) 
nan

>  <Standardized_SMILES>  (127) 
CN(Cc1ccccc1)c1nc(Nc2ccccc2)n2ncc(C#N)c2n1

>  <Name>  (127) 
nan

>  <Pocket>  (127) 
nan

>  <ATP_Site>  (127) 
nan

>  <Peripheral>  (127) 
nan

>  <Num_H_Atoms_ProtBoundConf>  (127) 
nan

>  <Num_Resolved_Atoms>  (127) 
nan

>  <Num_Not_Resolved_Atoms>  (127) 
nan

$$$$
CHEMBL230354
     RDKit          3D

  0  0  0  0  0  0  0  0  0  0999 V3000
M  V30 BEGIN CTAB
M  V30 COUNTS 45 48 0 0 0
M  V30 BEGIN ATOM
M  V30 1 C -1.342526 -4.274835 2.595282 0
M  V30 2 C -0.082976 -3.493849 2.527784 0
M  V30 3 O 0.254318 -2.760059 3.500074 0
M  V30 4 N 0.670024 -3.630183 1.348649 0
M  V30 5 C 1.850245 -3.215068 0.691821 0
M  V30 6 C 3.059309 -3.872507 0.777491 0
M  V30 7 C 4.151305 -3.381065 0.098376 0
M  V30 8 C 4.011710 -2.236784 -0.656525 0
M  V30 9 C 2.835939 -1.528695 -0.787507 0
M  V30 10 N 2.725249 -0.340475 -1.576233 0
M  V30 11 C 1.461021 0.296831 -1.511988 0
M  V30 12 N 1.396119 1.128873 -0.452921 0
M  V30 13 C 0.300243 1.870834 -0.147190 0
M  V30 14 N 0.326830 2.724952 1.018798 0
M  V30 15 C -0.203429 2.265921 2.254614 0
M  V30 16 C -0.164804 2.996032 3.447770 0
M  V30 17 C -0.693617 2.541807 4.632805 0
M  V30 18 C -1.303417 1.299042 4.679240 0
M  V30 19 C -1.349551 0.557580 3.494907 0
M  V30 20 C -0.818988 1.007548 2.296548 0
M  V30 21 N -0.787157 1.776585 -0.940929 0
M  V30 22 N -1.980285 2.386440 -0.869810 0
M  V30 23 C -2.745833 1.958121 -1.906284 0
M  V30 24 C -1.972887 1.061847 -2.614445 0
M  V30 25 C -2.403372 0.368310 -3.792661 0
M  V30 26 N -2.764138 -0.202008 -4.742061 0
M  V30 27 C -0.744774 0.944958 -2.013882 0
M  V30 28 N 0.358726 0.219056 -2.293663 0
M  V30 29 C 1.780883 -2.078311 -0.079185 0
M  V30 30 H -2.025764 -3.721958 3.263368 0
M  V30 31 H -1.844000 -4.285143 1.590753 0
M  V30 32 H -1.164880 -5.321975 2.934842 0
M  V30 33 H 0.346587 -4.256520 0.563018 0
M  V30 34 H 3.052375 -4.758835 1.398241 0
M  V30 35 H 5.099525 -3.922828 0.186008 0
M  V30 36 H 4.890624 -1.878819 -1.176385 0
M  V30 37 H 3.576125 -0.070666 -2.109653 0
M  V30 38 H 0.741607 3.665922 0.926573 0
M  V30 39 H 0.328414 3.974097 3.365646 0
M  V30 40 H -0.600437 3.209189 5.502724 0
M  V30 41 H -1.718113 0.948263 5.613090 0
M  V30 42 H -1.832098 -0.433416 3.510178 0
M  V30 43 H -0.909263 0.344822 1.430077 0
M  V30 44 H -3.758753 2.285490 -2.099732 0
M  V30 45 H 0.822721 -1.541527 -0.157477 0
M  V30 END ATOM
M  V30 BEGIN BOND
M  V30 1 1 1 2
M  V30 2 2 2 3
M  V30 3 1 2 4
M  V30 4 1 4 5
M  V30 5 2 5 6
M  V30 6 1 6 7
M  V30 7 2 7 8
M  V30 8 1 8 9
M  V30 9 1 9 10
M  V30 10 1 10 11
M  V30 11 1 11 12
M  V30 12 2 12 13
M  V30 13 1 13 14
M  V30 14 1 14 15
M  V30 15 2 15 16
M  V30 16 1 16 17
M  V30 17 2 17 18
M  V30 18 1 18 19
M  V30 19 2 19 20
M  V30 20 1 13 21
M  V30 21 1 21 22
M  V30 22 2 22 23
M  V30 23 1 23 24
M  V30 24 1 24 25
M  V30 25 3 25 26
M  V30 26 2 24 27
M  V30 27 1 27 28
M  V30 28 2 9 29
M  V30 29 1 29 5
M  V30 30 2 28 11
M  V30 31 1 20 15
M  V30 32 1 27 21
M  V30 33 1 1 30
M  V30 34 1 1 31
M  V30 35 1 1 32
M  V30 36 1 4 33
M  V30 37 1 6 34
M  V30 38 1 7 35
M  V30 39 1 8 36
M  V30 40 1 10 37
M  V30 41 1 14 38
M  V30 42 1 16 39
M  V30 43 1 17 40
M  V30 44 1 18 41
M  V30 45 1 19 42
M  V30 46 1 20 43
M  V30 47 1 23 44
M  V30 48 1 29 45
M  V30 END BOND
M  V30 END CTAB
M  END
>  <Dataset>  (128) 
ChEMBL_Kinases

>  <Ligand_Instance>  (128) 
nan

>  <PDB_ID>  (128) 
nan

>  <Standardized_SMILES>  (128) 
CC(=O)Nc1cccc(Nc2nc(Nc3ccccc3)n3ncc(C#N)c3n2)c1

>  <Name>  (128) 
nan

>  <Pocket>  (128) 
nan

>  <ATP_Site>  (128) 
nan

>  <Peripheral>  (128) 
nan

>  <Num_H_Atoms_ProtBoundConf>  (128) 
nan

>  <Num_Resolved_Atoms>  (128) 
nan

>  <Num_Not_Resolved_Atoms>  (128) 
nan

$$$$
CHEMBL230353
     RDKit          3D

  0  0  0  0  0  0  0  0  0  0999 V3000
M  V30 BEGIN CTAB
M  V30 COUNTS 51 54 0 0 0
M  V30 BEGIN ATOM
M  V30 1 C -0.485848 -1.499698 5.141470 0
M  V30 2 C 0.828418 -1.337150 4.463688 0
M  V30 3 O 1.268642 -0.141971 4.353305 0
M  V30 4 N 1.681411 -2.350600 3.909571 0
M  V30 5 C 2.821826 -1.642092 3.379916 0
M  V30 6 C 3.949990 -1.391070 4.131518 0
M  V30 7 C 4.987808 -0.700627 3.541687 0
M  V30 8 C 4.849684 -0.294114 2.230799 0
M  V30 9 C 3.748397 -0.520539 1.444597 0
M  V30 10 N 3.625362 -0.082350 0.099510 0
M  V30 11 C 2.480784 -0.423999 -0.662500 0
M  V30 12 N 1.281969 0.221316 -0.703719 0
M  V30 13 C 0.284509 -0.241691 -1.502533 0
M  V30 14 N -0.956646 0.449344 -1.512464 0
M  V30 15 C -1.087288 1.601730 -0.656601 0
M  V30 16 C -2.454031 2.244566 -0.703178 0
M  V30 17 C -3.515719 1.320878 -0.287266 0
M  V30 18 C -4.242941 0.489104 -1.141146 0
M  V30 19 C -5.238032 -0.376741 -0.714248 0
M  V30 20 C -5.545273 -0.435401 0.640825 0
M  V30 21 C -4.852942 0.368306 1.519392 0
M  V30 22 C -3.879849 1.204384 1.038728 0
M  V30 23 N 0.510423 -1.351153 -2.250629 0
M  V30 24 N -0.316854 -1.944592 -3.075266 0
M  V30 25 C 0.247013 -3.020787 -3.647661 0
M  V30 26 C 1.519052 -3.068900 -3.115709 0
M  V30 27 C 2.548987 -4.027243 -3.388450 0
M  V30 28 N 3.388813 -4.829625 -3.608058 0
M  V30 29 C 1.685729 -2.019095 -2.237102 0
M  V30 30 N 2.656770 -1.526951 -1.427358 0
M  V30 31 C 2.709821 -1.217307 2.050551 0
M  V30 32 H -1.347898 -1.209339 4.523817 0
M  V30 33 H -0.529147 -0.820367 6.040978 0
M  V30 34 H -0.658269 -2.514031 5.528731 0
M  V30 35 H 1.291259 -3.313534 4.017357 0
M  V30 36 H 3.922925 -1.768221 5.147907 0
M  V30 37 H 5.866060 -0.511275 4.143599 0
M  V30 38 H 5.696064 0.254658 1.788147 0
M  V30 39 H 4.433499 0.497923 -0.264649 0
M  V30 40 H -1.685402 0.061866 -2.149077 0
M  V30 41 H -0.896309 1.255703 0.379991 0
M  V30 42 H -0.286059 2.332281 -0.896811 0
M  V30 43 H -2.430493 3.083958 0.034027 0
M  V30 44 H -2.648785 2.705571 -1.695952 0
M  V30 45 H -4.020465 0.524440 -2.188182 0
M  V30 46 H -5.775606 -0.999635 -1.390731 0
M  V30 47 H -6.319495 -1.114275 0.943869 0
M  V30 48 H -5.137601 0.276693 2.553562 0
M  V30 49 H -3.399727 1.788819 1.810443 0
M  V30 50 H -0.159295 -3.709692 -4.357567 0
M  V30 51 H 1.832462 -1.404182 1.443536 0
M  V30 END ATOM
M  V30 BEGIN BOND
M  V30 1 1 1 2
M  V30 2 2 2 3
M  V30 3 1 2 4
M  V30 4 1 4 5
M  V30 5 2 5 6
M  V30 6 1 6 7
M  V30 7 2 7 8
M  V30 8 1 8 9
M  V30 9 1 9 10
M  V30 10 1 10 11
M  V30 11 1 11 12
M  V30 12 2 12 13
M  V30 13 1 13 14
M  V30 14 1 14 15
M  V30 15 1 15 16
M  V30 16 1 16 17
M  V30 17 2 17 18
M  V30 18 1 18 19
M  V30 19 2 19 20
M  V30 20 1 20 21
M  V30 21 2 21 22
M  V30 22 1 13 23
M  V30 23 1 23 24
M  V30 24 2 24 25
M  V30 25 1 25 26
M  V30 26 1 26 27
M  V30 27 3 27 28
M  V30 28 2 26 29
M  V30 29 1 29 30
M  V30 30 2 9 31
M  V30 31 1 31 5
M  V30 32 2 30 11
M  V30 33 1 22 17
M  V30 34 1 29 23
M  V30 35 1 1 32
M  V30 36 1 1 33
M  V30 37 1 1 34
M  V30 38 1 4 35
M  V30 39 1 6 36
M  V30 40 1 7 37
M  V30 41 1 8 38
M  V30 42 1 10 39
M  V30 43 1 14 40
M  V30 44 1 15 41
M  V30 45 1 15 42
M  V30 46 1 16 43
M  V30 47 1 16 44
M  V30 48 1 18 45
M  V30 49 1 19 46
M  V30 50 1 20 47
M  V30 51 1 21 48
M  V30 52 1 22 49
M  V30 53 1 25 50
M  V30 54 1 31 51
M  V30 END BOND
M  V30 END CTAB
M  END
>  <Dataset>  (129) 
ChEMBL_Kinases

>  <Ligand_Instance>  (129) 
nan

>  <PDB_ID>  (129) 
nan

>  <Standardized_SMILES>  (129) 
CC(=O)Nc1cccc(Nc2nc(NCCc3ccccc3)n3ncc(C#N)c3n2)c1

>  <Name>  (129) 
nan

>  <Pocket>  (129) 
nan

>  <ATP_Site>  (129) 
nan

>  <Peripheral>  (129) 
nan

>  <Num_H_Atoms_ProtBoundConf>  (129) 
nan

>  <Num_Resolved_Atoms>  (129) 
nan

>  <Num_Not_Resolved_Atoms>  (129) 
nan

$$$$
CHEMBL230352
     RDKit          3D

  0  0  0  0  0  0  0  0  0  0999 V3000
M  V30 BEGIN CTAB
M  V30 COUNTS 43 46 0 0 0
M  V30 BEGIN ATOM
M  V30 1 N 3.849635 -4.577993 2.740937 0
M  V30 2 C 3.635905 -3.935021 1.816389 0
M  V30 3 C 3.368720 -3.121843 0.651070 0
M  V30 4 C 4.145762 -2.913624 -0.462714 0
M  V30 5 N 3.457717 -2.082542 -1.253589 0
M  V30 6 N 2.289917 -1.766486 -0.680246 0
M  V30 7 C 1.289454 -0.973311 -1.101941 0
M  V30 8 N 1.304433 -0.299672 -2.353845 0
M  V30 9 C 0.367611 0.637185 -2.888574 0
M  V30 10 C 0.366874 2.003049 -2.307597 0
M  V30 11 C 0.121402 2.140407 -0.882614 0
M  V30 12 C 1.258641 2.193720 -0.066427 0
M  V30 13 C 1.213826 2.320139 1.294279 0
M  V30 14 C -0.008622 2.401169 1.919655 0
M  V30 15 C -1.138054 2.351861 1.149023 0
M  V30 16 C -1.071036 2.222915 -0.235646 0
M  V30 17 N 0.225286 -0.843088 -0.302533 0
M  V30 18 C 0.060485 -1.432313 0.887667 0
M  V30 19 N -1.117675 -1.209651 1.637693 0
M  V30 20 C -1.459625 -1.754322 2.898905 0
M  V30 21 C -0.689544 -2.623797 3.638973 0
M  V30 22 C -1.074161 -3.126382 4.864625 0
M  V30 23 C -2.287258 -2.754563 5.398944 0
M  V30 24 N -3.056962 -1.899996 4.684362 0
M  V30 25 C -2.653879 -1.431251 3.498023 0
M  V30 26 N 1.099312 -2.202510 1.232298 0
M  V30 27 C 2.206201 -2.396459 0.502916 0
M  V30 28 H 5.125063 -3.356934 -0.632505 0
M  V30 29 H 2.121500 -0.528487 -2.964064 0
M  V30 30 H -0.693016 0.255409 -2.791433 0
M  V30 31 H 0.482616 0.741977 -4.006149 0
M  V30 32 H 1.319246 2.544733 -2.582418 0
M  V30 33 H -0.417915 2.622719 -2.847799 0
M  V30 34 H 2.257524 2.134988 -0.493643 0
M  V30 35 H 2.131426 2.357556 1.886977 0
M  V30 36 H 0.001824 2.500831 3.005748 0
M  V30 37 H -2.104796 2.416468 1.648149 0
M  V30 38 H -1.955837 2.181759 -0.856063 0
M  V30 39 H -1.828676 -0.562137 1.209163 0
M  V30 40 H 0.259923 -2.942323 3.268510 0
M  V30 41 H -0.414655 -3.809593 5.391182 0
M  V30 42 H -2.651141 -3.109782 6.354054 0
M  V30 43 H -3.362482 -0.752185 3.019048 0
M  V30 END ATOM
M  V30 BEGIN BOND
M  V30 1 3 1 2
M  V30 2 1 2 3
M  V30 3 1 3 4
M  V30 4 2 4 5
M  V30 5 1 5 6
M  V30 6 1 6 7
M  V30 7 1 7 8
M  V30 8 1 8 9
M  V30 9 1 9 10
M  V30 10 1 10 11
M  V30 11 2 11 12
M  V30 12 1 12 13
M  V30 13 2 13 14
M  V30 14 1 14 15
M  V30 15 2 15 16
M  V30 16 2 7 17
M  V30 17 1 17 18
M  V30 18 1 18 19
M  V30 19 1 19 20
M  V30 20 2 20 21
M  V30 21 1 21 22
M  V30 22 2 22 23
M  V30 23 1 23 24
M  V30 24 2 24 25
M  V30 25 2 18 26
M  V30 26 1 26 27
M  V30 27 2 27 3
M  V30 28 1 27 6
M  V30 29 1 16 11
M  V30 30 1 25 20
M  V30 31 1 4 28
M  V30 32 1 8 29
M  V30 33 1 9 30
M  V30 34 1 9 31
M  V30 35 1 10 32
M  V30 36 1 10 33
M  V30 37 1 12 34
M  V30 38 1 13 35
M  V30 39 1 14 36
M  V30 40 1 15 37
M  V30 41 1 16 38
M  V30 42 1 19 39
M  V30 43 1 21 40
M  V30 44 1 22 41
M  V30 45 1 23 42
M  V30 46 1 25 43
M  V30 END BOND
M  V30 END CTAB
M  END
>  <Dataset>  (130) 
ChEMBL_Kinases

>  <Ligand_Instance>  (130) 
nan

>  <PDB_ID>  (130) 
nan

>  <Standardized_SMILES>  (130) 
N#Cc1cnn2c(NCCc3ccccc3)nc(Nc3cccnc3)nc12

>  <Name>  (130) 
nan

>  <Pocket>  (130) 
nan

>  <ATP_Site>  (130) 
nan

>  <Peripheral>  (130) 
nan

>  <Num_H_Atoms_ProtBoundConf>  (130) 
nan

>  <Num_Resolved_Atoms>  (130) 
nan

>  <Num_Not_Resolved_Atoms>  (130) 
nan

$$$$
CHEMBL230347
     RDKit          3D

  0  0  0  0  0  0  0  0  0  0999 V3000
M  V30 BEGIN CTAB
M  V30 COUNTS 41 44 0 0 0
M  V30 BEGIN ATOM
M  V30 1 N 4.796977 -2.798587 5.201997 0
M  V30 2 C 4.392496 -1.957191 4.504759 0
M  V30 3 C 3.911500 -0.904981 3.639628 0
M  V30 4 C 4.266363 0.426773 3.675858 0
M  V30 5 N 3.555593 0.959987 2.688213 0
M  V30 6 N 2.802992 0.081282 2.054764 0
M  V30 7 C 1.947136 0.233346 1.006768 0
M  V30 8 N 1.733230 1.487604 0.389996 0
M  V30 9 C 0.929464 1.865598 -0.693747 0
M  V30 10 C 0.109080 1.043090 -1.425191 0
M  V30 11 C -0.673912 1.425598 -2.493936 0
M  V30 12 C -0.615315 2.756386 -2.846085 0
M  V30 13 C 0.175603 3.637887 -2.168886 0
M  V30 14 C 0.928413 3.182174 -1.113267 0
M  V30 15 N 1.310384 -0.860993 0.573138 0
M  V30 16 C 1.469997 -2.076214 1.109319 0
M  V30 17 N 0.907497 -3.346624 0.830161 0
M  V30 18 C -0.232525 -3.746727 1.625874 0
M  V30 19 C -1.406298 -2.883713 1.498139 0
M  V30 20 C -1.755301 -1.770284 2.226391 0
M  V30 21 C -2.908571 -1.052610 1.992787 0
M  V30 22 C -3.728862 -1.514845 0.958852 0
M  V30 23 Cl -5.223406 -0.624359 0.624554 0
M  V30 24 C -3.440304 -2.620322 0.192429 0
M  V30 25 C -2.271251 -3.294875 0.476984 0
M  V30 26 N 2.327764 -2.202709 2.151557 0
M  V30 27 C 2.993176 -1.115830 2.621010 0
M  V30 28 H 4.964300 0.874356 4.370173 0
M  V30 29 H 2.295099 2.270150 0.847234 0
M  V30 30 H 0.045829 0.000210 -1.173320 0
M  V30 31 H -1.308856 0.769785 -3.055008 0
M  V30 32 H -1.198298 3.112322 -3.665372 0
M  V30 33 H 0.198585 4.672695 -2.471046 0
M  V30 34 H 1.538009 3.946340 -0.618290 0
M  V30 35 H 1.502633 -3.712848 0.051702 0
M  V30 36 H -0.471972 -4.823685 1.423765 0
M  V30 37 H 0.072250 -3.734442 2.713544 0
M  V30 38 H -1.036081 -1.498065 3.014605 0
M  V30 39 H -3.147555 -0.181962 2.587522 0
M  V30 40 H -4.110271 -2.949187 -0.605238 0
M  V30 41 H -2.092756 -4.170580 -0.167258 0
M  V30 END ATOM
M  V30 BEGIN BOND
M  V30 1 3 1 2
M  V30 2 1 2 3
M  V30 3 1 3 4
M  V30 4 2 4 5
M  V30 5 1 5 6
M  V30 6 1 6 7
M  V30 7 1 7 8
M  V30 8 1 8 9
M  V30 9 2 9 10
M  V30 10 1 10 11
M  V30 11 2 11 12
M  V30 12 1 12 13
M  V30 13 2 13 14
M  V30 14 2 7 15
M  V30 15 1 15 16
M  V30 16 1 16 17
M  V30 17 1 17 18
M  V30 18 1 18 19
M  V30 19 2 19 20
M  V30 20 1 20 21
M  V30 21 2 21 22
M  V30 22 1 22 23
M  V30 23 1 22 24
M  V30 24 2 24 25
M  V30 25 2 16 26
M  V30 26 1 26 27
M  V30 27 2 27 3
M  V30 28 1 27 6
M  V30 29 1 14 9
M  V30 30 1 25 19
M  V30 31 1 4 28
M  V30 32 1 8 29
M  V30 33 1 10 30
M  V30 34 1 11 31
M  V30 35 1 12 32
M  V30 36 1 13 33
M  V30 37 1 14 34
M  V30 38 1 17 35
M  V30 39 1 18 36
M  V30 40 1 18 37
M  V30 41 1 20 38
M  V30 42 1 21 39
M  V30 43 1 24 40
M  V30 44 1 25 41
M  V30 END BOND
M  V30 END CTAB
M  END
>  <Dataset>  (131) 
ChEMBL_Kinases

>  <Ligand_Instance>  (131) 
nan

>  <PDB_ID>  (131) 
nan

>  <Standardized_SMILES>  (131) 
N#Cc1cnn2c(Nc3ccccc3)nc(NCc3ccc(Cl)cc3)nc12

>  <Name>  (131) 
nan

>  <Pocket>  (131) 
nan

>  <ATP_Site>  (131) 
nan

>  <Peripheral>  (131) 
nan

>  <Num_H_Atoms_ProtBoundConf>  (131) 
nan

>  <Num_Resolved_Atoms>  (131) 
nan

>  <Num_Not_Resolved_Atoms>  (131) 
nan

$$$$
CHEMBL230248
     RDKit          3D

  0  0  0  0  0  0  0  0  0  0999 V3000
M  V30 BEGIN CTAB
M  V30 COUNTS 47 50 0 0 0
M  V30 BEGIN ATOM
M  V30 1 C -0.750574 -3.588321 5.925994 0
M  V30 2 C -0.334031 -3.161398 4.587209 0
M  V30 3 C -1.191331 -3.017855 3.485232 0
M  V30 4 C -0.744036 -2.598072 2.233188 0
M  V30 5 C 0.620234 -2.314496 2.097091 0
M  V30 6 N 1.155011 -1.837255 0.842937 0
M  V30 7 C 0.316381 -1.516638 -0.255624 0
M  V30 8 N 0.720284 -0.370258 -0.807185 0
M  V30 9 C 0.149581 0.232622 -1.853234 0
M  V30 10 N 0.605839 1.473913 -2.388419 0
M  V30 11 C 1.603035 2.415884 -2.021062 0
M  V30 12 C 1.256921 3.271711 -0.847771 0
M  V30 13 C 1.038874 2.515998 0.373027 0
M  V30 14 C 2.219784 2.253936 1.049427 0
M  V30 15 C 2.292944 1.572378 2.259517 0
M  V30 16 C 1.125950 1.116453 2.845918 0
M  V30 17 C -0.042627 1.372704 2.181229 0
M  V30 18 C -0.122873 2.048693 0.979464 0
M  V30 19 N -0.920822 -0.370915 -2.392795 0
M  V30 20 N -1.709471 -0.046366 -3.424160 0
M  V30 21 C -2.668179 -0.967571 -3.595837 0
M  V30 22 C -2.470060 -1.922098 -2.618552 0
M  V30 23 C -3.271307 -3.116119 -2.413169 0
M  V30 24 N -3.918135 -4.063153 -2.250524 0
M  V30 25 C -1.378000 -1.523410 -1.888311 0
M  V30 26 N -0.754217 -2.090727 -0.819372 0
M  V30 27 C 1.491961 -2.450909 3.181029 0
M  V30 28 C 1.001713 -2.872678 4.411872 0
M  V30 29 H -0.950932 -2.709239 6.601535 0
M  V30 30 H -1.617279 -4.258787 5.910803 0
M  V30 31 H 0.099799 -4.155193 6.380477 0
M  V30 32 H -2.250596 -3.253307 3.651053 0
M  V30 33 H -1.425777 -2.497804 1.401444 0
M  V30 34 H 2.196565 -1.743775 0.784038 0
M  V30 35 H 0.093711 1.790106 -3.262830 0
M  V30 36 H 2.547949 1.830313 -1.779685 0
M  V30 37 H 1.862488 3.075203 -2.910840 0
M  V30 38 H 0.302383 3.809626 -1.122546 0
M  V30 39 H 2.040093 4.079916 -0.687071 0
M  V30 40 H 3.216631 2.544851 0.725962 0
M  V30 41 H 3.200886 1.359974 2.799409 0
M  V30 42 H 1.117357 0.581227 3.782560 0
M  V30 43 H -0.986404 1.023855 2.619391 0
M  V30 44 H -1.002922 2.276745 0.417961 0
M  V30 45 H -3.441010 -0.951337 -4.356593 0
M  V30 46 H 2.555915 -2.226173 3.054208 0
M  V30 47 H 1.708382 -2.966524 5.235202 0
M  V30 END ATOM
M  V30 BEGIN BOND
M  V30 1 1 1 2
M  V30 2 2 2 3
M  V30 3 1 3 4
M  V30 4 2 4 5
M  V30 5 1 5 6
M  V30 6 1 6 7
M  V30 7 1 7 8
M  V30 8 2 8 9
M  V30 9 1 9 10
M  V30 10 1 10 11
M  V30 11 1 11 12
M  V30 12 1 12 13
M  V30 13 2 13 14
M  V30 14 1 14 15
M  V30 15 2 15 16
M  V30 16 1 16 17
M  V30 17 2 17 18
M  V30 18 1 9 19
M  V30 19 1 19 20
M  V30 20 2 20 21
M  V30 21 1 21 22
M  V30 22 1 22 23
M  V30 23 3 23 24
M  V30 24 2 22 25
M  V30 25 1 25 26
M  V30 26 1 5 27
M  V30 27 2 27 28
M  V30 28 1 28 2
M  V30 29 2 26 7
M  V30 30 1 18 13
M  V30 31 1 25 19
M  V30 32 1 1 29
M  V30 33 1 1 30
M  V30 34 1 1 31
M  V30 35 1 3 32
M  V30 36 1 4 33
M  V30 37 1 6 34
M  V30 38 1 10 35
M  V30 39 1 11 36
M  V30 40 1 11 37
M  V30 41 1 12 38
M  V30 42 1 12 39
M  V30 43 1 14 40
M  V30 44 1 15 41
M  V30 45 1 16 42
M  V30 46 1 17 43
M  V30 47 1 18 44
M  V30 48 1 21 45
M  V30 49 1 27 46
M  V30 50 1 28 47
M  V30 END BOND
M  V30 END CTAB
M  END
>  <Dataset>  (132) 
ChEMBL_Kinases

>  <Ligand_Instance>  (132) 
nan

>  <PDB_ID>  (132) 
nan

>  <Standardized_SMILES>  (132) 
Cc1ccc(Nc2nc(NCCc3ccccc3)n3ncc(C#N)c3n2)cc1

>  <Name>  (132) 
nan

>  <Pocket>  (132) 
nan

>  <ATP_Site>  (132) 
nan

>  <Peripheral>  (132) 
nan

>  <Num_H_Atoms_ProtBoundConf>  (132) 
nan

>  <Num_Resolved_Atoms>  (132) 
nan

>  <Num_Not_Resolved_Atoms>  (132) 
nan

$$$$
CHEMBL230246
     RDKit          3D

  0  0  0  0  0  0  0  0  0  0999 V3000
M  V30 BEGIN CTAB
M  V30 COUNTS 49 53 0 0 0
M  V30 BEGIN ATOM
M  V30 1 N 1.987261 -3.475363 6.048608 0
M  V30 2 C 2.314016 -2.633429 5.314383 0
M  V30 3 C 2.721964 -1.577156 4.426198 0
M  V30 4 C 3.986039 -1.041457 4.327252 0
M  V30 5 N 3.979476 -0.071372 3.384367 0
M  V30 6 N 2.749872 0.021500 2.885270 0
M  V30 7 C 2.276860 0.843757 1.930558 0
M  V30 8 N 3.044808 1.820071 1.240040 0
M  V30 9 C 3.753455 1.580949 0.031683 0
M  V30 10 C 3.704893 0.322885 -0.522267 0
M  V30 11 C 4.425121 0.191487 -1.693918 0
M  V30 12 C 5.149398 1.204342 -2.300102 0
M  V30 13 C 5.150545 2.453799 -1.677730 0
M  V30 14 C 4.448880 2.643222 -0.505590 0
M  V30 15 N 0.955541 0.722744 1.608279 0
M  V30 16 C 0.163435 -0.171423 2.211885 0
M  V30 17 N -1.209948 -0.286869 1.867527 0
M  V30 18 C -1.843012 0.532697 0.851305 0
M  V30 19 C -2.229806 -0.464875 -0.248106 0
M  V30 20 N -3.216324 -1.341883 0.352442 0
M  V30 21 C -4.088231 -2.114477 -0.498200 0
M  V30 22 C -3.993266 -2.045851 -1.867425 0
M  V30 23 C -4.856539 -2.809468 -2.646243 0
M  V30 24 C -5.807184 -3.635370 -2.086011 0
M  V30 25 C -5.866001 -3.672141 -0.690778 0
M  V30 26 N -5.016279 -2.920984 0.030921 0
M  V30 27 C -3.361058 -1.474296 1.787096 0
M  V30 28 C -2.068236 -1.246815 2.525666 0
M  V30 29 N 0.662989 -0.980219 3.162429 0
M  V30 30 C 1.979000 -0.887015 3.509825 0
M  V30 31 H 4.878553 -1.288122 4.863371 0
M  V30 32 H 3.028215 2.741397 1.727345 0
M  V30 33 H 3.157351 -0.505171 -0.095113 0
M  V30 34 H 4.441837 -0.780491 -2.205319 0
M  V30 35 H 5.696868 1.049050 -3.218416 0
M  V30 36 H 5.721635 3.235748 -2.163998 0
M  V30 37 H 4.453046 3.621751 -0.023391 0
M  V30 38 H -2.790802 0.943004 1.233377 0
M  V30 39 H -1.148509 1.310523 0.485585 0
M  V30 40 H -2.590347 0.069096 -1.148258 0
M  V30 41 H -1.300996 -1.007851 -0.498855 0
M  V30 42 H -3.271983 -1.420181 -2.357321 0
M  V30 43 H -4.782481 -2.756347 -3.742373 0
M  V30 44 H -6.498092 -4.245995 -2.650269 0
M  V30 45 H -6.573108 -4.285264 -0.143888 0
M  V30 46 H -3.718923 -2.491930 2.046909 0
M  V30 47 H -4.139964 -0.763192 2.131625 0
M  V30 48 H -2.340057 -0.821496 3.514327 0
M  V30 49 H -1.527014 -2.198970 2.730899 0
M  V30 END ATOM
M  V30 BEGIN BOND
M  V30 1 3 1 2
M  V30 2 1 2 3
M  V30 3 1 3 4
M  V30 4 2 4 5
M  V30 5 1 5 6
M  V30 6 1 6 7
M  V30 7 1 7 8
M  V30 8 1 8 9
M  V30 9 2 9 10
M  V30 10 1 10 11
M  V30 11 2 11 12
M  V30 12 1 12 13
M  V30 13 2 13 14
M  V30 14 2 7 15
M  V30 15 1 15 16
M  V30 16 1 16 17
M  V30 17 1 17 18
M  V30 18 1 18 19
M  V30 19 1 19 20
M  V30 20 1 20 21
M  V30 21 2 21 22
M  V30 22 1 22 23
M  V30 23 2 23 24
M  V30 24 1 24 25
M  V30 25 2 25 26
M  V30 26 1 20 27
M  V30 27 1 27 28
M  V30 28 2 16 29
M  V30 29 1 29 30
M  V30 30 2 30 3
M  V30 31 1 30 6
M  V30 32 1 14 9
M  V30 33 1 28 17
M  V30 34 1 26 21
M  V30 35 1 4 31
M  V30 36 1 8 32
M  V30 37 1 10 33
M  V30 38 1 11 34
M  V30 39 1 12 35
M  V30 40 1 13 36
M  V30 41 1 14 37
M  V30 42 1 18 38
M  V30 43 1 18 39
M  V30 44 1 19 40
M  V30 45 1 19 41
M  V30 46 1 22 42
M  V30 47 1 23 43
M  V30 48 1 24 44
M  V30 49 1 25 45
M  V30 50 1 27 46
M  V30 51 1 27 47
M  V30 52 1 28 48
M  V30 53 1 28 49
M  V30 END BOND
M  V30 END CTAB
M  END
>  <Dataset>  (133) 
ChEMBL_Kinases

>  <Ligand_Instance>  (133) 
nan

>  <PDB_ID>  (133) 
nan

>  <Standardized_SMILES>  (133) 
N#Cc1cnn2c(Nc3ccccc3)nc(N3CCN(c4ccccn4)CC3)nc12

>  <Name>  (133) 
nan

>  <Pocket>  (133) 
nan

>  <ATP_Site>  (133) 
nan

>  <Peripheral>  (133) 
nan

>  <Num_H_Atoms_ProtBoundConf>  (133) 
nan

>  <Num_Resolved_Atoms>  (133) 
nan

>  <Num_Not_Resolved_Atoms>  (133) 
nan

$$$$
CHEMBL2297166
     RDKit          3D

  0  0  0  0  0  0  0  0  0  0999 V3000
M  V30 BEGIN CTAB
M  V30 COUNTS 52 56 0 0 0
M  V30 BEGIN ATOM
M  V30 1 C -1.235867 -6.943183 3.475642 0
M  V30 2 C -0.682651 -5.638526 2.997630 0
M  V30 3 C -1.402748 -4.448419 3.115872 0
M  V30 4 C -0.801089 -3.285760 2.639209 0
M  V30 5 C 0.475468 -3.351922 2.071184 0
M  V30 6 C 1.035409 -2.090664 1.594302 0
M  V30 7 C 2.264675 -1.880058 0.995762 0
M  V30 8 N 2.317895 -0.555422 0.735197 0
M  V30 9 C 1.185281 0.067324 1.141006 0
M  V30 10 C 0.924191 1.546422 0.994214 0
M  V30 11 C 1.627955 2.327940 2.110402 0
M  V30 12 O 1.554909 3.658765 1.701028 0
M  V30 13 C 2.563452 3.834226 0.742081 0
M  V30 14 C 2.450379 2.829452 -0.383900 0
M  V30 15 N 1.271108 2.024861 -0.296020 0
M  V30 16 C 0.229762 2.601508 -1.076572 0
M  V30 17 C -1.051414 1.865686 -1.020855 0
M  V30 18 C -2.146987 2.319995 -0.275860 0
M  V30 19 N -3.198382 1.468186 -0.391278 0
M  V30 20 C -2.792913 0.472692 -1.200901 0
M  V30 21 C -3.478717 -0.639495 -1.634577 0
M  V30 22 C -2.813243 -1.513923 -2.472898 0
M  V30 23 C -1.513340 -1.282980 -2.860763 0
M  V30 24 C -0.808236 -0.162273 -2.429318 0
M  V30 25 C -1.489327 0.699181 -1.592995 0
M  V30 26 N 0.413021 -0.901650 1.666653 0
M  V30 27 C 1.179061 -4.535862 1.959569 0
M  V30 28 C 0.586985 -5.697792 2.431904 0
M  V30 29 H -0.461193 -7.579643 3.960736 0
M  V30 30 H -2.091899 -6.797410 4.182578 0
M  V30 31 H -1.625407 -7.505016 2.624195 0
M  V30 32 H -2.376276 -4.526240 3.571323 0
M  V30 33 H -1.369864 -2.377718 2.738966 0
M  V30 34 H 3.011175 -2.641246 0.789639 0
M  V30 35 H 3.157773 -0.127061 0.276381 0
M  V30 36 H -0.161233 1.716011 1.157788 0
M  V30 37 H 2.662164 1.939497 2.158196 0
M  V30 38 H 1.100592 2.143684 3.054519 0
M  V30 39 H 3.529344 3.673614 1.262015 0
M  V30 40 H 2.460264 4.879621 0.382498 0
M  V30 41 H 2.396298 3.422357 -1.331281 0
M  V30 42 H 3.388887 2.220672 -0.489420 0
M  V30 43 H 0.598388 2.623572 -2.143033 0
M  V30 44 H 0.082629 3.669632 -0.817270 0
M  V30 45 H -2.162041 3.235569 0.321010 0
M  V30 46 H -4.109934 1.627611 0.087275 0
M  V30 47 H -4.497939 -0.852684 -1.351423 0
M  V30 48 H -3.357410 -2.384259 -2.808851 0
M  V30 49 H -0.972931 -1.952693 -3.516184 0
M  V30 50 H 0.213523 0.038959 -2.720528 0
M  V30 51 H 2.161181 -4.513312 1.509658 0
M  V30 52 H 1.123612 -6.618363 2.349181 0
M  V30 END ATOM
M  V30 BEGIN BOND
M  V30 1 1 1 2
M  V30 2 2 2 3
M  V30 3 1 3 4
M  V30 4 2 4 5
M  V30 5 1 5 6
M  V30 6 2 6 7
M  V30 7 1 7 8
M  V30 8 1 8 9
M  V30 9 1 9 10
M  V30 10 1 10 11
M  V30 11 1 11 12
M  V30 12 1 12 13
M  V30 13 1 13 14
M  V30 14 1 14 15
M  V30 15 1 15 16
M  V30 16 1 16 17
M  V30 17 2 17 18
M  V30 18 1 18 19
M  V30 19 1 19 20
M  V30 20 2 20 21
M  V30 21 1 21 22
M  V30 22 2 22 23
M  V30 23 1 23 24
M  V30 24 2 24 25
M  V30 25 2 9 26
M  V30 26 1 5 27
M  V30 27 2 27 28
M  V30 28 1 28 2
M  V30 29 1 26 6
M  V30 30 1 15 10
M  V30 31 1 25 17
M  V30 32 1 25 20
M  V30 33 1 1 29
M  V30 34 1 1 30
M  V30 35 1 1 31
M  V30 36 1 3 32
M  V30 37 1 4 33
M  V30 38 1 7 34
M  V30 39 1 8 35
M  V30 40 1 10 36
M  V30 41 1 11 37
M  V30 42 1 11 38
M  V30 43 1 13 39
M  V30 44 1 13 40
M  V30 45 1 14 41
M  V30 46 1 14 42
M  V30 47 1 16 43
M  V30 48 1 16 44
M  V30 49 1 18 45
M  V30 50 1 19 46
M  V30 51 1 21 47
M  V30 52 1 22 48
M  V30 53 1 23 49
M  V30 54 1 24 50
M  V30 55 1 27 51
M  V30 56 1 28 52
M  V30 END BOND
M  V30 END CTAB
M  END
>  <Dataset>  (134) 
ChEMBL_Kinases

>  <Ligand_Instance>  (134) 
nan

>  <PDB_ID>  (134) 
nan

>  <Standardized_SMILES>  (134) 
Cc1ccc(-c2c[nH]c(C3COCCN3Cc3c[nH]c4ccccc34)n2)cc1

>  <Name>  (134) 
nan

>  <Pocket>  (134) 
nan

>  <ATP_Site>  (134) 
nan

>  <Peripheral>  (134) 
nan

>  <Num_H_Atoms_ProtBoundConf>  (134) 
nan

>  <Num_Resolved_Atoms>  (134) 
nan

>  <Num_Not_Resolved_Atoms>  (134) 
nan

$$$$
CHEMBL229748
     RDKit          3D

  0  0  0  0  0  0  0  0  0  0999 V3000
M  V30 BEGIN CTAB
M  V30 COUNTS 49 52 0 0 0
M  V30 BEGIN ATOM
M  V30 1 C 1.767144 -5.081509 2.680300 0
M  V30 2 C 3.157165 -4.825837 2.200472 0
M  V30 3 N 4.282220 -5.473387 2.539862 0
M  V30 4 N 5.285730 -4.919179 1.876602 0
M  V30 5 C 4.898601 -3.890880 1.072404 0
M  V30 6 C 5.595288 -3.067473 0.238015 0
M  V30 7 C 4.838549 -2.127517 -0.420233 0
M  V30 8 C 3.472616 -2.012905 -0.259083 0
M  V30 9 C 2.678616 -0.992267 -0.979555 0
M  V30 10 C 3.020882 -0.540400 -2.259482 0
M  V30 11 N 2.279243 0.389137 -2.888525 0
M  V30 12 C 1.181581 0.931422 -2.333954 0
M  V30 13 C 0.811582 0.512064 -1.073871 0
M  V30 14 O -0.278454 0.938653 -0.324365 0
M  V30 15 C -1.119979 1.917196 -0.904948 0
M  V30 16 C -2.225123 2.210711 0.120057 0 CFG=1
M  V30 17 N -3.112752 3.189736 -0.414636 0
M  V30 18 C -2.830967 0.910451 0.511866 0
M  V30 19 C -3.924511 1.019046 1.505472 0
M  V30 20 C -5.208648 1.446892 1.190766 0
M  V30 21 F -5.491047 1.782716 -0.089602 0
M  V30 22 C -6.149456 1.507411 2.222151 0
M  V30 23 C -5.880072 1.168733 3.529019 0
M  V30 24 C -4.593451 0.734940 3.870015 0
M  V30 25 C -3.694092 0.689022 2.825219 0
M  V30 26 F -2.425737 0.264193 3.145417 0
M  V30 27 C 1.540958 -0.444342 -0.379665 0
M  V30 28 C 2.809771 -2.880356 0.606469 0
M  V30 29 C 3.544491 -3.852001 1.295991 0
M  V30 30 H 1.762291 -5.375276 3.762819 0
M  V30 31 H 1.221620 -4.127704 2.610405 0
M  V30 32 H 1.287674 -5.866722 2.057577 0
M  V30 33 H 6.251695 -5.307139 2.024514 0
M  V30 34 H 6.667332 -3.163705 0.116587 0
M  V30 35 H 5.329554 -1.431124 -1.107266 0
M  V30 36 H 3.893827 -0.966502 -2.709900 0
M  V30 37 H 0.538068 1.676248 -2.769785 0
M  V30 38 H -1.660005 1.415063 -1.760054 0
M  V30 39 H -0.597891 2.826762 -1.218007 0
M  V30 40 H -1.685111 2.710141 0.975842 0
M  V30 41 H -3.662119 3.734675 0.264856 0
M  V30 42 H -2.730092 3.749758 -1.199531 0
M  V30 43 H -2.018612 0.281789 0.941852 0
M  V30 44 H -3.211770 0.355781 -0.361510 0
M  V30 45 H -7.166288 1.845267 1.976541 0
M  V30 46 H -6.626099 1.224970 4.308480 0
M  V30 47 H -4.293061 0.449818 4.868664 0
M  V30 48 H 1.321901 -0.827586 0.607148 0
M  V30 49 H 1.739839 -2.816234 0.754189 0
M  V30 END ATOM
M  V30 BEGIN BOND
M  V30 1 1 1 2
M  V30 2 2 2 3
M  V30 3 1 3 4
M  V30 4 1 4 5
M  V30 5 2 5 6
M  V30 6 1 6 7
M  V30 7 2 7 8
M  V30 8 1 8 9
M  V30 9 2 9 10
M  V30 10 1 10 11
M  V30 11 2 11 12
M  V30 12 1 12 13
M  V30 13 1 13 14
M  V30 14 1 14 15
M  V30 15 1 15 16
M  V30 16 1 16 17
M  V30 17 1 16 18
M  V30 18 1 18 19
M  V30 19 2 19 20
M  V30 20 1 20 21
M  V30 21 1 20 22
M  V30 22 2 22 23
M  V30 23 1 23 24
M  V30 24 2 24 25
M  V30 25 1 25 26
M  V30 26 2 13 27
M  V30 27 1 8 28
M  V30 28 2 28 29
M  V30 29 1 29 2
M  V30 30 1 29 5
M  V30 31 1 27 9
M  V30 32 1 25 19
M  V30 33 1 1 30
M  V30 34 1 1 31
M  V30 35 1 1 32
M  V30 36 1 4 33
M  V30 37 1 6 34
M  V30 38 1 7 35
M  V30 39 1 10 36
M  V30 40 1 12 37
M  V30 41 1 15 38
M  V30 42 1 15 39
M  V30 43 1 16 40 CFG=1
M  V30 44 1 17 41
M  V30 45 1 17 42
M  V30 46 1 18 43
M  V30 47 1 18 44
M  V30 48 1 22 45
M  V30 49 1 23 46
M  V30 50 1 24 47
M  V30 51 1 27 48
M  V30 52 1 28 49
M  V30 END BOND
M  V30 END CTAB
M  END
>  <Dataset>  (135) 
ChEMBL_Kinases

>  <Ligand_Instance>  (135) 
nan

>  <PDB_ID>  (135) 
nan

>  <Standardized_SMILES>  (135) 
Cc1n[nH]c2ccc(-c3cncc(OC[C@@H](N)Cc4c(F)cccc4F)c3)cc12

>  <Name>  (135) 
nan

>  <Pocket>  (135) 
nan

>  <ATP_Site>  (135) 
nan

>  <Peripheral>  (135) 
nan

>  <Num_H_Atoms_ProtBoundConf>  (135) 
nan

>  <Num_Resolved_Atoms>  (135) 
nan

>  <Num_Not_Resolved_Atoms>  (135) 
nan

$$$$
CHEMBL229798
     RDKit          3D

  0  0  0  0  0  0  0  0  0  0999 V3000
M  V30 BEGIN CTAB
M  V30 COUNTS 49 52 0 0 0
M  V30 BEGIN ATOM
M  V30 1 C 2.927162 -6.137149 -1.092169 0
M  V30 2 C 3.221159 -5.352737 0.157094 0
M  V30 3 N 3.714421 -5.850090 1.295108 0
M  V30 4 N 3.841332 -4.860490 2.173643 0
M  V30 5 C 3.429642 -3.708372 1.610658 0
M  V30 6 C 3.337799 -2.397737 2.035856 0
M  V30 7 C 2.855594 -1.449601 1.163881 0
M  V30 8 C 2.448990 -1.722754 -0.133177 0
M  V30 9 C 1.959356 -0.626062 -0.969748 0
M  V30 10 C 2.064402 -0.508719 -2.337931 0
M  V30 11 N 1.573113 0.556746 -2.993571 0
M  V30 12 C 0.948317 1.566428 -2.320053 0
M  V30 13 C 0.807182 1.508598 -0.923816 0
M  V30 14 O 0.152334 2.635547 -0.506580 0
M  V30 15 C -0.237348 3.041810 0.747612 0
M  V30 16 C -1.221838 2.193033 1.476040 0 CFG=1
M  V30 17 N -1.528141 2.752138 2.799452 0
M  V30 18 C -2.516349 2.088458 0.697115 0
M  V30 19 C -3.512257 1.256694 1.384089 0
M  V30 20 C -4.593412 1.823986 2.068269 0
M  V30 21 C -5.520440 1.009259 2.708390 0
M  V30 22 C -5.377736 -0.364380 2.671571 0
M  V30 23 F -6.290837 -1.142431 3.300343 0
M  V30 24 C -4.322829 -0.945077 2.004987 0
M  V30 25 F -4.142654 -2.306171 1.942446 0
M  V30 26 C -3.394997 -0.116495 1.363669 0
M  V30 27 F -2.365760 -0.686233 0.712751 0
M  V30 28 C 1.326888 0.401195 -0.312801 0
M  V30 29 C 2.538249 -3.035540 -0.565803 0
M  V30 30 C 3.022853 -3.995741 0.306510 0
M  V30 31 H 3.816337 -6.025399 -1.758356 0
M  V30 32 H 2.067078 -5.686787 -1.592424 0
M  V30 33 H 2.776533 -7.188723 -0.835263 0
M  V30 34 H 4.192290 -4.860011 3.167837 0
M  V30 35 H 3.652980 -2.178625 3.042156 0
M  V30 36 H 2.826058 -0.448240 1.603571 0
M  V30 37 H 2.572070 -1.341259 -2.833643 0
M  V30 38 H 0.636079 2.318151 -3.058923 0
M  V30 39 H -0.709887 4.065273 0.649357 0
M  V30 40 H 0.667987 3.259676 1.385350 0
M  V30 41 H -0.804347 1.190804 1.647401 0
M  V30 42 H -0.879135 2.397103 3.532528 0
M  V30 43 H -2.487852 2.564763 3.104449 0
M  V30 44 H -2.299777 1.588869 -0.280759 0
M  V30 45 H -2.907856 3.090510 0.489423 0
M  V30 46 H -4.718936 2.913711 2.106436 0
M  V30 47 H -6.373039 1.449691 3.247909 0
M  V30 48 H 1.197779 0.417681 0.737291 0
M  V30 49 H 2.224344 -3.262753 -1.572573 0
M  V30 END ATOM
M  V30 BEGIN BOND
M  V30 1 1 1 2
M  V30 2 2 2 3
M  V30 3 1 3 4
M  V30 4 1 4 5
M  V30 5 2 5 6
M  V30 6 1 6 7
M  V30 7 2 7 8
M  V30 8 1 8 9
M  V30 9 2 9 10
M  V30 10 1 10 11
M  V30 11 2 11 12
M  V30 12 1 12 13
M  V30 13 1 13 14
M  V30 14 1 14 15
M  V30 15 1 15 16
M  V30 16 1 16 17
M  V30 17 1 16 18
M  V30 18 1 18 19
M  V30 19 2 19 20
M  V30 20 1 20 21
M  V30 21 2 21 22
M  V30 22 1 22 23
M  V30 23 1 22 24
M  V30 24 1 24 25
M  V30 25 2 24 26
M  V30 26 1 26 27
M  V30 27 2 13 28
M  V30 28 1 8 29
M  V30 29 2 29 30
M  V30 30 1 30 2
M  V30 31 1 30 5
M  V30 32 1 28 9
M  V30 33 1 26 19
M  V30 34 1 1 31
M  V30 35 1 1 32
M  V30 36 1 1 33
M  V30 37 1 4 34
M  V30 38 1 6 35
M  V30 39 1 7 36
M  V30 40 1 10 37
M  V30 41 1 12 38
M  V30 42 1 15 39
M  V30 43 1 15 40
M  V30 44 1 16 41 CFG=1
M  V30 45 1 17 42
M  V30 46 1 17 43
M  V30 47 1 18 44
M  V30 48 1 18 45
M  V30 49 1 20 46
M  V30 50 1 21 47
M  V30 51 1 28 48
M  V30 52 1 29 49
M  V30 END BOND
M  V30 END CTAB
M  END
>  <Dataset>  (136) 
ChEMBL_Kinases

>  <Ligand_Instance>  (136) 
nan

>  <PDB_ID>  (136) 
nan

>  <Standardized_SMILES>  (136) 
Cc1n[nH]c2ccc(-c3cncc(OC[C@@H](N)Cc4ccc(F)c(F)c4F)c3)cc12

>  <Name>  (136) 
nan

>  <Pocket>  (136) 
nan

>  <ATP_Site>  (136) 
nan

>  <Peripheral>  (136) 
nan

>  <Num_H_Atoms_ProtBoundConf>  (136) 
nan

>  <Num_Resolved_Atoms>  (136) 
nan

>  <Num_Not_Resolved_Atoms>  (136) 
nan

$$$$
CHEMBL229799
     RDKit          3D

  0  0  0  0  0  0  0  0  0  0999 V3000
M  V30 BEGIN CTAB
M  V30 COUNTS 49 52 0 0 0
M  V30 BEGIN ATOM
M  V30 1 C 2.795349 -4.313194 2.201850 0
M  V30 2 C 4.003255 -3.899819 1.455824 0
M  V30 3 N 5.255534 -4.409362 1.465178 0
M  V30 4 N 5.986748 -3.696640 0.627283 0
M  V30 5 C 5.290580 -2.715435 0.039352 0
M  V30 6 C 5.507709 -1.710962 -0.871641 0
M  V30 7 C 4.516920 -0.835713 -1.273371 0
M  V30 8 C 3.237250 -0.940483 -0.760617 0
M  V30 9 C 2.156412 -0.041360 -1.153360 0
M  V30 10 C 2.037579 0.529093 -2.402661 0
M  V30 11 N 0.992317 1.344258 -2.640493 0
M  V30 12 C 0.074302 1.593100 -1.655061 0
M  V30 13 C 0.163078 1.031778 -0.376213 0
M  V30 14 O -0.910639 1.500454 0.324380 0
M  V30 15 C -1.325844 1.269386 1.618565 0
M  V30 16 C -1.672402 -0.157396 1.963535 0 CFG=1
M  V30 17 N -2.092347 -0.255941 3.350190 0
M  V30 18 C -2.745926 -0.656949 1.026088 0
M  V30 19 C -3.984713 0.131661 1.100596 0
M  V30 20 C -4.268710 1.232513 0.319059 0
M  V30 21 C -5.451580 1.947511 0.428854 0
M  V30 22 C -6.363559 1.516400 1.367289 0
M  V30 23 C -6.143232 0.418853 2.185075 0
M  V30 24 Cl -7.367417 -0.044995 3.345771 0
M  V30 25 C -4.958514 -0.232060 2.018583 0
M  V30 26 C 1.240281 0.201490 -0.154887 0
M  V30 27 C 3.047157 -1.960416 0.154276 0
M  V30 28 C 4.023414 -2.841928 0.566021 0
M  V30 29 H 1.868464 -4.184540 1.622524 0
M  V30 30 H 2.866193 -5.411953 2.420622 0
M  V30 31 H 2.753129 -3.830344 3.204540 0
M  V30 32 H 7.003471 -3.872116 0.436496 0
M  V30 33 H 6.505349 -1.609605 -1.287444 0
M  V30 34 H 4.686610 -0.036882 -1.996689 0
M  V30 35 H 2.802037 0.286263 -3.133388 0
M  V30 36 H -0.657330 2.269255 -2.092160 0
M  V30 37 H -0.518324 1.649950 2.319287 0
M  V30 38 H -2.201667 1.948404 1.855420 0
M  V30 39 H -0.760186 -0.767035 1.887419 0
M  V30 40 H -1.300874 0.057750 3.954439 0
M  V30 41 H -2.155215 -1.297355 3.544364 0
M  V30 42 H -2.993250 -1.699974 1.353946 0
M  V30 43 H -2.373332 -0.727345 -0.015824 0
M  V30 44 H -3.547679 1.554231 -0.408827 0
M  V30 45 H -5.622362 2.798150 -0.204583 0
M  V30 46 H -7.274332 2.085384 1.435773 0
M  V30 47 H -4.809009 -1.098073 2.678633 0
M  V30 48 H 1.229099 -0.168544 0.835033 0
M  V30 49 H 2.049106 -2.056917 0.566556 0
M  V30 END ATOM
M  V30 BEGIN BOND
M  V30 1 1 1 2
M  V30 2 2 2 3
M  V30 3 1 3 4
M  V30 4 1 4 5
M  V30 5 2 5 6
M  V30 6 1 6 7
M  V30 7 2 7 8
M  V30 8 1 8 9
M  V30 9 2 9 10
M  V30 10 1 10 11
M  V30 11 2 11 12
M  V30 12 1 12 13
M  V30 13 1 13 14
M  V30 14 1 14 15
M  V30 15 1 15 16
M  V30 16 1 16 17
M  V30 17 1 16 18
M  V30 18 1 18 19
M  V30 19 2 19 20
M  V30 20 1 20 21
M  V30 21 2 21 22
M  V30 22 1 22 23
M  V30 23 1 23 24
M  V30 24 2 23 25
M  V30 25 2 13 26
M  V30 26 1 8 27
M  V30 27 2 27 28
M  V30 28 1 28 2
M  V30 29 1 28 5
M  V30 30 1 26 9
M  V30 31 1 25 19
M  V30 32 1 1 29
M  V30 33 1 1 30
M  V30 34 1 1 31
M  V30 35 1 4 32
M  V30 36 1 6 33
M  V30 37 1 7 34
M  V30 38 1 10 35
M  V30 39 1 12 36
M  V30 40 1 15 37
M  V30 41 1 15 38
M  V30 42 1 16 39 CFG=1
M  V30 43 1 17 40
M  V30 44 1 17 41
M  V30 45 1 18 42
M  V30 46 1 18 43
M  V30 47 1 20 44
M  V30 48 1 21 45
M  V30 49 1 22 46
M  V30 50 1 25 47
M  V30 51 1 26 48
M  V30 52 1 27 49
M  V30 END BOND
M  V30 END CTAB
M  END
>  <Dataset>  (137) 
ChEMBL_Kinases

>  <Ligand_Instance>  (137) 
nan

>  <PDB_ID>  (137) 
nan

>  <Standardized_SMILES>  (137) 
Cc1n[nH]c2ccc(-c3cncc(OC[C@@H](N)Cc4cccc(Cl)c4)c3)cc12

>  <Name>  (137) 
nan

>  <Pocket>  (137) 
nan

>  <ATP_Site>  (137) 
nan

>  <Peripheral>  (137) 
nan

>  <Num_H_Atoms_ProtBoundConf>  (137) 
nan

>  <Num_Resolved_Atoms>  (137) 
nan

>  <Num_Not_Resolved_Atoms>  (137) 
nan

$$$$
CHEMBL229800
     RDKit          3D

  0  0  0  0  0  0  0  0  0  0999 V3000
M  V30 BEGIN CTAB
M  V30 COUNTS 49 52 0 0 0
M  V30 BEGIN ATOM
M  V30 1 C 2.146004 -5.283558 1.470366 0
M  V30 2 C 3.297008 -4.948074 0.582841 0
M  V30 3 N 4.386899 -5.716800 0.295361 0
M  V30 4 N 5.189930 -5.062866 -0.538240 0
M  V30 5 C 4.684264 -3.853446 -0.839396 0
M  V30 6 C 5.030311 -2.764004 -1.610462 0
M  V30 7 C 4.263259 -1.621559 -1.714998 0
M  V30 8 C 3.063392 -1.541403 -1.008152 0
M  V30 9 C 2.174382 -0.383533 -1.045096 0
M  V30 10 C 2.022634 0.436416 -2.149457 0
M  V30 11 N 1.187282 1.494265 -2.128453 0
M  V30 12 C 0.460258 1.809033 -1.040514 0
M  V30 13 C 0.573023 1.014563 0.107069 0
M  V30 14 O -0.120642 1.252731 1.255168 0
M  V30 15 C -1.031327 2.256105 1.543001 0
M  V30 16 C -1.602405 2.201087 2.932731 0 CFG=1
M  V30 17 N -2.522290 3.294988 3.088550 0
M  V30 18 C -2.308697 0.917246 3.234593 0
M  V30 19 C -3.458689 0.632138 2.341495 0
M  V30 20 C -3.296068 -0.069939 1.157658 0
M  V30 21 C -4.318414 -0.379503 0.270017 0
M  V30 22 C -5.593731 0.050052 0.601127 0
M  V30 23 Cl -6.865318 -0.353577 -0.535963 0
M  V30 24 C -5.802256 0.757581 1.779144 0
M  V30 25 C -4.761983 1.044480 2.632987 0
M  V30 26 C 1.434341 -0.088233 0.106513 0
M  V30 27 C 2.684925 -2.629700 -0.217361 0
M  V30 28 C 3.492254 -3.766472 -0.140883 0
M  V30 29 H 2.299649 -4.990084 2.514219 0
M  V30 30 H 2.016783 -6.397981 1.402329 0
M  V30 31 H 1.224554 -4.774625 1.113030 0
M  V30 32 H 6.103582 -5.387866 -0.941767 0
M  V30 33 H 5.973607 -2.868076 -2.145410 0
M  V30 34 H 4.551130 -0.794191 -2.316668 0
M  V30 35 H 2.607737 0.189924 -3.037183 0
M  V30 36 H -0.226082 2.642324 -0.960687 0
M  V30 37 H -1.831529 2.269470 0.785560 0
M  V30 38 H -0.517850 3.240660 1.450959 0
M  V30 39 H -0.792771 2.309749 3.664672 0
M  V30 40 H -2.647885 3.627505 4.068695 0
M  V30 41 H -3.429364 3.189629 2.612310 0
M  V30 42 H -2.598992 0.950253 4.318043 0
M  V30 43 H -1.621361 0.031527 3.167321 0
M  V30 44 H -2.297791 -0.419948 0.873680 0
M  V30 45 H -4.118353 -0.930989 -0.635580 0
M  V30 46 H -6.832156 1.065374 1.978535 0
M  V30 47 H -4.955954 1.590769 3.533528 0
M  V30 48 H 1.522326 -0.708636 1.002825 0
M  V30 49 H 1.755274 -2.640259 0.367544 0
M  V30 END ATOM
M  V30 BEGIN BOND
M  V30 1 1 1 2
M  V30 2 2 2 3
M  V30 3 1 3 4
M  V30 4 1 4 5
M  V30 5 2 5 6
M  V30 6 1 6 7
M  V30 7 2 7 8
M  V30 8 1 8 9
M  V30 9 2 9 10
M  V30 10 1 10 11
M  V30 11 2 11 12
M  V30 12 1 12 13
M  V30 13 1 13 14
M  V30 14 1 14 15
M  V30 15 1 15 16
M  V30 16 1 16 17
M  V30 17 1 16 18
M  V30 18 1 18 19
M  V30 19 2 19 20
M  V30 20 1 20 21
M  V30 21 2 21 22
M  V30 22 1 22 23
M  V30 23 1 22 24
M  V30 24 2 24 25
M  V30 25 2 13 26
M  V30 26 1 8 27
M  V30 27 2 27 28
M  V30 28 1 28 2
M  V30 29 1 28 5
M  V30 30 1 26 9
M  V30 31 1 25 19
M  V30 32 1 1 29
M  V30 33 1 1 30
M  V30 34 1 1 31
M  V30 35 1 4 32
M  V30 36 1 6 33
M  V30 37 1 7 34
M  V30 38 1 10 35
M  V30 39 1 12 36
M  V30 40 1 15 37
M  V30 41 1 15 38
M  V30 42 1 16 39 CFG=1
M  V30 43 1 17 40
M  V30 44 1 17 41
M  V30 45 1 18 42
M  V30 46 1 18 43
M  V30 47 1 20 44
M  V30 48 1 21 45
M  V30 49 1 24 46
M  V30 50 1 25 47
M  V30 51 1 26 48
M  V30 52 1 27 49
M  V30 END BOND
M  V30 END CTAB
M  END
>  <Dataset>  (138) 
ChEMBL_Kinases

>  <Ligand_Instance>  (138) 
nan

>  <PDB_ID>  (138) 
nan

>  <Standardized_SMILES>  (138) 
Cc1n[nH]c2ccc(-c3cncc(OC[C@@H](N)Cc4ccc(Cl)cc4)c3)cc12

>  <Name>  (138) 
nan

>  <Pocket>  (138) 
nan

>  <ATP_Site>  (138) 
nan

>  <Peripheral>  (138) 
nan

>  <Num_H_Atoms_ProtBoundConf>  (138) 
nan

>  <Num_Resolved_Atoms>  (138) 
nan

>  <Num_Not_Resolved_Atoms>  (138) 
nan

$$$$
CHEMBL229854
     RDKit          3D

  0  0  0  0  0  0  0  0  0  0999 V3000
M  V30 BEGIN CTAB
M  V30 COUNTS 49 52 0 0 0
M  V30 BEGIN ATOM
M  V30 1 C 2.141671 -5.119236 2.058726 0
M  V30 2 C 3.454746 -4.665155 1.514754 0
M  V30 3 N 4.670795 -5.274594 1.568325 0
M  V30 4 N 5.571126 -4.511112 0.949707 0
M  V30 5 C 4.979046 -3.387437 0.475471 0
M  V30 6 C 5.436553 -2.303446 -0.216003 0
M  V30 7 C 4.566425 -1.292724 -0.565472 0
M  V30 8 C 3.217058 -1.382245 -0.209619 0
M  V30 9 C 2.405706 -0.249684 -0.636761 0
M  V30 10 C 2.629667 0.482766 -1.780698 0
M  V30 11 N 1.792808 1.520384 -2.053730 0
M  V30 12 C 0.767720 1.793115 -1.186348 0
M  V30 13 C 0.498216 1.069874 -0.001495 0
M  V30 14 O -0.590279 1.689744 0.524344 0
M  V30 15 C -1.220136 1.295670 1.698692 0
M  V30 16 C -1.839617 -0.077295 1.688441 0 CFG=1
M  V30 17 N -2.434710 -0.297358 2.995483 0
M  V30 18 C -2.834411 -0.231436 0.555443 0
M  V30 19 C -3.960436 0.706689 0.605738 0
M  V30 20 C -3.903673 1.834461 -0.218782 0
M  V30 21 C -4.928990 2.765303 -0.204494 0
M  V30 22 C -6.038087 2.615091 0.619250 0
M  V30 23 C -6.117426 1.503606 1.446673 0
M  V30 24 C -5.078675 0.606821 1.399486 0
M  V30 25 Br -5.251688 -0.913556 2.535093 0
M  V30 26 C 1.384955 0.040022 0.205297 0
M  V30 27 C 2.760231 -2.473281 0.485263 0
M  V30 28 C 3.662612 -3.486870 0.828891 0
M  V30 29 H 2.284488 -6.142106 2.440656 0
M  V30 30 H 1.780432 -4.479059 2.866690 0
M  V30 31 H 1.352958 -5.080329 1.265593 0
M  V30 32 H 6.586256 -4.774748 0.861585 0
M  V30 33 H 6.492840 -2.318347 -0.448448 0
M  V30 34 H 5.027414 -0.462606 -1.119931 0
M  V30 35 H 3.467882 0.153424 -2.362630 0
M  V30 36 H 0.275073 2.663293 -1.659493 0
M  V30 37 H -1.950048 2.068017 2.067358 0
M  V30 38 H -0.461253 1.258519 2.544948 0
M  V30 39 H -1.057475 -0.838828 1.581225 0
M  V30 40 H -1.922761 -1.018082 3.548011 0
M  V30 41 H -2.565730 0.566742 3.547386 0
M  V30 42 H -3.192321 -1.302544 0.575954 0
M  V30 43 H -2.257664 -0.167569 -0.389966 0
M  V30 44 H -3.094274 2.076541 -0.911905 0
M  V30 45 H -4.929803 3.667976 -0.835141 0
M  V30 46 H -6.862582 3.330521 0.654495 0
M  V30 47 H -6.978406 1.369313 2.098635 0
M  V30 48 H 1.138542 -0.449040 1.109336 0
M  V30 49 H 1.718125 -2.486660 0.729567 0
M  V30 END ATOM
M  V30 BEGIN BOND
M  V30 1 1 1 2
M  V30 2 2 2 3
M  V30 3 1 3 4
M  V30 4 1 4 5
M  V30 5 2 5 6
M  V30 6 1 6 7
M  V30 7 2 7 8
M  V30 8 1 8 9
M  V30 9 2 9 10
M  V30 10 1 10 11
M  V30 11 2 11 12
M  V30 12 1 12 13
M  V30 13 1 13 14
M  V30 14 1 14 15
M  V30 15 1 15 16
M  V30 16 1 16 17
M  V30 17 1 16 18
M  V30 18 1 18 19
M  V30 19 2 19 20
M  V30 20 1 20 21
M  V30 21 2 21 22
M  V30 22 1 22 23
M  V30 23 2 23 24
M  V30 24 1 24 25
M  V30 25 2 13 26
M  V30 26 1 8 27
M  V30 27 2 27 28
M  V30 28 1 28 2
M  V30 29 1 28 5
M  V30 30 1 26 9
M  V30 31 1 24 19
M  V30 32 1 1 29
M  V30 33 1 1 30
M  V30 34 1 1 31
M  V30 35 1 4 32
M  V30 36 1 6 33
M  V30 37 1 7 34
M  V30 38 1 10 35
M  V30 39 1 12 36
M  V30 40 1 15 37
M  V30 41 1 15 38
M  V30 42 1 16 39 CFG=3
M  V30 43 1 17 40
M  V30 44 1 17 41
M  V30 45 1 18 42
M  V30 46 1 18 43
M  V30 47 1 20 44
M  V30 48 1 21 45
M  V30 49 1 22 46
M  V30 50 1 23 47
M  V30 51 1 26 48
M  V30 52 1 27 49
M  V30 END BOND
M  V30 END CTAB
M  END
>  <Dataset>  (139) 
ChEMBL_Kinases

>  <Ligand_Instance>  (139) 
nan

>  <PDB_ID>  (139) 
nan

>  <Standardized_SMILES>  (139) 
Cc1n[nH]c2ccc(-c3cncc(OC[C@@H](N)Cc4ccccc4Br)c3)cc12

>  <Name>  (139) 
nan

>  <Pocket>  (139) 
nan

>  <ATP_Site>  (139) 
nan

>  <Peripheral>  (139) 
nan

>  <Num_H_Atoms_ProtBoundConf>  (139) 
nan

>  <Num_Resolved_Atoms>  (139) 
nan

>  <Num_Not_Resolved_Atoms>  (139) 
nan

$$$$
CHEMBL229855
     RDKit          3D

  0  0  0  0  0  0  0  0  0  0999 V3000
M  V30 BEGIN CTAB
M  V30 COUNTS 49 52 0 0 0
M  V30 BEGIN ATOM
M  V30 1 C 2.141464 -5.172432 1.577693 0
M  V30 2 C 3.307132 -4.893830 0.701492 0
M  V30 3 N 4.395964 -5.631108 0.431731 0
M  V30 4 N 5.199102 -4.998060 -0.414372 0
M  V30 5 C 4.628067 -3.805133 -0.716274 0
M  V30 6 C 5.007061 -2.756617 -1.527531 0
M  V30 7 C 4.225108 -1.609489 -1.673326 0
M  V30 8 C 3.032529 -1.516090 -0.985200 0
M  V30 9 C 2.129190 -0.364452 -1.056954 0
M  V30 10 C 2.010294 0.398039 -2.210637 0
M  V30 11 N 1.172072 1.449448 -2.244962 0
M  V30 12 C 0.413033 1.827765 -1.201544 0
M  V30 13 C 0.489689 1.107083 -0.028564 0
M  V30 14 O -0.183959 1.310566 1.145348 0
M  V30 15 C -1.114619 2.296976 1.443787 0
M  V30 16 C -1.666233 2.236891 2.831005 0 CFG=1
M  V30 17 N -2.624207 3.321609 3.007429 0
M  V30 18 C -2.296289 0.937087 3.200974 0
M  V30 19 C -3.441805 0.559874 2.338256 0
M  V30 20 C -3.178495 -0.188087 1.210250 0
M  V30 21 C -4.162864 -0.599957 0.329868 0
M  V30 22 C -5.487771 -0.256721 0.570971 0
M  V30 23 Br -6.908253 -0.777713 -0.583306 0
M  V30 24 C -5.777268 0.501974 1.709965 0
M  V30 25 C -4.763868 0.892913 2.563932 0
M  V30 26 C 1.356044 0.007835 0.030495 0
M  V30 27 C 2.677618 -2.583891 -0.178139 0
M  V30 28 C 3.436022 -3.724764 -0.021306 0
M  V30 29 H 2.208470 -4.724063 2.576335 0
M  V30 30 H 2.001498 -6.275807 1.605852 0
M  V30 31 H 1.220252 -4.753043 1.115701 0
M  V30 32 H 6.099076 -5.344773 -0.781562 0
M  V30 33 H 5.945039 -2.852779 -2.056310 0
M  V30 34 H 4.519070 -0.792372 -2.304424 0
M  V30 35 H 2.591473 0.155398 -3.097142 0
M  V30 36 H -0.273991 2.661628 -1.177483 0
M  V30 37 H -1.944089 2.247491 0.708181 0
M  V30 38 H -0.646085 3.294230 1.320705 0
M  V30 39 H -0.858121 2.435863 3.565306 0
M  V30 40 H -2.131503 4.228869 3.249187 0
M  V30 41 H -3.270422 3.141922 3.808510 0
M  V30 42 H -2.594841 1.027247 4.278325 0
M  V30 43 H -1.540053 0.130397 3.192611 0
M  V30 44 H -2.206238 -0.533722 0.884220 0
M  V30 45 H -4.015324 -1.180964 -0.559909 0
M  V30 46 H -6.804454 0.776371 1.909938 0
M  V30 47 H -4.965850 1.481180 3.452232 0
M  V30 48 H 1.485461 -0.625284 0.917693 0
M  V30 49 H 1.758775 -2.574954 0.386552 0
M  V30 END ATOM
M  V30 BEGIN BOND
M  V30 1 1 1 2
M  V30 2 2 2 3
M  V30 3 1 3 4
M  V30 4 1 4 5
M  V30 5 2 5 6
M  V30 6 1 6 7
M  V30 7 2 7 8
M  V30 8 1 8 9
M  V30 9 2 9 10
M  V30 10 1 10 11
M  V30 11 2 11 12
M  V30 12 1 12 13
M  V30 13 1 13 14
M  V30 14 1 14 15
M  V30 15 1 15 16
M  V30 16 1 16 17
M  V30 17 1 16 18
M  V30 18 1 18 19
M  V30 19 2 19 20
M  V30 20 1 20 21
M  V30 21 2 21 22
M  V30 22 1 22 23
M  V30 23 1 22 24
M  V30 24 2 24 25
M  V30 25 2 13 26
M  V30 26 1 8 27
M  V30 27 2 27 28
M  V30 28 1 28 2
M  V30 29 1 28 5
M  V30 30 1 26 9
M  V30 31 1 25 19
M  V30 32 1 1 29
M  V30 33 1 1 30
M  V30 34 1 1 31
M  V30 35 1 4 32
M  V30 36 1 6 33
M  V30 37 1 7 34
M  V30 38 1 10 35
M  V30 39 1 12 36
M  V30 40 1 15 37
M  V30 41 1 15 38
M  V30 42 1 16 39 CFG=1
M  V30 43 1 17 40
M  V30 44 1 17 41
M  V30 45 1 18 42
M  V30 46 1 18 43
M  V30 47 1 20 44
M  V30 48 1 21 45
M  V30 49 1 24 46
M  V30 50 1 25 47
M  V30 51 1 26 48
M  V30 52 1 27 49
M  V30 END BOND
M  V30 END CTAB
M  END
>  <Dataset>  (140) 
ChEMBL_Kinases

>  <Ligand_Instance>  (140) 
nan

>  <PDB_ID>  (140) 
nan

>  <Standardized_SMILES>  (140) 
Cc1n[nH]c2ccc(-c3cncc(OC[C@@H](N)Cc4ccc(Br)cc4)c3)cc12

>  <Name>  (140) 
nan

>  <Pocket>  (140) 
nan

>  <ATP_Site>  (140) 
nan

>  <Peripheral>  (140) 
nan

>  <Num_H_Atoms_ProtBoundConf>  (140) 
nan

>  <Num_Resolved_Atoms>  (140) 
nan

>  <Num_Not_Resolved_Atoms>  (140) 
nan

$$$$
CHEMBL229917
     RDKit          3D

  0  0  0  0  0  0  0  0  0  0999 V3000
M  V30 BEGIN CTAB
M  V30 COUNTS 49 52 0 0 0
M  V30 BEGIN ATOM
M  V30 1 C 0.641545 -2.871766 3.905349 0
M  V30 2 C 2.091685 -3.020622 3.674195 0
M  V30 3 N 3.040368 -3.682408 4.399547 0
M  V30 4 N 4.216111 -3.538689 3.801119 0
M  V30 5 C 4.091644 -2.792888 2.682257 0
M  V30 6 C 4.990338 -2.352683 1.711817 0
M  V30 7 C 4.496592 -1.583734 0.675134 0
M  V30 8 C 3.169911 -1.225450 0.541869 0
M  V30 9 C 2.699770 -0.407959 -0.577166 0
M  V30 10 C 3.261535 -0.445168 -1.836231 0
M  V30 11 N 2.739380 0.359184 -2.791961 0
M  V30 12 C 1.683088 1.176682 -2.490480 0
M  V30 13 C 1.095486 1.229704 -1.213659 0
M  V30 14 O 0.082058 2.150819 -1.300669 0
M  V30 15 C -0.811487 2.570925 -0.329941 0
M  V30 16 C -1.714706 1.516868 0.239604 0 CFG=1
M  V30 17 N -2.573505 2.141290 1.230170 0
M  V30 18 C -2.641927 1.012248 -0.861259 0
M  V30 19 C -3.531776 -0.020502 -0.318814 0
M  V30 20 C -4.762891 0.166750 0.249082 0
M  V30 21 C -5.505851 -0.905338 0.725608 0
M  V30 22 C -4.997233 -2.186212 0.626880 0
M  V30 23 Cl -5.927799 -3.549521 1.225998 0
M  V30 24 C -3.763236 -2.380273 0.058397 0
M  V30 25 F -3.262220 -3.644790 -0.038599 0
M  V30 26 C -3.013188 -1.312278 -0.421052 0
M  V30 27 C 1.637309 0.407060 -0.253239 0
M  V30 28 C 2.326692 -1.689283 1.531219 0
M  V30 29 C 2.749227 -2.460328 2.593989 0
M  V30 30 H 0.091308 -3.329589 3.083128 0
M  V30 31 H 0.335641 -1.789242 3.974967 0
M  V30 32 H 0.352487 -3.348564 4.877992 0
M  V30 33 H 5.159793 -3.924652 4.099441 0
M  V30 34 H 6.031521 -2.626586 1.805176 0
M  V30 35 H 5.238414 -1.262401 -0.060345 0
M  V30 36 H 4.095330 -1.116671 -2.002829 0
M  V30 37 H 1.448447 1.719447 -3.420822 0
M  V30 38 H -1.496696 3.345385 -0.777129 0
M  V30 39 H -0.322482 3.121762 0.515730 0
M  V30 40 H -1.214168 0.687452 0.756573 0
M  V30 41 H -2.221421 2.088192 2.192728 0
M  V30 42 H -2.859589 3.113067 0.922127 0
M  V30 43 H -2.053433 0.658586 -1.731886 0
M  V30 44 H -3.291376 1.878885 -1.164850 0
M  V30 45 H -5.090809 1.196205 0.289933 0
M  V30 46 H -6.465386 -0.728307 1.164751 0
M  V30 47 H -2.046442 -1.551015 -0.856613 0
M  V30 48 H 1.121855 0.535845 0.663236 0
M  V30 49 H 1.272992 -1.436885 1.475129 0
M  V30 END ATOM
M  V30 BEGIN BOND
M  V30 1 1 1 2
M  V30 2 2 2 3
M  V30 3 1 3 4
M  V30 4 1 4 5
M  V30 5 2 5 6
M  V30 6 1 6 7
M  V30 7 2 7 8
M  V30 8 1 8 9
M  V30 9 2 9 10
M  V30 10 1 10 11
M  V30 11 2 11 12
M  V30 12 1 12 13
M  V30 13 1 13 14
M  V30 14 1 14 15
M  V30 15 1 15 16
M  V30 16 1 16 17
M  V30 17 1 16 18
M  V30 18 1 18 19
M  V30 19 2 19 20
M  V30 20 1 20 21
M  V30 21 2 21 22
M  V30 22 1 22 23
M  V30 23 1 22 24
M  V30 24 1 24 25
M  V30 25 2 24 26
M  V30 26 2 13 27
M  V30 27 1 8 28
M  V30 28 2 28 29
M  V30 29 1 29 2
M  V30 30 1 29 5
M  V30 31 1 27 9
M  V30 32 1 26 19
M  V30 33 1 1 30
M  V30 34 1 1 31
M  V30 35 1 1 32
M  V30 36 1 4 33
M  V30 37 1 6 34
M  V30 38 1 7 35
M  V30 39 1 10 36
M  V30 40 1 12 37
M  V30 41 1 15 38
M  V30 42 1 15 39
M  V30 43 1 16 40 CFG=1
M  V30 44 1 17 41
M  V30 45 1 17 42
M  V30 46 1 18 43
M  V30 47 1 18 44
M  V30 48 1 20 45
M  V30 49 1 21 46
M  V30 50 1 26 47
M  V30 51 1 27 48
M  V30 52 1 28 49
M  V30 END BOND
M  V30 END CTAB
M  END
>  <Dataset>  (141) 
ChEMBL_Kinases

>  <Ligand_Instance>  (141) 
nan

>  <PDB_ID>  (141) 
nan

>  <Standardized_SMILES>  (141) 
Cc1n[nH]c2ccc(-c3cncc(OC[C@@H](N)Cc4ccc(Cl)c(F)c4)c3)cc12

>  <Name>  (141) 
nan

>  <Pocket>  (141) 
nan

>  <ATP_Site>  (141) 
nan

>  <Peripheral>  (141) 
nan

>  <Num_H_Atoms_ProtBoundConf>  (141) 
nan

>  <Num_Resolved_Atoms>  (141) 
nan

>  <Num_Not_Resolved_Atoms>  (141) 
nan

$$$$
CHEMBL230230
     RDKit          3D

  0  0  0  0  0  0  0  0  0  0999 V3000
M  V30 BEGIN CTAB
M  V30 COUNTS 48 51 0 0 0
M  V30 BEGIN ATOM
M  V30 1 N -1.524939 -5.985339 4.076348 0
M  V30 2 C -0.938354 -5.021998 3.808217 0
M  V30 3 C -0.193969 -3.829516 3.491939 0
M  V30 4 C 0.264686 -2.994849 4.518369 0
M  V30 5 N 0.966927 -1.863701 4.277309 0
M  V30 6 C 1.247588 -1.505969 3.014915 0
M  V30 7 C 1.958091 -0.369660 2.691790 0
M  V30 8 Cl 2.487999 0.608268 4.046990 0
M  V30 9 C 2.226054 -0.038132 1.384385 0
M  V30 10 C 1.808242 -0.808697 0.322003 0
M  V30 11 N 2.065292 -0.485886 -1.037351 0
M  V30 12 C 2.777316 0.712442 -1.428745 0
M  V30 13 C 1.960017 1.891474 -1.010172 0
M  V30 14 O 0.831122 1.804961 -0.419022 0
M  V30 15 N 2.314244 3.243462 -1.205665 0
M  V30 16 C 1.246576 4.046064 -0.653486 0
M  V30 17 C 1.125227 4.530920 0.645455 0
M  V30 18 C 0.007291 5.276095 0.929191 0
M  V30 19 C -0.968034 5.550030 -0.004765 0
M  V30 20 N -0.824276 5.070908 -1.244701 0
M  V30 21 C 0.256984 4.322572 -1.605543 0
M  V30 22 C 1.099572 -1.940629 0.661854 0
M  V30 23 C 0.819891 -2.291691 1.966461 0
M  V30 24 C 0.103431 -3.446702 2.200274 0
M  V30 25 N -0.374466 -4.312302 1.190021 0
M  V30 26 C -1.665449 -4.022406 0.736496 0
M  V30 27 C -2.449739 -2.994856 1.217282 0
M  V30 28 C -3.726227 -2.671940 0.803345 0
M  V30 29 C -4.266718 -3.466121 -0.197411 0
M  V30 30 F -5.516186 -3.200352 -0.647210 0
M  V30 31 C -3.560108 -4.535360 -0.757977 0
M  V30 32 Cl -4.235413 -5.541482 -2.020661 0
M  V30 33 C -2.288821 -4.759883 -0.259528 0
M  V30 34 H 0.023494 -3.307575 5.541040 0
M  V30 35 H 2.789478 0.860645 1.218379 0
M  V30 36 H 1.725118 -1.141572 -1.773509 0
M  V30 37 H 2.996352 0.689597 -2.498137 0
M  V30 38 H 3.772171 0.786427 -0.908316 0
M  V30 39 H 3.235259 3.448268 -1.689913 0
M  V30 40 H 1.939723 4.254415 1.275813 0
M  V30 41 H -0.038935 5.634687 1.970587 0
M  V30 42 H -1.790293 6.146912 0.356641 0
M  V30 43 H 0.263617 3.990857 -2.635292 0
M  V30 44 H 0.748570 -2.581391 -0.145775 0
M  V30 45 H 0.132239 -5.118319 0.768836 0
M  V30 46 H -2.053042 -2.354001 2.002902 0
M  V30 47 H -4.271816 -1.850115 1.232952 0
M  V30 48 H -1.761764 -5.595773 -0.711891 0
M  V30 END ATOM
M  V30 BEGIN BOND
M  V30 1 3 1 2
M  V30 2 1 2 3
M  V30 3 2 3 4
M  V30 4 1 4 5
M  V30 5 2 5 6
M  V30 6 1 6 7
M  V30 7 1 7 8
M  V30 8 2 7 9
M  V30 9 1 9 10
M  V30 10 1 10 11
M  V30 11 1 11 12
M  V30 12 1 12 13
M  V30 13 2 13 14
M  V30 14 1 13 15
M  V30 15 1 15 16
M  V30 16 2 16 17
M  V30 17 1 17 18
M  V30 18 2 18 19
M  V30 19 1 19 20
M  V30 20 2 20 21
M  V30 21 2 10 22
M  V30 22 1 22 23
M  V30 23 2 23 24
M  V30 24 1 24 25
M  V30 25 1 25 26
M  V30 26 2 26 27
M  V30 27 1 27 28
M  V30 28 2 28 29
M  V30 29 1 29 30
M  V30 30 1 29 31
M  V30 31 1 31 32
M  V30 32 2 31 33
M  V30 33 1 24 3
M  V30 34 1 33 26
M  V30 35 1 23 6
M  V30 36 1 21 16
M  V30 37 1 4 34
M  V30 38 1 9 35
M  V30 39 1 11 36
M  V30 40 1 12 37
M  V30 41 1 12 38
M  V30 42 1 15 39
M  V30 43 1 17 40
M  V30 44 1 18 41
M  V30 45 1 19 42
M  V30 46 1 21 43
M  V30 47 1 22 44
M  V30 48 1 25 45
M  V30 49 1 27 46
M  V30 50 1 28 47
M  V30 51 1 33 48
M  V30 END BOND
M  V30 END CTAB
M  END
>  <Dataset>  (142) 
ChEMBL_Kinases

>  <Ligand_Instance>  (142) 
nan

>  <PDB_ID>  (142) 
nan

>  <Standardized_SMILES>  (142) 
N#Cc1cnc2c(Cl)cc(NCC(=O)Nc3cccnc3)cc2c1Nc1ccc(F)c(Cl)c1

>  <Name>  (142) 
nan

>  <Pocket>  (142) 
nan

>  <ATP_Site>  (142) 
nan

>  <Peripheral>  (142) 
nan

>  <Num_H_Atoms_ProtBoundConf>  (142) 
nan

>  <Num_Resolved_Atoms>  (142) 
nan

>  <Num_Not_Resolved_Atoms>  (142) 
nan

$$$$
CHEMBL229968
     RDKit          3D

  0  0  0  0  0  0  0  0  0  0999 V3000
M  V30 BEGIN CTAB
M  V30 COUNTS 49 52 0 0 0
M  V30 BEGIN ATOM
M  V30 1 C 3.104644 5.700914 0.653526 0
M  V30 2 C 3.423799 4.413364 -0.001291 0
M  V30 3 N 4.569052 4.092485 -0.598239 0
M  V30 4 N 4.522529 2.857675 -1.082752 0
M  V30 5 C 3.301714 2.328252 -0.801757 0
M  V30 6 C 2.683198 1.110265 -1.046455 0
M  V30 7 C 1.383305 0.867843 -0.616046 0
M  V30 8 C 0.664443 1.848016 0.076122 0
M  V30 9 C -0.698645 1.643699 0.547972 0
M  V30 10 C -1.284947 2.195022 1.664726 0
M  V30 11 N -2.580301 1.910024 1.982173 0
M  V30 12 C -3.288387 1.062529 1.166787 0
M  V30 13 C -2.743785 0.466307 0.009668 0
M  V30 14 O -3.765189 -0.267249 -0.469812 0
M  V30 15 C -4.009938 -1.103556 -1.504019 0
M  V30 16 C -3.280802 -2.382520 -1.644996 0 CFG=1
M  V30 17 N -3.799211 -3.020036 -2.872675 0
M  V30 18 C -1.804972 -2.377136 -1.614183 0
M  V30 19 C -1.245269 -3.772300 -1.779256 0
M  V30 20 C -1.008605 -4.575613 -0.658031 0
M  V30 21 C -0.495626 -5.838669 -0.891681 0
M  V30 22 C -0.216672 -6.321701 -2.153646 0
M  V30 23 Cl 0.429942 -7.935359 -2.329909 0
M  V30 24 C -0.446340 -5.540685 -3.249342 0
M  V30 25 Cl -0.109633 -6.104318 -4.879537 0
M  V30 26 C -0.954564 -4.288134 -3.024975 0
M  V30 27 C -1.434857 0.799582 -0.247281 0
M  V30 28 C 1.313181 3.038562 0.297289 0
M  V30 29 C 2.601290 3.314654 -0.114525 0
M  V30 30 H 2.293188 5.615167 1.412278 0
M  V30 31 H 2.901710 6.489627 -0.107773 0
M  V30 32 H 4.041865 5.999074 1.201342 0
M  V30 33 H 5.280777 2.373898 -1.588576 0
M  V30 34 H 3.246054 0.350255 -1.585531 0
M  V30 35 H 0.895291 -0.084421 -0.805590 0
M  V30 36 H -0.623576 2.842563 2.220875 0
M  V30 37 H -4.276709 1.021309 1.660931 0
M  V30 38 H -5.124369 -1.366192 -1.459229 0
M  V30 39 H -3.956677 -0.592510 -2.526039 0
M  V30 40 H -3.649995 -3.056967 -0.808034 0
M  V30 41 H -3.523975 -2.497171 -3.724985 0
M  V30 42 H -3.438446 -3.996445 -2.917421 0
M  V30 43 H -1.311874 -1.747228 -2.350339 0
M  V30 44 H -1.438192 -2.041115 -0.601144 0
M  V30 45 H -1.224606 -4.205038 0.339678 0
M  V30 46 H -0.317783 -6.451634 0.003810 0
M  V30 47 H -1.143344 -3.651693 -3.895541 0
M  V30 48 H -1.129610 0.311417 -1.135354 0
M  V30 49 H 0.818423 3.848916 0.828818 0
M  V30 END ATOM
M  V30 BEGIN BOND
M  V30 1 1 1 2
M  V30 2 2 2 3
M  V30 3 1 3 4
M  V30 4 1 4 5
M  V30 5 2 5 6
M  V30 6 1 6 7
M  V30 7 2 7 8
M  V30 8 1 8 9
M  V30 9 2 9 10
M  V30 10 1 10 11
M  V30 11 2 11 12
M  V30 12 1 12 13
M  V30 13 1 13 14
M  V30 14 1 14 15
M  V30 15 1 15 16
M  V30 16 1 16 17
M  V30 17 1 16 18
M  V30 18 1 18 19
M  V30 19 2 19 20
M  V30 20 1 20 21
M  V30 21 2 21 22
M  V30 22 1 22 23
M  V30 23 1 22 24
M  V30 24 1 24 25
M  V30 25 2 24 26
M  V30 26 2 13 27
M  V30 27 1 8 28
M  V30 28 2 28 29
M  V30 29 1 29 2
M  V30 30 1 29 5
M  V30 31 1 27 9
M  V30 32 1 26 19
M  V30 33 1 1 30
M  V30 34 1 1 31
M  V30 35 1 1 32
M  V30 36 1 4 33
M  V30 37 1 6 34
M  V30 38 1 7 35
M  V30 39 1 10 36
M  V30 40 1 12 37
M  V30 41 1 15 38
M  V30 42 1 15 39
M  V30 43 1 16 40 CFG=1
M  V30 44 1 17 41
M  V30 45 1 17 42
M  V30 46 1 18 43
M  V30 47 1 18 44
M  V30 48 1 20 45
M  V30 49 1 21 46
M  V30 50 1 26 47
M  V30 51 1 27 48
M  V30 52 1 28 49
M  V30 END BOND
M  V30 END CTAB
M  END
>  <Dataset>  (143) 
ChEMBL_Kinases

>  <Ligand_Instance>  (143) 
nan

>  <PDB_ID>  (143) 
nan

>  <Standardized_SMILES>  (143) 
Cc1n[nH]c2ccc(-c3cncc(OC[C@@H](N)Cc4ccc(Cl)c(Cl)c4)c3)cc12

>  <Name>  (143) 
nan

>  <Pocket>  (143) 
nan

>  <ATP_Site>  (143) 
nan

>  <Peripheral>  (143) 
nan

>  <Num_H_Atoms_ProtBoundConf>  (143) 
nan

>  <Num_Resolved_Atoms>  (143) 
nan

>  <Num_Not_Resolved_Atoms>  (143) 
nan

$$$$
CHEMBL230006
     RDKit          3D

  0  0  0  0  0  0  0  0  0  0999 V3000
M  V30 BEGIN CTAB
M  V30 COUNTS 80 84 0 0 0
M  V30 BEGIN ATOM
M  V30 1 C -2.106799 2.108177 -4.828584 0
M  V30 2 C -2.427951 0.741621 -4.214592 0
M  V30 3 C -3.950096 0.773847 -3.956024 0
M  V30 4 C -2.213488 -0.361796 -5.180489 0 CFG=1
M  V30 5 O -2.003850 0.200273 -6.448204 0
M  V30 6 C -1.050896 -1.260414 -4.928551 0
M  V30 7 C -0.654470 -1.390387 -3.498838 0
M  V30 8 C -0.452099 -0.022158 -2.817319 0 CFG=2
M  V30 9 C 0.541273 0.639613 -3.697528 0
M  V30 10 C -0.098379 -0.232606 -1.406339 0 CFG=1
M  V30 11 C 1.370814 -0.413510 -1.126605 0
M  V30 12 O 2.320261 -0.556854 -1.972527 0
M  V30 13 C 1.755366 -0.426244 0.291218 0
M  V30 14 C 0.930859 -0.205004 1.307221 0
M  V30 15 C 1.312276 -0.215660 2.739703 0 CFG=2
M  V30 16 C 2.492282 -1.035545 3.099633 0
M  V30 17 C 2.279215 -2.497568 3.266033 0 CFG=1
M  V30 18 C 2.974080 -3.350938 2.212887 0
M  V30 19 C 2.858352 -2.990835 4.565701 0
M  V30 20 O 3.463864 -2.369016 5.480149 0
M  V30 21 O 2.727851 -4.339200 4.842897 0
M  V30 22 C 0.827920 -2.881593 3.266178 0
M  V30 23 C -0.075248 -1.929405 3.963084 0
M  V30 24 C 0.192578 -0.467670 3.677770 0 CFG=1
M  V30 25 C 0.694060 0.089145 5.029910 0
M  V30 26 C -1.059551 0.300852 3.341878 0
M  V30 27 C -1.037248 1.009795 2.020293 0
M  V30 28 C -0.508288 0.087571 0.959999 0 CFG=2
M  V30 29 C -1.390948 -1.079307 0.832669 0
M  V30 30 C -0.530727 0.799297 -0.418549 0 CFG=1
M  V30 31 C 0.492386 1.917212 -0.259071 0
M  V30 32 C -1.847946 1.431250 -0.616488 0
M  V30 33 C -1.912902 1.858349 -2.090826 0
M  V30 34 C -1.835191 0.579376 -2.865758 0 CFG=1
M  V30 35 H -1.424049 2.707375 -4.186839 0
M  V30 36 H -1.710340 2.009794 -5.872190 0
M  V30 37 H -3.002801 2.751432 -4.947348 0
M  V30 38 H -4.520880 0.447773 -4.827395 0
M  V30 39 H -4.293632 1.761910 -3.642537 0
M  V30 40 H -4.207130 0.078546 -3.117611 0
M  V30 41 H -3.120832 -1.016594 -5.341636 0
M  V30 42 H -1.571512 -0.465611 -7.027861 0
M  V30 43 H -0.155336 -0.980717 -5.553400 0
M  V30 44 H -1.270557 -2.294460 -5.274713 0
M  V30 45 H -1.344059 -2.012558 -2.910297 0
M  V30 46 H 0.329855 -1.943338 -3.489789 0
M  V30 47 H 0.009786 0.849198 -4.673333 0
M  V30 48 H 0.946921 1.593462 -3.391494 0
M  V30 49 H 1.323144 -0.105750 -4.030962 0
M  V30 50 H -0.500116 -1.222858 -1.107335 0
M  V30 51 H 2.787780 -0.629578 0.548789 0
M  V30 52 H 1.627409 0.857969 2.938489 0
M  V30 53 H 3.389544 -0.904085 2.471159 0
M  V30 54 H 2.823256 -0.639435 4.107729 0
M  V30 55 H 4.044078 -3.541375 2.484665 0
M  V30 56 H 2.975894 -2.925256 1.214105 0
M  V30 57 H 2.468542 -4.341704 2.146811 0
M  V30 58 H 3.056113 -4.808828 5.661915 0
M  V30 59 H 0.756749 -3.873699 3.803048 0
M  V30 60 H 0.566149 -3.131612 2.223330 0
M  V30 61 H -1.110921 -2.180130 3.690807 0
M  V30 62 H -0.008716 -2.183755 5.060598 0
M  V30 63 H 1.168833 -0.697678 5.634894 0
M  V30 64 H -0.160968 0.466865 5.641317 0
M  V30 65 H 1.399077 0.908984 4.910233 0
M  V30 66 H -1.225806 1.142298 4.099100 0
M  V30 67 H -1.956750 -0.332046 3.505861 0
M  V30 68 H -2.093272 1.247697 1.759455 0
M  V30 69 H -0.456338 1.947061 2.114775 0
M  V30 70 H -2.030447 -1.192329 1.730794 0
M  V30 71 H -0.920597 -2.068206 0.689863 0
M  V30 72 H -2.141920 -1.022524 0.003208 0
M  V30 73 H 0.009654 2.905741 -0.383452 0
M  V30 74 H 1.273804 1.875311 -1.037789 0
M  V30 75 H 1.000972 1.938844 0.699514 0
M  V30 76 H -1.873133 2.393736 -0.054550 0
M  V30 77 H -2.743054 0.852863 -0.434578 0
M  V30 78 H -0.982681 2.488403 -2.210426 0
M  V30 79 H -2.823995 2.406992 -2.334517 0
M  V30 80 H -2.468989 -0.176423 -2.311001 0
M  V30 END ATOM
M  V30 BEGIN BOND
M  V30 1 1 1 2
M  V30 2 1 2 3
M  V30 3 1 2 4
M  V30 4 1 4 5
M  V30 5 1 4 6
M  V30 6 1 6 7
M  V30 7 1 7 8
M  V30 8 1 8 9 CFG=3
M  V30 9 1 8 10
M  V30 10 1 10 11
M  V30 11 2 11 12
M  V30 12 1 11 13
M  V30 13 2 13 14
M  V30 14 1 14 15
M  V30 15 1 15 16
M  V30 16 1 16 17
M  V30 17 1 17 18 CFG=3
M  V30 18 1 17 19
M  V30 19 2 19 20
M  V30 20 1 19 21
M  V30 21 1 17 22
M  V30 22 1 22 23
M  V30 23 1 23 24
M  V30 24 1 24 25 CFG=1
M  V30 25 1 24 26
M  V30 26 1 26 27
M  V30 27 1 27 28
M  V30 28 1 28 29 CFG=3
M  V30 29 1 28 30
M  V30 30 1 30 31 CFG=1
M  V30 31 1 30 32
M  V30 32 1 32 33
M  V30 33 1 33 34
M  V30 34 1 34 2
M  V30 35 1 34 8
M  V30 36 1 30 10
M  V30 37 1 28 14
M  V30 38 1 24 15
M  V30 39 1 1 35
M  V30 40 1 1 36
M  V30 41 1 1 37
M  V30 42 1 3 38
M  V30 43 1 3 39
M  V30 44 1 3 40
M  V30 45 1 4 41 CFG=3
M  V30 46 1 5 42
M  V30 47 1 6 43
M  V30 48 1 6 44
M  V30 49 1 7 45
M  V30 50 1 7 46
M  V30 51 1 9 47
M  V30 52 1 9 48
M  V30 53 1 9 49
M  V30 54 1 10 50 CFG=1
M  V30 55 1 13 51
M  V30 56 1 15 52 CFG=1
M  V30 57 1 16 53
M  V30 58 1 16 54
M  V30 59 1 18 55
M  V30 60 1 18 56
M  V30 61 1 18 57
M  V30 62 1 21 58
M  V30 63 1 22 59
M  V30 64 1 22 60
M  V30 65 1 23 61
M  V30 66 1 23 62
M  V30 67 1 25 63
M  V30 68 1 25 64
M  V30 69 1 25 65
M  V30 70 1 26 66
M  V30 71 1 26 67
M  V30 72 1 27 68
M  V30 73 1 27 69
M  V30 74 1 29 70
M  V30 75 1 29 71
M  V30 76 1 29 72
M  V30 77 1 31 73
M  V30 78 1 31 74
M  V30 79 1 31 75
M  V30 80 1 32 76
M  V30 81 1 32 77
M  V30 82 1 33 78
M  V30 83 1 33 79
M  V30 84 1 34 80 CFG=1
M  V30 END BOND
M  V30 END CTAB
M  END
>  <Dataset>  (144) 
ChEMBL_Kinases

>  <Ligand_Instance>  (144) 
nan

>  <PDB_ID>  (144) 
nan

>  <Standardized_SMILES>  (144) 
CC1(C)[C@@H](O)CC[C@]2(C)[C@H]3C(=O)C=C4[C@@H]5C[C@@](C)(C(=O)O)CC[C@]5(C)CC[C@@]4(C)[C@]3(C)CC[C@@H]12

>  <Name>  (144) 
ENOXOLONE

>  <Pocket>  (144) 
nan

>  <ATP_Site>  (144) 
nan

>  <Peripheral>  (144) 
nan

>  <Num_H_Atoms_ProtBoundConf>  (144) 
nan

>  <Num_Resolved_Atoms>  (144) 
nan

>  <Num_Not_Resolved_Atoms>  (144) 
nan

$$$$
CHEMBL230116
     RDKit          3D

  0  0  0  0  0  0  0  0  0  0999 V3000
M  V30 BEGIN CTAB
M  V30 COUNTS 43 45 0 0 0
M  V30 BEGIN ATOM
M  V30 1 N 2.134630 -4.615690 4.026686 0
M  V30 2 C 2.426640 -3.824657 3.236228 0
M  V30 3 C 2.800705 -2.843107 2.246579 0
M  V30 4 C 4.067121 -2.827783 1.706798 0
M  V30 5 N 4.399144 -1.897658 0.778325 0
M  V30 6 C 3.505698 -0.978933 0.369268 0
M  V30 7 C 3.839700 -0.031590 -0.574721 0
M  V30 8 Br 5.589830 0.022781 -1.349238 0
M  V30 9 C 2.954318 0.923485 -1.017833 0
M  V30 10 C 1.652615 0.959197 -0.506454 0
M  V30 11 N 0.721551 1.924572 -0.960203 0
M  V30 12 C -0.644658 2.180152 -0.560062 0
M  V30 13 C -0.686791 2.729983 0.846563 0
M  V30 14 O 0.051307 3.924850 0.824340 0
M  V30 15 C -2.107953 2.993718 1.299849 0
M  V30 16 O -2.763227 3.874164 0.463391 0
M  V30 17 C 1.365793 -0.004950 0.431652 0
M  V30 18 C 2.241432 -0.968713 0.886450 0
M  V30 19 C 1.891218 -1.910488 1.832391 0
M  V30 20 N 0.569878 -1.886638 2.361697 0
M  V30 21 C -0.422101 -2.649136 1.696524 0
M  V30 22 C -0.171430 -3.402539 0.576470 0
M  V30 23 C -1.099916 -4.160937 -0.107025 0
M  V30 24 C -2.407125 -4.173298 0.367651 0
M  V30 25 F -3.373734 -4.885925 -0.239192 0
M  V30 26 C -2.716219 -3.435618 1.488264 0
M  V30 27 Cl -4.371064 -3.458775 2.078927 0
M  V30 28 C -1.734293 -2.700199 2.120380 0
M  V30 29 H 4.753978 -3.594431 2.072558 0
M  V30 30 H 3.223154 1.660648 -1.756117 0
M  V30 31 H 1.062409 2.575943 -1.715308 0
M  V30 32 H -1.111792 1.148072 -0.471967 0
M  V30 33 H -1.189437 2.795914 -1.272014 0
M  V30 34 H -0.208107 2.078507 1.588046 0
M  V30 35 H 0.991484 3.756416 1.102436 0
M  V30 36 H -2.657642 2.037275 1.400946 0
M  V30 37 H -2.021649 3.433471 2.322394 0
M  V30 38 H -3.214113 4.549786 1.007809 0
M  V30 39 H 0.385136 -0.069440 0.880621 0
M  V30 40 H 0.275658 -1.349437 3.203753 0
M  V30 41 H 0.855469 -3.409116 0.181407 0
M  V30 42 H -0.851109 -4.737372 -0.985431 0
M  V30 43 H -2.031541 -2.131884 3.005951 0
M  V30 END ATOM
M  V30 BEGIN BOND
M  V30 1 3 1 2
M  V30 2 1 2 3
M  V30 3 2 3 4
M  V30 4 1 4 5
M  V30 5 2 5 6
M  V30 6 1 6 7
M  V30 7 1 7 8
M  V30 8 2 7 9
M  V30 9 1 9 10
M  V30 10 1 10 11
M  V30 11 1 11 12
M  V30 12 1 12 13
M  V30 13 1 13 14
M  V30 14 1 13 15
M  V30 15 1 15 16
M  V30 16 2 10 17
M  V30 17 1 17 18
M  V30 18 2 18 19
M  V30 19 1 19 20
M  V30 20 1 20 21
M  V30 21 2 21 22
M  V30 22 1 22 23
M  V30 23 2 23 24
M  V30 24 1 24 25
M  V30 25 1 24 26
M  V30 26 1 26 27
M  V30 27 2 26 28
M  V30 28 1 19 3
M  V30 29 1 28 21
M  V30 30 1 18 6
M  V30 31 1 4 29
M  V30 32 1 9 30
M  V30 33 1 11 31
M  V30 34 1 12 32
M  V30 35 1 12 33
M  V30 36 1 13 34
M  V30 37 1 14 35
M  V30 38 1 15 36
M  V30 39 1 15 37
M  V30 40 1 16 38
M  V30 41 1 17 39
M  V30 42 1 20 40
M  V30 43 1 22 41
M  V30 44 1 23 42
M  V30 45 1 28 43
M  V30 END BOND
M  V30 END CTAB
M  END
>  <Dataset>  (145) 
ChEMBL_Kinases

>  <Ligand_Instance>  (145) 
nan

>  <PDB_ID>  (145) 
nan

>  <Standardized_SMILES>  (145) 
N#Cc1cnc2c(Br)cc(NCC(O)CO)cc2c1Nc1ccc(F)c(Cl)c1

>  <Name>  (145) 
nan

>  <Pocket>  (145) 
nan

>  <ATP_Site>  (145) 
nan

>  <Peripheral>  (145) 
nan

>  <Num_H_Atoms_ProtBoundConf>  (145) 
nan

>  <Num_Resolved_Atoms>  (145) 
nan

>  <Num_Not_Resolved_Atoms>  (145) 
nan

$$$$
CHEMBL230117
     RDKit          3D

  0  0  0  0  0  0  0  0  0  0999 V3000
M  V30 BEGIN CTAB
M  V30 COUNTS 40 43 0 0 0
M  V30 BEGIN ATOM
M  V30 1 N 1.750831 -3.949261 4.108409 0
M  V30 2 C 1.980444 -3.393756 3.117034 0
M  V30 3 C 2.258466 -2.683452 1.894803 0
M  V30 4 C 3.342376 -3.086055 1.110449 0
M  V30 5 N 3.592126 -2.403703 -0.043084 0
M  V30 6 C 2.829880 -1.368090 -0.435895 0
M  V30 7 C 3.099151 -0.691965 -1.604794 0
M  V30 8 Cl 4.447689 -1.146976 -2.638522 0
M  V30 9 C 2.337871 0.371235 -2.033103 0
M  V30 10 C 1.240589 0.816947 -1.286671 0
M  V30 11 N 0.443982 1.904813 -1.721420 0
M  V30 12 C -0.700886 2.507651 -1.071851 0
M  V30 13 C -0.369095 3.159788 0.218866 0
M  V30 14 N 0.016351 4.469707 0.165470 0
M  V30 15 N 0.265567 4.882987 1.395593 0
M  V30 16 N 0.059335 3.897946 2.252884 0
M  V30 17 N -0.318023 2.881124 1.530613 0
M  V30 18 C 1.016807 0.106662 -0.129505 0
M  V30 19 C 1.756556 -0.957361 0.325671 0
M  V30 20 C 1.469045 -1.621187 1.500871 0
M  V30 21 N 0.362995 -1.209524 2.300256 0
M  V30 22 C -0.926551 -1.801453 2.059097 0
M  V30 23 C -2.019117 -1.425070 2.814866 0
M  V30 24 C -3.222417 -2.032743 2.529397 0
M  V30 25 C -3.373473 -2.978823 1.542389 0
M  V30 26 F -4.558741 -3.565497 1.274214 0
M  V30 27 C -2.283824 -3.374037 0.766945 0
M  V30 28 Cl -2.362767 -4.553966 -0.498475 0
M  V30 29 C -1.087549 -2.751465 1.070918 0
M  V30 30 H 3.964274 -3.930404 1.430220 0
M  V30 31 H 2.570658 0.898700 -2.972055 0
M  V30 32 H 0.721619 2.332221 -2.638508 0
M  V30 33 H -1.399921 1.640036 -0.873954 0
M  V30 34 H -1.222652 3.190023 -1.738320 0
M  V30 35 H 0.086400 3.642355 3.262520 0
M  V30 36 H 0.192385 0.367747 0.511831 0
M  V30 37 H 0.471842 -0.505741 3.036199 0
M  V30 38 H -1.910047 -0.689479 3.584907 0
M  V30 39 H -4.115639 -1.775631 3.091937 0
M  V30 40 H -0.203056 -3.022749 0.495630 0
M  V30 END ATOM
M  V30 BEGIN BOND
M  V30 1 3 1 2
M  V30 2 1 2 3
M  V30 3 2 3 4
M  V30 4 1 4 5
M  V30 5 2 5 6
M  V30 6 1 6 7
M  V30 7 1 7 8
M  V30 8 2 7 9
M  V30 9 1 9 10
M  V30 10 1 10 11
M  V30 11 1 11 12
M  V30 12 1 12 13
M  V30 13 1 13 14
M  V30 14 2 14 15
M  V30 15 1 15 16
M  V30 16 1 16 17
M  V30 17 2 10 18
M  V30 18 1 18 19
M  V30 19 2 19 20
M  V30 20 1 20 21
M  V30 21 1 21 22
M  V30 22 2 22 23
M  V30 23 1 23 24
M  V30 24 2 24 25
M  V30 25 1 25 26
M  V30 26 1 25 27
M  V30 27 1 27 28
M  V30 28 2 27 29
M  V30 29 1 20 3
M  V30 30 1 29 22
M  V30 31 1 19 6
M  V30 32 2 17 13
M  V30 33 1 4 30
M  V30 34 1 9 31
M  V30 35 1 11 32
M  V30 36 1 12 33
M  V30 37 1 12 34
M  V30 38 1 16 35
M  V30 39 1 18 36
M  V30 40 1 21 37
M  V30 41 1 23 38
M  V30 42 1 24 39
M  V30 43 1 29 40
M  V30 END BOND
M  V30 END CTAB
M  END
>  <Dataset>  (146) 
ChEMBL_Kinases

>  <Ligand_Instance>  (146) 
nan

>  <PDB_ID>  (146) 
nan

>  <Standardized_SMILES>  (146) 
N#Cc1cnc2c(Cl)cc(NCc3nn[nH]n3)cc2c1Nc1ccc(F)c(Cl)c1

>  <Name>  (146) 
nan

>  <Pocket>  (146) 
nan

>  <ATP_Site>  (146) 
nan

>  <Peripheral>  (146) 
nan

>  <Num_H_Atoms_ProtBoundConf>  (146) 
nan

>  <Num_Resolved_Atoms>  (146) 
nan

>  <Num_Not_Resolved_Atoms>  (146) 
nan

$$$$
CHEMBL230135
     RDKit          3D

  0  0  0  0  0  0  0  0  0  0999 V3000
M  V30 BEGIN CTAB
M  V30 COUNTS 33 36 0 0 0
M  V30 BEGIN ATOM
M  V30 1 N -0.228645 -5.383482 3.910330 0
M  V30 2 C 0.192287 -4.357928 3.555536 0
M  V30 3 C 0.693148 -3.083963 3.121632 0
M  V30 4 C 1.927492 -2.493439 3.345355 0
M  V30 5 N 1.918113 -1.296777 2.731841 0
M  V30 6 N 0.749856 -1.174279 2.173637 0
M  V30 7 C 0.343581 -0.110835 1.462600 0
M  V30 8 N 1.004448 1.101428 1.119654 0
M  V30 9 C 1.692145 1.185764 -0.131776 0
M  V30 10 C 1.732854 0.086536 -0.960195 0
M  V30 11 C 2.410999 0.237607 -2.173561 0
M  V30 12 C 3.017716 1.441968 -2.530335 0
M  V30 13 C 2.969850 2.525899 -1.698251 0
M  V30 14 C 2.301854 2.387169 -0.495857 0
M  V30 15 N -0.906861 -0.085973 0.921280 0
M  V30 16 C -1.766680 -1.136489 1.090213 0
M  V30 17 N -3.084157 -1.157270 0.543261 0
M  V30 18 C -3.474765 -1.931848 -0.485288 0
M  V30 19 C -4.803382 -1.650696 -0.696004 0
M  V30 20 N -5.192634 -0.711838 0.208278 0
M  V30 21 C -4.120290 -0.415428 0.968254 0
M  V30 22 N -1.326503 -2.184983 1.808088 0
M  V30 23 C -0.083618 -2.221085 2.352201 0
M  V30 24 H 2.690415 -2.973625 3.912861 0
M  V30 25 H 0.993016 1.920425 1.767769 0
M  V30 26 H 1.273547 -0.857451 -0.710095 0
M  V30 27 H 2.481071 -0.591221 -2.875636 0
M  V30 28 H 3.543235 1.561480 -3.468657 0
M  V30 29 H 3.396729 3.496043 -1.866702 0
M  V30 30 H 2.229610 3.221988 0.213041 0
M  V30 31 H -2.946473 -2.645571 -1.079808 0
M  V30 32 H -5.569000 -1.988935 -1.380420 0
M  V30 33 H -4.117979 0.304737 1.781860 0
M  V30 END ATOM
M  V30 BEGIN BOND
M  V30 1 3 1 2
M  V30 2 1 2 3
M  V30 3 1 3 4
M  V30 4 2 4 5
M  V30 5 1 5 6
M  V30 6 1 6 7
M  V30 7 1 7 8
M  V30 8 1 8 9
M  V30 9 2 9 10
M  V30 10 1 10 11
M  V30 11 2 11 12
M  V30 12 1 12 13
M  V30 13 2 13 14
M  V30 14 2 7 15
M  V30 15 1 15 16
M  V30 16 1 16 17
M  V30 17 1 17 18
M  V30 18 2 18 19
M  V30 19 1 19 20
M  V30 20 2 20 21
M  V30 21 2 16 22
M  V30 22 1 22 23
M  V30 23 2 23 3
M  V30 24 1 23 6
M  V30 25 1 14 9
M  V30 26 1 21 17
M  V30 27 1 4 24
M  V30 28 1 8 25
M  V30 29 1 10 26
M  V30 30 1 11 27
M  V30 31 1 12 28
M  V30 32 1 13 29
M  V30 33 1 14 30
M  V30 34 1 18 31
M  V30 35 1 19 32
M  V30 36 1 21 33
M  V30 END BOND
M  V30 END CTAB
M  END
>  <Dataset>  (147) 
ChEMBL_Kinases

>  <Ligand_Instance>  (147) 
nan

>  <PDB_ID>  (147) 
nan

>  <Standardized_SMILES>  (147) 
N#Cc1cnn2c(Nc3ccccc3)nc(-n3ccnc3)nc12

>  <Name>  (147) 
nan

>  <Pocket>  (147) 
nan

>  <ATP_Site>  (147) 
nan

>  <Peripheral>  (147) 
nan

>  <Num_H_Atoms_ProtBoundConf>  (147) 
nan

>  <Num_Resolved_Atoms>  (147) 
nan

>  <Num_Not_Resolved_Atoms>  (147) 
nan

$$$$
CHEMBL230136
     RDKit          3D

  0  0  0  0  0  0  0  0  0  0999 V3000
M  V30 BEGIN CTAB
M  V30 COUNTS 45 49 0 0 0
M  V30 BEGIN ATOM
M  V30 1 N 4.120713 -5.039100 2.023403 0
M  V30 2 C 4.085911 -3.906010 1.771531 0
M  V30 3 C 4.065746 -2.488511 1.462566 0
M  V30 4 C 5.079486 -1.585213 1.533830 0
M  V30 5 N 4.554566 -0.432056 1.149550 0
M  V30 6 N 3.255772 -0.548106 0.835094 0
M  V30 7 C 2.377137 0.377426 0.407173 0
M  V30 8 N 2.771484 1.725370 0.220959 0
M  V30 9 C 1.984831 2.820325 -0.217226 0
M  V30 10 C 0.651188 2.774334 -0.547022 0
M  V30 11 C -0.099231 3.844315 -0.971130 0
M  V30 12 C 0.530065 5.066900 -1.076923 0
M  V30 13 C 1.853300 5.170231 -0.762244 0
M  V30 14 C 2.559530 4.067026 -0.342162 0
M  V30 15 N 1.151555 -0.122526 0.194084 0
M  V30 16 C 0.759579 -1.378567 0.360852 0
M  V30 17 N -0.563462 -1.831975 0.111956 0
M  V30 18 C -1.657622 -1.006526 -0.356026 0
M  V30 19 C -2.640777 -0.752830 0.785134 0
M  V30 20 C -2.720289 -2.037964 1.548461 0
M  V30 21 C -3.702301 -2.013232 2.543078 0
M  V30 22 C -3.936032 -3.095712 3.357178 0
M  V30 23 C -3.193409 -4.241231 3.202780 0
M  V30 24 C -2.228077 -4.258455 2.221301 0
M  V30 25 C -1.971998 -3.189911 1.391675 0
M  V30 26 C -0.914584 -3.221834 0.323477 0
M  V30 27 N 1.680136 -2.252733 0.788745 0
M  V30 28 C 2.935158 -1.833737 1.026850 0
M  V30 29 H 6.096449 -1.793974 1.844229 0
M  V30 30 H 3.782953 1.936924 0.437859 0
M  V30 31 H 0.123724 1.852358 -0.480476 0
M  V30 32 H -1.148638 3.749400 -1.217908 0
M  V30 33 H -0.037075 5.925745 -1.408352 0
M  V30 34 H 2.339722 6.138915 -0.849148 0
M  V30 35 H 3.607158 4.236900 -0.112191 0
M  V30 36 H -2.186673 -1.514586 -1.208667 0
M  V30 37 H -1.342701 -0.022905 -0.746639 0
M  V30 38 H -2.277918 0.072636 1.395308 0
M  V30 39 H -3.611883 -0.547482 0.266156 0
M  V30 40 H -4.351356 -1.171071 2.762392 0
M  V30 41 H -4.678471 -3.124024 4.134152 0
M  V30 42 H -3.300346 -5.132829 3.785654 0
M  V30 43 H -1.622469 -5.141607 2.068364 0
M  V30 44 H -0.022740 -3.783197 0.666454 0
M  V30 45 H -1.329276 -3.663907 -0.603986 0
M  V30 END ATOM
M  V30 BEGIN BOND
M  V30 1 3 1 2
M  V30 2 1 2 3
M  V30 3 1 3 4
M  V30 4 2 4 5
M  V30 5 1 5 6
M  V30 6 1 6 7
M  V30 7 1 7 8
M  V30 8 1 8 9
M  V30 9 2 9 10
M  V30 10 1 10 11
M  V30 11 2 11 12
M  V30 12 1 12 13
M  V30 13 2 13 14
M  V30 14 2 7 15
M  V30 15 1 15 16
M  V30 16 1 16 17
M  V30 17 1 17 18
M  V30 18 1 18 19
M  V30 19 1 19 20
M  V30 20 2 20 21
M  V30 21 1 21 22
M  V30 22 2 22 23
M  V30 23 1 23 24
M  V30 24 2 24 25
M  V30 25 1 25 26
M  V30 26 2 16 27
M  V30 27 1 27 28
M  V30 28 2 28 3
M  V30 29 1 28 6
M  V30 30 1 14 9
M  V30 31 1 26 17
M  V30 32 1 25 20
M  V30 33 1 4 29
M  V30 34 1 8 30
M  V30 35 1 10 31
M  V30 36 1 11 32
M  V30 37 1 12 33
M  V30 38 1 13 34
M  V30 39 1 14 35
M  V30 40 1 18 36
M  V30 41 1 18 37
M  V30 42 1 19 38
M  V30 43 1 19 39
M  V30 44 1 21 40
M  V30 45 1 22 41
M  V30 46 1 23 42
M  V30 47 1 24 43
M  V30 48 1 26 44
M  V30 49 1 26 45
M  V30 END BOND
M  V30 END CTAB
M  END
>  <Dataset>  (148) 
ChEMBL_Kinases

>  <Ligand_Instance>  (148) 
nan

>  <PDB_ID>  (148) 
nan

>  <Standardized_SMILES>  (148) 
N#Cc1cnn2c(Nc3ccccc3)nc(N3CCc4ccccc4C3)nc12

>  <Name>  (148) 
nan

>  <Pocket>  (148) 
nan

>  <ATP_Site>  (148) 
nan

>  <Peripheral>  (148) 
nan

>  <Num_H_Atoms_ProtBoundConf>  (148) 
nan

>  <Num_Resolved_Atoms>  (148) 
nan

>  <Num_Not_Resolved_Atoms>  (148) 
nan

$$$$
CHEMBL230137
     RDKit          3D

  0  0  0  0  0  0  0  0  0  0999 V3000
M  V30 BEGIN CTAB
M  V30 COUNTS 46 49 0 0 0
M  V30 BEGIN ATOM
M  V30 1 C -2.791895 -3.730208 4.461525 0
M  V30 2 C -1.818135 -2.564007 4.290346 0
M  V30 3 N -2.386071 -1.498274 3.528020 0
M  V30 4 C -1.446669 -0.405485 3.378492 0
M  V30 5 C -0.313832 -0.848614 2.504647 0
M  V30 6 N -0.685735 -1.404104 1.245509 0
M  V30 7 C -0.144177 -1.049248 -0.019876 0
M  V30 8 N 0.800405 -0.137889 -0.201814 0
M  V30 9 C 1.351391 0.242145 -1.358989 0
M  V30 10 N 2.348600 1.204905 -1.544580 0
M  V30 11 C 2.987630 1.981192 -0.548036 0
M  V30 12 C 2.754136 1.938845 0.797492 0
M  V30 13 C 3.387030 2.702155 1.743488 0
M  V30 14 C 4.347338 3.600771 1.340412 0
M  V30 15 C 4.634400 3.698232 0.007698 0
M  V30 16 C 3.967827 2.908368 -0.889005 0
M  V30 17 N 0.848737 -0.410993 -2.428257 0
M  V30 18 N 1.149401 -0.299916 -3.727353 0
M  V30 19 C 0.407195 -1.141171 -4.452299 0
M  V30 20 C -0.417192 -1.836392 -3.598908 0
M  V30 21 C -1.402101 -2.856725 -3.895300 0
M  V30 22 N -2.184930 -3.675285 -4.148728 0
M  V30 23 C -0.104770 -1.346244 -2.350612 0
M  V30 24 N -0.601934 -1.662960 -1.124867 0
M  V30 25 C -1.707095 -2.407342 1.354890 0
M  V30 26 C -2.826238 -1.868216 2.220340 0
M  V30 27 H -2.931011 -4.242441 3.494828 0
M  V30 28 H -2.292615 -4.446720 5.150998 0
M  V30 29 H -3.711263 -3.369546 4.934668 0
M  V30 30 H -1.633936 -2.203174 5.323418 0
M  V30 31 H -0.877318 -2.980839 3.925775 0
M  V30 32 H -1.034906 -0.209653 4.389029 0
M  V30 33 H -1.923318 0.515809 3.036377 0
M  V30 34 H 0.319918 -1.588031 3.039203 0
M  V30 35 H 0.340228 0.035375 2.359421 0
M  V30 36 H 2.679022 1.392276 -2.527880 0
M  V30 37 H 2.025792 1.268834 1.185732 0
M  V30 38 H 3.176414 2.639674 2.785130 0
M  V30 39 H 4.874236 4.224399 2.044030 0
M  V30 40 H 5.391407 4.407262 -0.305220 0
M  V30 41 H 4.259425 3.051222 -1.931671 0
M  V30 42 H 0.436325 -1.268035 -5.532354 0
M  V30 43 H -1.343557 -3.392635 1.680573 0
M  V30 44 H -2.184037 -2.596341 0.352185 0
M  V30 45 H -3.703577 -2.511865 2.181903 0
M  V30 46 H -3.132250 -0.905578 1.717523 0
M  V30 END ATOM
M  V30 BEGIN BOND
M  V30 1 1 1 2
M  V30 2 1 2 3
M  V30 3 1 3 4
M  V30 4 1 4 5
M  V30 5 1 5 6
M  V30 6 1 6 7
M  V30 7 1 7 8
M  V30 8 2 8 9
M  V30 9 1 9 10
M  V30 10 1 10 11
M  V30 11 2 11 12
M  V30 12 1 12 13
M  V30 13 2 13 14
M  V30 14 1 14 15
M  V30 15 2 15 16
M  V30 16 1 9 17
M  V30 17 1 17 18
M  V30 18 2 18 19
M  V30 19 1 19 20
M  V30 20 1 20 21
M  V30 21 3 21 22
M  V30 22 2 20 23
M  V30 23 1 23 24
M  V30 24 1 6 25
M  V30 25 1 25 26
M  V30 26 1 26 3
M  V30 27 2 24 7
M  V30 28 1 16 11
M  V30 29 1 23 17
M  V30 30 1 1 27
M  V30 31 1 1 28
M  V30 32 1 1 29
M  V30 33 1 2 30
M  V30 34 1 2 31
M  V30 35 1 4 32
M  V30 36 1 4 33
M  V30 37 1 5 34
M  V30 38 1 5 35
M  V30 39 1 10 36
M  V30 40 1 12 37
M  V30 41 1 13 38
M  V30 42 1 14 39
M  V30 43 1 15 40
M  V30 44 1 16 41
M  V30 45 1 19 42
M  V30 46 1 25 43
M  V30 47 1 25 44
M  V30 48 1 26 45
M  V30 49 1 26 46
M  V30 END BOND
M  V30 END CTAB
M  END
>  <Dataset>  (149) 
ChEMBL_Kinases

>  <Ligand_Instance>  (149) 
nan

>  <PDB_ID>  (149) 
nan

>  <Standardized_SMILES>  (149) 
CCN1CCN(c2nc(Nc3ccccc3)n3ncc(C#N)c3n2)CC1

>  <Name>  (149) 
nan

>  <Pocket>  (149) 
nan

>  <ATP_Site>  (149) 
nan

>  <Peripheral>  (149) 
nan

>  <Num_H_Atoms_ProtBoundConf>  (149) 
nan

>  <Num_Resolved_Atoms>  (149) 
nan

>  <Num_Not_Resolved_Atoms>  (149) 
nan

$$$$
CHEMBL230186
     RDKit          3D

  0  0  0  0  0  0  0  0  0  0999 V3000
M  V30 BEGIN CTAB
M  V30 COUNTS 42 45 0 0 0
M  V30 BEGIN ATOM
M  V30 1 C -0.343669 -5.973789 2.220249 0
M  V30 2 N 0.925449 -5.617833 2.773157 0
M  V30 3 C 1.416715 -4.328291 2.384941 0
M  V30 4 C 1.784259 -4.271860 0.914522 0
M  V30 5 N 2.257027 -2.951926 0.594370 0
M  V30 6 C 1.533748 -1.738362 0.500524 0
M  V30 7 N 2.235262 -0.569087 0.384197 0
M  V30 8 C 1.651233 0.616762 0.273614 0
M  V30 9 C 2.481761 1.708093 0.167731 0
M  V30 10 C 1.819768 2.937589 0.056573 0
M  V30 11 C 2.638201 4.047406 -0.049568 0
M  V30 12 C 2.113124 5.340492 -0.165850 0
M  V30 13 C 0.742757 5.357393 -0.160261 0
M  V30 14 C -0.162327 4.331419 -0.062008 0
M  V30 15 C 0.430025 3.069754 0.051346 0
M  V30 16 C -0.316701 1.900397 0.164339 0
M  V30 17 C 0.281598 0.670073 0.275980 0
M  V30 18 C -0.478181 -0.466835 0.388782 0
M  V30 19 C -1.837892 -0.657568 0.404377 0
M  V30 20 C -2.975076 0.286519 0.316692 0
M  V30 21 C -1.945487 -2.047606 0.531738 0
M  V30 22 N -0.713211 -2.571563 0.581771 0
M  V30 23 N 0.197876 -1.621758 0.496184 0
M  V30 24 H -0.276467 -6.967441 1.752778 0
M  V30 25 H -1.160916 -5.954649 3.001080 0
M  V30 26 H -0.703590 -5.265738 1.435953 0
M  V30 27 H 1.631325 -6.320962 2.523415 0
M  V30 28 H 2.373817 -4.183931 2.979803 0
M  V30 29 H 0.787381 -3.479980 2.674083 0
M  V30 30 H 2.544783 -5.052780 0.733179 0
M  V30 31 H 0.919530 -4.543573 0.273047 0
M  V30 32 H 3.296403 -2.904411 0.405473 0
M  V30 33 H 3.544244 1.649132 0.166648 0
M  V30 34 H 3.721129 3.940772 -0.044804 0
M  V30 35 H 2.700184 6.241291 -0.250864 0
M  V30 36 H 0.279099 6.354362 -0.249124 0
M  V30 37 H -1.232288 4.423822 -0.065134 0
M  V30 38 H -1.366303 2.093494 0.150852 0
M  V30 39 H -3.083582 0.954733 1.193194 0
M  V30 40 H -3.910216 -0.356681 0.389798 0
M  V30 41 H -3.081171 0.772735 -0.665749 0
M  V30 42 H -2.854727 -2.642162 0.584688 0
M  V30 END ATOM
M  V30 BEGIN BOND
M  V30 1 1 1 2
M  V30 2 1 2 3
M  V30 3 1 3 4
M  V30 4 1 4 5
M  V30 5 1 5 6
M  V30 6 2 6 7
M  V30 7 1 7 8
M  V30 8 2 8 9
M  V30 9 1 9 10
M  V30 10 2 10 11
M  V30 11 1 11 12
M  V30 12 2 12 13
M  V30 13 1 13 14
M  V30 14 2 14 15
M  V30 15 1 15 16
M  V30 16 2 16 17
M  V30 17 1 17 18
M  V30 18 2 18 19
M  V30 19 1 19 20
M  V30 20 1 19 21
M  V30 21 2 21 22
M  V30 22 1 22 23
M  V30 23 1 23 6
M  V30 24 1 17 8
M  V30 25 1 23 18
M  V30 26 1 15 10
M  V30 27 1 1 24
M  V30 28 1 1 25
M  V30 29 1 1 26
M  V30 30 1 2 27
M  V30 31 1 3 28
M  V30 32 1 3 29
M  V30 33 1 4 30
M  V30 34 1 4 31
M  V30 35 1 5 32
M  V30 36 1 9 33
M  V30 37 1 11 34
M  V30 38 1 12 35
M  V30 39 1 13 36
M  V30 40 1 14 37
M  V30 41 1 16 38
M  V30 42 1 20 39
M  V30 43 1 20 40
M  V30 44 1 20 41
M  V30 45 1 21 42
M  V30 END BOND
M  V30 END CTAB
M  END
>  <Dataset>  (150) 
ChEMBL_Kinases

>  <Ligand_Instance>  (150) 
nan

>  <PDB_ID>  (150) 
nan

>  <Standardized_SMILES>  (150) 
CNCCNc1nc2cc3ccccc3cc2c2c(C)cnn12

>  <Name>  (150) 
nan

>  <Pocket>  (150) 
nan

>  <ATP_Site>  (150) 
nan

>  <Peripheral>  (150) 
nan

>  <Num_H_Atoms_ProtBoundConf>  (150) 
nan

>  <Num_Resolved_Atoms>  (150) 
nan

>  <Num_Not_Resolved_Atoms>  (150) 
nan

$$$$
CHEMBL229918
     RDKit          3D

  0  0  0  0  0  0  0  0  0  0999 V3000
M  V30 BEGIN CTAB
M  V30 COUNTS 49 52 0 0 0
M  V30 BEGIN ATOM
M  V30 1 C 2.197762 -2.964379 4.143513 0
M  V30 2 C 3.524256 -2.733003 3.515682 0
M  V30 3 N 4.728427 -3.104595 4.025317 0
M  V30 4 N 5.698629 -2.725813 3.200820 0
M  V30 5 C 5.192492 -2.084988 2.102938 0
M  V30 6 C 5.714669 -1.503141 0.982138 0
M  V30 7 C 4.881244 -0.912228 0.031601 0
M  V30 8 C 3.513089 -0.910781 0.216291 0
M  V30 9 C 2.592447 -0.307110 -0.735252 0
M  V30 10 C 2.780258 -0.218852 -2.118430 0
M  V30 11 N 1.823699 0.359569 -2.866157 0
M  V30 12 C 0.684784 0.854949 -2.297803 0
M  V30 13 C 0.418428 0.805914 -0.913327 0
M  V30 14 O -0.789461 1.387184 -0.727416 0
M  V30 15 C -1.409159 1.507748 0.516740 0
M  V30 16 C -1.761502 0.210088 1.195335 0 CFG=1
M  V30 17 N -2.362826 0.608639 2.478150 0
M  V30 18 C -2.666050 -0.670573 0.423584 0
M  V30 19 C -3.996186 -0.238879 0.088077 0
M  V30 20 C -4.837160 0.788883 0.431942 0
M  V30 21 C -6.123678 1.005779 -0.010149 0
M  V30 22 C -6.596730 0.070813 -0.895794 0
M  V30 23 C -5.860392 -0.995219 -1.314912 0
M  V30 24 Cl -6.638025 -2.085185 -2.447896 0
M  V30 25 C -4.563193 -1.153488 -0.827535 0
M  V30 26 Cl -3.776724 -2.595059 -1.492943 0
M  V30 27 C 1.435142 0.205904 -0.217656 0
M  V30 28 C 3.002436 -1.513569 1.374197 0
M  V30 29 C 3.825385 -2.101316 2.321893 0
M  V30 30 H 2.181370 -4.007882 4.520235 0
M  V30 31 H 2.081437 -2.307920 5.031086 0
M  V30 32 H 1.411149 -2.822428 3.387508 0
M  V30 33 H 6.737652 -2.899315 3.369904 0
M  V30 34 H 6.806452 -1.519027 0.855229 0
M  V30 35 H 5.334031 -0.459562 -0.842220 0
M  V30 36 H 3.708765 -0.636351 -2.477319 0
M  V30 37 H 0.065323 1.272809 -3.107454 0
M  V30 38 H -2.333469 2.129654 0.417566 0
M  V30 39 H -0.722214 2.101480 1.206296 0
M  V30 40 H -0.833824 -0.297877 1.492720 0
M  V30 41 H -2.623906 -0.243598 3.027480 0
M  V30 42 H -1.553633 1.056438 3.013117 0
M  V30 43 H -2.740633 -1.638596 1.004624 0
M  V30 44 H -2.089739 -1.017847 -0.504374 0
M  V30 45 H -4.394677 1.465593 1.143030 0
M  V30 46 H -6.629980 1.860765 0.366464 0
M  V30 47 H -7.614357 0.232707 -1.249535 0
M  V30 48 H 1.246688 0.192467 0.815955 0
M  V30 49 H 1.924404 -1.556251 1.592337 0
M  V30 END ATOM
M  V30 BEGIN BOND
M  V30 1 1 1 2
M  V30 2 2 2 3
M  V30 3 1 3 4
M  V30 4 1 4 5
M  V30 5 2 5 6
M  V30 6 1 6 7
M  V30 7 2 7 8
M  V30 8 1 8 9
M  V30 9 2 9 10
M  V30 10 1 10 11
M  V30 11 2 11 12
M  V30 12 1 12 13
M  V30 13 1 13 14
M  V30 14 1 14 15
M  V30 15 1 15 16
M  V30 16 1 16 17
M  V30 17 1 16 18
M  V30 18 1 18 19
M  V30 19 2 19 20
M  V30 20 1 20 21
M  V30 21 2 21 22
M  V30 22 1 22 23
M  V30 23 1 23 24
M  V30 24 2 23 25
M  V30 25 1 25 26
M  V30 26 2 13 27
M  V30 27 1 8 28
M  V30 28 2 28 29
M  V30 29 1 29 2
M  V30 30 1 29 5
M  V30 31 1 27 9
M  V30 32 1 25 19
M  V30 33 1 1 30
M  V30 34 1 1 31
M  V30 35 1 1 32
M  V30 36 1 4 33
M  V30 37 1 6 34
M  V30 38 1 7 35
M  V30 39 1 10 36
M  V30 40 1 12 37
M  V30 41 1 15 38
M  V30 42 1 15 39
M  V30 43 1 16 40 CFG=1
M  V30 44 1 17 41
M  V30 45 1 17 42
M  V30 46 1 18 43
M  V30 47 1 18 44
M  V30 48 1 20 45
M  V30 49 1 21 46
M  V30 50 1 22 47
M  V30 51 1 27 48
M  V30 52 1 28 49
M  V30 END BOND
M  V30 END CTAB
M  END
>  <Dataset>  (151) 
ChEMBL_Kinases

>  <Ligand_Instance>  (151) 
nan

>  <PDB_ID>  (151) 
nan

>  <Standardized_SMILES>  (151) 
Cc1n[nH]c2ccc(-c3cncc(OC[C@@H](N)Cc4cccc(Cl)c4Cl)c3)cc12

>  <Name>  (151) 
nan

>  <Pocket>  (151) 
nan

>  <ATP_Site>  (151) 
nan

>  <Peripheral>  (151) 
nan

>  <Num_H_Atoms_ProtBoundConf>  (151) 
nan

>  <Num_Resolved_Atoms>  (151) 
nan

>  <Num_Not_Resolved_Atoms>  (151) 
nan

$$$$
CHEMBL2322679
     RDKit          3D

  0  0  0  0  0  0  0  0  0  0999 V3000
M  V30 BEGIN CTAB
M  V30 COUNTS 45 48 0 0 0
M  V30 BEGIN ATOM
M  V30 1 C 0.181734 -3.844998 1.099791 0
M  V30 2 C 0.474210 -2.401454 0.808724 0
M  V30 3 C 1.367412 -2.120125 -0.203391 0
M  V30 4 C 1.616013 -0.785666 -0.447589 0
M  V30 5 C 2.545446 -0.376985 -1.497135 0
M  V30 6 C 3.770557 -1.010311 -1.628680 0
M  V30 7 N 4.459173 -0.471442 -2.658230 0
M  V30 8 C 3.716274 0.505438 -3.211556 0
M  V30 9 N 3.847617 1.383276 -4.235658 0
M  V30 10 C 2.863570 2.256720 -4.519565 0
M  V30 11 C 1.680915 2.327297 -3.815082 0
M  V30 12 C 1.505455 1.451378 -2.763931 0
M  V30 13 C 2.536181 0.569416 -2.501700 0
M  V30 14 C 0.985684 0.184625 0.301563 0
M  V30 15 C 0.080198 -0.109927 1.327318 0
M  V30 16 N -0.563824 0.901894 2.090788 0
M  V30 17 C -1.501719 0.612519 3.157802 0
M  V30 18 C -0.790683 -0.178069 4.206495 0
M  V30 19 C -1.656153 -1.096974 5.014130 0
M  V30 20 C -2.554009 -1.911061 4.111222 0
M  V30 21 C -3.508950 -0.885432 3.486333 0
M  V30 22 C -2.691126 -0.071170 2.543345 0
M  V30 23 N -0.117321 -1.422328 1.513804 0
M  V30 24 H 0.819157 -4.141636 1.948995 0
M  V30 25 H -0.871471 -3.911268 1.431520 0
M  V30 26 H 0.397300 -4.480633 0.224274 0
M  V30 27 H 1.877438 -2.847572 -0.807828 0
M  V30 28 H 4.224496 -1.820171 -1.063193 0
M  V30 29 H 5.398994 -0.658943 -3.077730 0
M  V30 30 H 2.936181 2.972919 -5.332323 0
M  V30 31 H 0.884019 3.028176 -4.038126 0
M  V30 32 H 0.591605 1.480286 -2.192259 0
M  V30 33 H 1.167218 1.254223 0.126237 0
M  V30 34 H -0.313556 1.894606 1.829384 0
M  V30 35 H -1.861104 1.608517 3.551043 0
M  V30 36 H -0.331286 0.571568 4.912777 0
M  V30 37 H 0.048230 -0.730266 3.772463 0
M  V30 38 H -2.325193 -0.505749 5.674154 0
M  V30 39 H -0.945920 -1.748257 5.595912 0
M  V30 40 H -3.138531 -2.648674 4.719721 0
M  V30 41 H -2.024602 -2.430169 3.296106 0
M  V30 42 H -4.018692 -0.307923 4.276939 0
M  V30 43 H -4.213228 -1.485000 2.874010 0
M  V30 44 H -2.374086 -0.705364 1.715364 0
M  V30 45 H -3.344788 0.731705 2.103909 0
M  V30 END ATOM
M  V30 BEGIN BOND
M  V30 1 1 1 2
M  V30 2 2 2 3
M  V30 3 1 3 4
M  V30 4 1 4 5
M  V30 5 2 5 6
M  V30 6 1 6 7
M  V30 7 1 7 8
M  V30 8 2 8 9
M  V30 9 1 9 10
M  V30 10 2 10 11
M  V30 11 1 11 12
M  V30 12 2 12 13
M  V30 13 2 4 14
M  V30 14 1 14 15
M  V30 15 1 15 16
M  V30 16 1 16 17
M  V30 17 1 17 18
M  V30 18 1 18 19
M  V30 19 1 19 20
M  V30 20 1 20 21
M  V30 21 1 21 22
M  V30 22 2 15 23
M  V30 23 1 23 2
M  V30 24 1 13 5
M  V30 25 1 22 17
M  V30 26 1 13 8
M  V30 27 1 1 24
M  V30 28 1 1 25
M  V30 29 1 1 26
M  V30 30 1 3 27
M  V30 31 1 6 28
M  V30 32 1 7 29
M  V30 33 1 10 30
M  V30 34 1 11 31
M  V30 35 1 12 32
M  V30 36 1 14 33
M  V30 37 1 16 34
M  V30 38 1 17 35
M  V30 39 1 18 36
M  V30 40 1 18 37
M  V30 41 1 19 38
M  V30 42 1 19 39
M  V30 43 1 20 40
M  V30 44 1 20 41
M  V30 45 1 21 42
M  V30 46 1 21 43
M  V30 47 1 22 44
M  V30 48 1 22 45
M  V30 END BOND
M  V30 END CTAB
M  END
>  <Dataset>  (152) 
ChEMBL_Kinases

>  <Ligand_Instance>  (152) 
nan

>  <PDB_ID>  (152) 
nan

>  <Standardized_SMILES>  (152) 
Cc1cc(-c2c[nH]c3ncccc23)cc(NC2CCCCC2)n1

>  <Name>  (152) 
nan

>  <Pocket>  (152) 
nan

>  <ATP_Site>  (152) 
nan

>  <Peripheral>  (152) 
nan

>  <Num_H_Atoms_ProtBoundConf>  (152) 
nan

>  <Num_Resolved_Atoms>  (152) 
nan

>  <Num_Not_Resolved_Atoms>  (152) 
nan

$$$$
CHEMBL2322678
     RDKit          3D

  0  0  0  0  0  0  0  0  0  0999 V3000
M  V30 BEGIN CTAB
M  V30 COUNTS 42 45 0 0 0
M  V30 BEGIN ATOM
M  V30 1 C 1.538741 -3.177297 3.573637 0
M  V30 2 C 1.116121 -4.391542 4.093479 0
M  V30 3 N 0.350427 -5.227694 3.378388 0
M  V30 4 C -0.024467 -4.892110 2.123173 0
M  V30 5 N -0.774070 -5.507968 1.176810 0
M  V30 6 C -0.845855 -4.728128 0.067071 0
M  V30 7 C -0.124340 -3.560598 0.279697 0
M  V30 8 C 0.024534 -2.483886 -0.691817 0
M  V30 9 C 0.316461 -2.851243 -2.003409 0
M  V30 10 C 0.447844 -1.806751 -2.883342 0
M  V30 11 N 0.321040 -0.506113 -2.586676 0
M  V30 12 C 0.037141 -0.129608 -1.315600 0
M  V30 13 N -0.121921 1.239854 -0.893807 0
M  V30 14 C -0.416159 1.730002 0.432025 0
M  V30 15 C -0.503291 3.226165 0.383178 0
M  V30 16 C 0.831128 3.795252 0.034837 0
M  V30 17 C 1.753139 3.611138 1.230504 0
M  V30 18 C 1.226391 2.563028 2.154723 0
M  V30 19 C 0.653284 1.358355 1.418313 0
M  V30 20 C -0.103099 -1.140733 -0.401511 0
M  V30 21 C 0.374133 -3.686536 1.559568 0
M  V30 22 C 1.150275 -2.856045 2.305153 0
M  V30 23 H 2.161451 -2.489316 4.145521 0
M  V30 24 H 1.455354 -4.603166 5.117447 0
M  V30 25 H -1.190369 -6.450117 1.380358 0
M  V30 26 H -1.394646 -5.027619 -0.809713 0
M  V30 27 H 0.441219 -3.851877 -2.361969 0
M  V30 28 H 0.674572 -2.035948 -3.915564 0
M  V30 29 H 0.002351 1.918065 -1.701552 0
M  V30 30 H -1.401726 1.299535 0.721459 0
M  V30 31 H -1.299495 3.506848 -0.332800 0
M  V30 32 H -0.810084 3.621808 1.358645 0
M  V30 33 H 1.271970 3.206904 -0.789568 0
M  V30 34 H 0.764012 4.870229 -0.248722 0
M  V30 35 H 1.787605 4.564614 1.779627 0
M  V30 36 H 2.783928 3.378371 0.901812 0
M  V30 37 H 2.067373 2.153566 2.760428 0
M  V30 38 H 0.467308 2.943478 2.869620 0
M  V30 39 H 0.218599 0.712711 2.216152 0
M  V30 40 H 1.486986 0.815953 0.951862 0
M  V30 41 H -0.330170 -0.987153 0.642000 0
M  V30 42 H 1.481195 -1.916976 1.912277 0
M  V30 END ATOM
M  V30 BEGIN BOND
M  V30 1 2 1 2
M  V30 2 1 2 3
M  V30 3 2 3 4
M  V30 4 1 4 5
M  V30 5 1 5 6
M  V30 6 2 6 7
M  V30 7 1 7 8
M  V30 8 2 8 9
M  V30 9 1 9 10
M  V30 10 2 10 11
M  V30 11 1 11 12
M  V30 12 1 12 13
M  V30 13 1 13 14
M  V30 14 1 14 15
M  V30 15 1 15 16
M  V30 16 1 16 17
M  V30 17 1 17 18
M  V30 18 1 18 19
M  V30 19 2 12 20
M  V30 20 1 7 21
M  V30 21 2 21 22
M  V30 22 1 22 1
M  V30 23 1 21 4
M  V30 24 1 20 8
M  V30 25 1 19 14
M  V30 26 1 1 23
M  V30 27 1 2 24
M  V30 28 1 5 25
M  V30 29 1 6 26
M  V30 30 1 9 27
M  V30 31 1 10 28
M  V30 32 1 13 29
M  V30 33 1 14 30
M  V30 34 1 15 31
M  V30 35 1 15 32
M  V30 36 1 16 33
M  V30 37 1 16 34
M  V30 38 1 17 35
M  V30 39 1 17 36
M  V30 40 1 18 37
M  V30 41 1 18 38
M  V30 42 1 19 39
M  V30 43 1 19 40
M  V30 44 1 20 41
M  V30 45 1 22 42
M  V30 END BOND
M  V30 END CTAB
M  END
>  <Dataset>  (153) 
ChEMBL_Kinases

>  <Ligand_Instance>  (153) 
nan

>  <PDB_ID>  (153) 
nan

>  <Standardized_SMILES>  (153) 
c1cnc2[nH]cc(-c3ccnc(NC4CCCCC4)c3)c2c1

>  <Name>  (153) 
nan

>  <Pocket>  (153) 
nan

>  <ATP_Site>  (153) 
nan

>  <Peripheral>  (153) 
nan

>  <Num_H_Atoms_ProtBoundConf>  (153) 
nan

>  <Num_Resolved_Atoms>  (153) 
nan

>  <Num_Not_Resolved_Atoms>  (153) 
nan

$$$$
CHEMBL2322676
     RDKit          3D

  0  0  0  0  0  0  0  0  0  0999 V3000
M  V30 BEGIN CTAB
M  V30 COUNTS 47 50 0 0 0
M  V30 BEGIN ATOM
M  V30 1 N 2.967972 -2.671631 3.518371 0
M  V30 2 C 3.316705 -1.964587 2.353281 0
M  V30 3 O 4.565872 -1.869443 2.277292 0
M  V30 4 C 2.360726 -1.429480 1.389527 0
M  V30 5 C 2.862421 -0.760380 0.298318 0
M  V30 6 C 1.995430 -0.241224 -0.632746 0
M  V30 7 C 2.474363 0.477714 -1.809336 0
M  V30 8 C 3.513575 0.118695 -2.658109 0
M  V30 9 N 3.663539 1.035830 -3.641120 0
M  V30 10 C 2.744262 2.013988 -3.476967 0
M  V30 11 N 2.480001 3.135829 -4.176409 0
M  V30 12 C 1.482717 3.993586 -3.817712 0
M  V30 13 C 0.730986 3.668692 -2.684541 0
M  V30 14 C 1.009353 2.517975 -1.975304 0
M  V30 15 C 2.022544 1.661803 -2.353288 0
M  V30 16 C 0.657520 -0.453119 -0.366378 0
M  V30 17 C 0.162361 -1.120445 0.722296 0
M  V30 18 N -1.231425 -1.262533 0.867582 0
M  V30 19 C -1.761089 -1.965975 2.014667 0 CFG=1
M  V30 20 C -1.366874 -1.322507 3.321857 0
M  V30 21 C -2.266596 -1.938103 4.401696 0
M  V30 22 C -3.662378 -1.356326 4.318752 0 CFG=2
M  V30 23 O -4.611540 -2.210978 4.855489 0
M  V30 24 C -3.948842 -1.058771 2.841268 0
M  V30 25 C -3.246543 -2.112875 1.977396 0
M  V30 26 N 1.040360 -1.604459 1.595011 0
M  V30 27 H 2.986583 -3.713996 3.436922 0
M  V30 28 H 2.698084 -2.247690 4.437348 0
M  V30 29 H 3.946035 -0.643351 0.174377 0
M  V30 30 H 4.140932 -0.757810 -2.584540 0
M  V30 31 H 4.351312 1.050563 -4.426964 0
M  V30 32 H 1.270754 4.897808 -4.382642 0
M  V30 33 H -0.078154 4.314938 -2.349383 0
M  V30 34 H 0.410056 2.304503 -1.112333 0
M  V30 35 H -0.059587 -0.048866 -1.094270 0
M  V30 36 H -1.897031 -0.885084 0.188310 0
M  V30 37 H -1.244564 -2.967327 2.013319 0
M  V30 38 H -0.326122 -1.639460 3.588195 0
M  V30 39 H -1.451562 -0.228426 3.313451 0
M  V30 40 H -1.834208 -1.883094 5.401244 0
M  V30 41 H -2.342047 -3.017301 4.129887 0
M  V30 42 H -3.761794 -0.387423 4.850546 0
M  V30 43 H -4.391834 -3.162536 4.812028 0
M  V30 44 H -5.024263 -1.083649 2.658342 0
M  V30 45 H -3.567989 -0.046893 2.629888 0
M  V30 46 H -3.636431 -1.972208 0.938177 0
M  V30 47 H -3.553506 -3.108246 2.338798 0
M  V30 END ATOM
M  V30 BEGIN BOND
M  V30 1 1 1 2
M  V30 2 2 2 3
M  V30 3 1 2 4
M  V30 4 2 4 5
M  V30 5 1 5 6
M  V30 6 1 6 7
M  V30 7 2 7 8
M  V30 8 1 8 9
M  V30 9 1 9 10
M  V30 10 2 10 11
M  V30 11 1 11 12
M  V30 12 2 12 13
M  V30 13 1 13 14
M  V30 14 2 14 15
M  V30 15 2 6 16
M  V30 16 1 16 17
M  V30 17 1 17 18
M  V30 18 1 18 19
M  V30 19 1 19 20
M  V30 20 1 20 21
M  V30 21 1 21 22
M  V30 22 1 22 23
M  V30 23 1 22 24
M  V30 24 1 24 25
M  V30 25 2 17 26
M  V30 26 1 26 4
M  V30 27 1 15 7
M  V30 28 1 25 19
M  V30 29 1 15 10
M  V30 30 1 1 27
M  V30 31 1 1 28
M  V30 32 1 5 29
M  V30 33 1 8 30
M  V30 34 1 9 31
M  V30 35 1 12 32
M  V30 36 1 13 33
M  V30 37 1 14 34
M  V30 38 1 16 35
M  V30 39 1 18 36
M  V30 40 1 19 37 CFG=1
M  V30 41 1 20 38
M  V30 42 1 20 39
M  V30 43 1 21 40
M  V30 44 1 21 41
M  V30 45 1 22 42 CFG=1
M  V30 46 1 23 43
M  V30 47 1 24 44
M  V30 48 1 24 45
M  V30 49 1 25 46
M  V30 50 1 25 47
M  V30 END BOND
M  V30 END CTAB
M  END
>  <Dataset>  (154) 
ChEMBL_Kinases

>  <Ligand_Instance>  (154) 
nan

>  <PDB_ID>  (154) 
nan

>  <Standardized_SMILES>  (154) 
NC(=O)c1cc(-c2c[nH]c3ncccc23)cc(N[C@H]2CC[C@H](O)CC2)n1

>  <Name>  (154) 
nan

>  <Pocket>  (154) 
nan

>  <ATP_Site>  (154) 
nan

>  <Peripheral>  (154) 
nan

>  <Num_H_Atoms_ProtBoundConf>  (154) 
nan

>  <Num_Resolved_Atoms>  (154) 
nan

>  <Num_Not_Resolved_Atoms>  (154) 
nan

$$$$
CHEMBL2322675
     RDKit          3D

  0  0  0  0  0  0  0  0  0  0999 V3000
M  V30 BEGIN CTAB
M  V30 COUNTS 44 47 0 0 0
M  V30 BEGIN ATOM
M  V30 1 N 0.290285 -6.876746 -0.684157 0
M  V30 2 C 0.338913 -5.739848 -0.425752 0
M  V30 3 C 0.394401 -4.323131 -0.100638 0
M  V30 4 C 0.968072 -3.443878 -0.991814 0
M  V30 5 C 0.978805 -2.136220 -0.610189 0
M  V30 6 C 1.573161 -1.153394 -1.509503 0
M  V30 7 C 2.802946 -1.413409 -2.117642 0
M  V30 8 N 3.140537 -0.353612 -2.900770 0
M  V30 9 C 2.176974 0.583966 -2.824058 0
M  V30 10 N 1.968554 1.804786 -3.362328 0
M  V30 11 C 0.837497 2.492953 -3.047986 0
M  V30 12 C -0.160650 2.031257 -2.188028 0
M  V30 13 C 0.061760 0.776936 -1.640012 0
M  V30 14 C 1.208798 0.096589 -1.968313 0
M  V30 15 C 0.430632 -1.795519 0.605745 0
M  V30 16 C -0.143252 -2.670922 1.499426 0
M  V30 17 N -0.695822 -2.314950 2.755255 0
M  V30 18 C -0.747035 -1.011123 3.372439 0 CFG=1
M  V30 19 C 0.593524 -0.469278 3.741014 0
M  V30 20 C 0.463028 0.924180 4.304533 0
M  V30 21 C -0.021388 1.824169 3.223470 0 CFG=2
M  V30 22 O -0.453893 3.012981 3.855814 0
M  V30 23 C -1.021280 1.266745 2.285241 0
M  V30 24 C -1.604158 -0.056447 2.592931 0
M  V30 25 N -0.127813 -3.944797 1.074641 0
M  V30 26 H 1.382775 -3.761728 -1.930155 0
M  V30 27 H 3.504496 -2.231072 -2.099955 0
M  V30 28 H 3.965185 -0.159866 -3.509063 0
M  V30 29 H 0.673324 3.487494 -3.489887 0
M  V30 30 H -1.018644 2.635857 -1.994581 0
M  V30 31 H -0.684603 0.380563 -0.969671 0
M  V30 32 H 0.468571 -0.744177 0.834056 0
M  V30 33 H -1.118367 -3.140654 3.282382 0
M  V30 34 H -1.289339 -1.148691 4.357430 0
M  V30 35 H 1.365691 -0.506903 2.981115 0
M  V30 36 H 1.001481 -1.084960 4.601971 0
M  V30 37 H 1.469338 1.258800 4.634984 0
M  V30 38 H -0.259322 0.941712 5.148270 0
M  V30 39 H 0.896858 2.156595 2.654318 0
M  V30 40 H -1.248352 3.320489 3.320458 0
M  V30 41 H -0.636388 1.344683 1.224950 0
M  V30 42 H -1.884601 1.998989 2.275627 0
M  V30 43 H -1.795956 -0.551548 1.593745 0
M  V30 44 H -2.646860 0.022311 3.022275 0
M  V30 END ATOM
M  V30 BEGIN BOND
M  V30 1 3 1 2
M  V30 2 1 2 3
M  V30 3 2 3 4
M  V30 4 1 4 5
M  V30 5 1 5 6
M  V30 6 2 6 7
M  V30 7 1 7 8
M  V30 8 1 8 9
M  V30 9 2 9 10
M  V30 10 1 10 11
M  V30 11 2 11 12
M  V30 12 1 12 13
M  V30 13 2 13 14
M  V30 14 2 5 15
M  V30 15 1 15 16
M  V30 16 1 16 17
M  V30 17 1 17 18
M  V30 18 1 18 19
M  V30 19 1 19 20
M  V30 20 1 20 21
M  V30 21 1 21 22
M  V30 22 1 21 23
M  V30 23 1 23 24
M  V30 24 2 16 25
M  V30 25 1 25 3
M  V30 26 1 14 6
M  V30 27 1 24 18
M  V30 28 1 14 9
M  V30 29 1 4 26
M  V30 30 1 7 27
M  V30 31 1 8 28
M  V30 32 1 11 29
M  V30 33 1 12 30
M  V30 34 1 13 31
M  V30 35 1 15 32
M  V30 36 1 17 33
M  V30 37 1 18 34 CFG=1
M  V30 38 1 19 35
M  V30 39 1 19 36
M  V30 40 1 20 37
M  V30 41 1 20 38
M  V30 42 1 21 39 CFG=3
M  V30 43 1 22 40
M  V30 44 1 23 41
M  V30 45 1 23 42
M  V30 46 1 24 43
M  V30 47 1 24 44
M  V30 END BOND
M  V30 END CTAB
M  END
>  <Dataset>  (155) 
ChEMBL_Kinases

>  <Ligand_Instance>  (155) 
nan

>  <PDB_ID>  (155) 
nan

>  <Standardized_SMILES>  (155) 
N#Cc1cc(-c2c[nH]c3ncccc23)cc(N[C@H]2CC[C@H](O)CC2)n1

>  <Name>  (155) 
nan

>  <Pocket>  (155) 
nan

>  <ATP_Site>  (155) 
nan

>  <Peripheral>  (155) 
nan

>  <Num_H_Atoms_ProtBoundConf>  (155) 
nan

>  <Num_Resolved_Atoms>  (155) 
nan

>  <Num_Not_Resolved_Atoms>  (155) 
nan

$$$$
CHEMBL2322674
     RDKit          3D

  0  0  0  0  0  0  0  0  0  0999 V3000
M  V30 BEGIN CTAB
M  V30 COUNTS 40 43 0 0 0
M  V30 BEGIN ATOM
M  V30 1 N 0.128721 -4.109891 4.870091 0
M  V30 2 C 0.247516 -3.595986 3.816476 0
M  V30 3 C 0.371109 -2.980932 2.527352 0
M  V30 4 C 1.607664 -2.517771 2.093149 0
M  V30 5 C 1.691410 -1.931286 0.844801 0
M  V30 6 C 2.961806 -1.416943 0.346323 0
M  V30 7 C 4.253644 -1.869478 0.197814 0
M  V30 8 N 4.999711 -0.897033 -0.348984 0
M  V30 9 C 4.266875 0.215622 -0.583685 0
M  V30 10 N 4.588998 1.425012 -1.109042 0
M  V30 11 C 3.642558 2.389547 -1.231669 0
M  V30 12 C 2.353035 2.142640 -0.822521 0
M  V30 13 C 2.078507 0.898978 -0.297055 0
M  V30 14 C 2.992051 -0.119613 -0.146031 0
M  V30 15 C 0.495542 -1.859560 0.120829 0
M  V30 16 C -0.717630 -2.337450 0.599071 0
M  V30 17 N -1.724460 -2.105525 -0.402922 0
M  V30 18 C -1.973589 -0.711732 -0.596333 0
M  V30 19 C -2.502838 0.014990 0.572579 0
M  V30 20 C -1.799537 0.608667 1.581737 0
M  V30 21 C -2.362951 1.295669 2.632421 0
M  V30 22 C -3.736249 1.416383 2.708649 0
M  V30 23 C -4.511548 0.837711 1.717285 0
M  V30 24 C -3.887797 0.159986 0.686690 0
M  V30 25 N -0.769976 -2.903147 1.818663 0
M  V30 26 H 2.467749 -2.620204 2.714854 0
M  V30 27 H 4.478721 -2.875121 0.517889 0
M  V30 28 H 6.021177 -0.988424 -0.565036 0
M  V30 29 H 3.823196 3.387123 -1.645809 0
M  V30 30 H 1.591394 2.905110 -0.913243 0
M  V30 31 H 1.056357 0.760339 0.011351 0
M  V30 32 H 0.664231 -1.385223 -0.863438 0
M  V30 33 H -2.067130 -3.031322 -0.780569 0
M  V30 34 H -1.036811 -0.216144 -0.986639 0
M  V30 35 H -2.703228 -0.646904 -1.451806 0
M  V30 36 H -0.726973 0.526212 1.547127 0
M  V30 37 H -1.724795 1.741166 3.395739 0
M  V30 38 H -4.228033 1.947102 3.510095 0
M  V30 39 H -5.592797 0.885842 1.700739 0
M  V30 40 H -4.512151 -0.286853 -0.081115 0
M  V30 END ATOM
M  V30 BEGIN BOND
M  V30 1 3 1 2
M  V30 2 1 2 3
M  V30 3 2 3 4
M  V30 4 1 4 5
M  V30 5 1 5 6
M  V30 6 2 6 7
M  V30 7 1 7 8
M  V30 8 1 8 9
M  V30 9 2 9 10
M  V30 10 1 10 11
M  V30 11 2 11 12
M  V30 12 1 12 13
M  V30 13 2 13 14
M  V30 14 2 5 15
M  V30 15 1 15 16
M  V30 16 1 16 17
M  V30 17 1 17 18
M  V30 18 1 18 19
M  V30 19 2 19 20
M  V30 20 1 20 21
M  V30 21 2 21 22
M  V30 22 1 22 23
M  V30 23 2 23 24
M  V30 24 2 16 25
M  V30 25 1 25 3
M  V30 26 1 14 6
M  V30 27 1 24 19
M  V30 28 1 14 9
M  V30 29 1 4 26
M  V30 30 1 7 27
M  V30 31 1 8 28
M  V30 32 1 11 29
M  V30 33 1 12 30
M  V30 34 1 13 31
M  V30 35 1 15 32
M  V30 36 1 17 33
M  V30 37 1 18 34
M  V30 38 1 18 35
M  V30 39 1 20 36
M  V30 40 1 21 37
M  V30 41 1 22 38
M  V30 42 1 23 39
M  V30 43 1 24 40
M  V30 END BOND
M  V30 END CTAB
M  END
>  <Dataset>  (156) 
ChEMBL_Kinases

>  <Ligand_Instance>  (156) 
nan

>  <PDB_ID>  (156) 
nan

>  <Standardized_SMILES>  (156) 
N#Cc1cc(-c2c[nH]c3ncccc23)cc(NCc2ccccc2)n1

>  <Name>  (156) 
nan

>  <Pocket>  (156) 
nan

>  <ATP_Site>  (156) 
nan

>  <Peripheral>  (156) 
nan

>  <Num_H_Atoms_ProtBoundConf>  (156) 
nan

>  <Num_Resolved_Atoms>  (156) 
nan

>  <Num_Not_Resolved_Atoms>  (156) 
nan

$$$$
CHEMBL2322673
     RDKit          3D

  0  0  0  0  0  0  0  0  0  0999 V3000
M  V30 BEGIN CTAB
M  V30 COUNTS 43 46 0 0 0
M  V30 BEGIN ATOM
M  V30 1 N 2.280917 -3.726033 3.547687 0
M  V30 2 C 1.783035 -3.088218 2.710144 0
M  V30 3 C 1.177928 -2.297349 1.683776 0
M  V30 4 C 1.179451 -2.752694 0.382716 0
M  V30 5 C 0.568683 -1.911788 -0.530625 0
M  V30 6 C 0.536933 -2.335951 -1.923258 0
M  V30 7 C 0.219611 -3.586821 -2.424662 0
M  V30 8 N 0.302246 -3.592905 -3.784991 0
M  V30 9 C 0.673625 -2.350123 -4.191978 0
M  V30 10 N 0.895923 -1.823049 -5.409627 0
M  V30 11 C 1.263811 -0.540631 -5.581888 0
M  V30 12 C 1.427194 0.292857 -4.472459 0
M  V30 13 C 1.188549 -0.291133 -3.246866 0
M  V30 14 C 0.817036 -1.579396 -3.042426 0
M  V30 15 C 0.010257 -0.719926 -0.149258 0
M  V30 16 C 0.029805 -0.295881 1.176716 0
M  V30 17 N -0.542411 0.932635 1.588514 0
M  V30 18 C -0.525468 1.384640 2.980135 0
M  V30 19 C 0.875800 1.523421 3.471512 0
M  V30 20 C 1.107343 1.105692 4.894888 0
M  V30 21 C -0.132116 1.439880 5.688670 0
M  V30 22 C -1.192395 0.465052 5.239627 0
M  V30 23 C -1.388235 0.438152 3.766288 0
M  V30 24 N 0.626079 -1.124748 2.045605 0
M  V30 25 H 1.620294 -3.685953 0.103679 0
M  V30 26 H -0.049752 -4.400496 -1.735439 0
M  V30 27 H 0.102720 -4.442776 -4.384982 0
M  V30 28 H 1.444072 -0.115412 -6.578987 0
M  V30 29 H 1.720703 1.306557 -4.652309 0
M  V30 30 H 1.318024 0.362222 -2.399019 0
M  V30 31 H -0.468713 -0.055990 -0.852330 0
M  V30 32 H -0.994204 1.526460 0.832513 0
M  V30 33 H -1.010719 2.370545 3.021625 0
M  V30 34 H 1.205828 2.597970 3.369879 0
M  V30 35 H 1.536449 0.926567 2.837368 0
M  V30 36 H 2.011438 1.674444 5.262304 0
M  V30 37 H 1.381845 0.031668 4.994205 0
M  V30 38 H -0.387359 2.491358 5.518662 0
M  V30 39 H 0.071431 1.228763 6.750251 0
M  V30 40 H -2.111112 0.686332 5.821153 0
M  V30 41 H -0.836991 -0.545080 5.596812 0
M  V30 42 H -2.448332 0.721044 3.570757 0
M  V30 43 H -1.314256 -0.623290 3.394411 0
M  V30 END ATOM
M  V30 BEGIN BOND
M  V30 1 3 1 2
M  V30 2 1 2 3
M  V30 3 2 3 4
M  V30 4 1 4 5
M  V30 5 1 5 6
M  V30 6 2 6 7
M  V30 7 1 7 8
M  V30 8 1 8 9
M  V30 9 2 9 10
M  V30 10 1 10 11
M  V30 11 2 11 12
M  V30 12 1 12 13
M  V30 13 2 13 14
M  V30 14 2 5 15
M  V30 15 1 15 16
M  V30 16 1 16 17
M  V30 17 1 17 18
M  V30 18 1 18 19
M  V30 19 1 19 20
M  V30 20 1 20 21
M  V30 21 1 21 22
M  V30 22 1 22 23
M  V30 23 2 16 24
M  V30 24 1 24 3
M  V30 25 1 14 6
M  V30 26 1 23 18
M  V30 27 1 14 9
M  V30 28 1 4 25
M  V30 29 1 7 26
M  V30 30 1 8 27
M  V30 31 1 11 28
M  V30 32 1 12 29
M  V30 33 1 13 30
M  V30 34 1 15 31
M  V30 35 1 17 32
M  V30 36 1 18 33
M  V30 37 1 19 34
M  V30 38 1 19 35
M  V30 39 1 20 36
M  V30 40 1 20 37
M  V30 41 1 21 38
M  V30 42 1 21 39
M  V30 43 1 22 40
M  V30 44 1 22 41
M  V30 45 1 23 42
M  V30 46 1 23 43
M  V30 END BOND
M  V30 END CTAB
M  END
>  <Dataset>  (157) 
ChEMBL_Kinases

>  <Ligand_Instance>  (157) 
nan

>  <PDB_ID>  (157) 
nan

>  <Standardized_SMILES>  (157) 
N#Cc1cc(-c2c[nH]c3ncccc23)cc(NC2CCCCC2)n1

>  <Name>  (157) 
nan

>  <Pocket>  (157) 
nan

>  <ATP_Site>  (157) 
nan

>  <Peripheral>  (157) 
nan

>  <Num_H_Atoms_ProtBoundConf>  (157) 
nan

>  <Num_Resolved_Atoms>  (157) 
nan

>  <Num_Not_Resolved_Atoms>  (157) 
nan

$$$$
CHEMBL2322228
     RDKit          3D

  0  0  0  0  0  0  0  0  0  0999 V3000
M  V30 BEGIN CTAB
M  V30 COUNTS 43 47 0 0 0
M  V30 BEGIN ATOM
M  V30 1 O -1.841043 -4.190395 -2.743668 0
M  V30 2 C -1.156692 -3.374091 -2.116142 0
M  V30 3 C 0.079265 -2.891031 -2.567908 0
M  V30 4 C 0.638970 -1.993638 -1.685993 0
M  V30 5 N 1.916659 -1.465644 -2.104125 0
M  V30 6 C 3.221574 -2.005327 -1.691376 0
M  V30 7 C 3.874557 -0.905918 -0.866464 0
M  V30 8 O 3.196156 0.297608 -0.914109 0
M  V30 9 C 2.841681 0.713497 -2.190476 0
M  V30 10 C 2.141244 -0.339873 -2.990935 0
M  V30 11 O 0.142258 -1.597046 -0.558571 0
M  V30 12 C -1.013342 -2.022023 -0.092938 0
M  V30 13 C -1.571752 -1.635859 1.081265 0
M  V30 14 C -1.058815 -0.703310 2.069716 0
M  V30 15 C 0.278129 -0.812658 2.412531 0
M  V30 16 C 0.873634 0.014386 3.339100 0
M  V30 17 C 0.100790 0.991606 3.948659 0
M  V30 18 C -1.246833 1.082714 3.586698 0
M  V30 19 C -1.836195 0.260853 2.666191 0
M  V30 20 O -1.980314 2.073229 4.222852 0
M  V30 21 C -1.769846 2.401806 5.588646 0
M  V30 22 C -0.330903 2.238441 5.992776 0
M  V30 23 O 0.504610 1.904984 4.887178 0
M  V30 24 C -2.818022 -2.207433 1.404297 0
M  V30 25 S -3.151930 -3.347086 -0.091066 0
M  V30 26 C -1.660275 -2.938652 -0.918101 0
M  V30 27 H 0.472528 -3.226520 -3.492532 0
M  V30 28 H 3.017687 -2.922433 -1.078897 0
M  V30 29 H 3.836955 -2.261424 -2.577332 0
M  V30 30 H 4.957565 -0.831002 -1.109945 0
M  V30 31 H 3.838447 -1.251688 0.188468 0
M  V30 32 H 2.131033 1.557815 -2.064625 0
M  V30 33 H 3.721103 1.149016 -2.746389 0
M  V30 34 H 2.842836 -0.625367 -3.822956 0
M  V30 35 H 1.187021 -0.011434 -3.421887 0
M  V30 36 H 0.922005 -1.536899 1.984571 0
M  V30 37 H 1.917660 -0.022569 3.649649 0
M  V30 38 H -2.870382 0.323362 2.380954 0
M  V30 39 H -2.143015 3.433530 5.708619 0
M  V30 40 H -2.449547 1.759413 6.184353 0
M  V30 41 H -0.295448 1.449064 6.784944 0
M  V30 42 H 0.004624 3.198608 6.426984 0
M  V30 43 H -3.489673 -2.109990 2.226774 0
M  V30 END ATOM
M  V30 BEGIN BOND
M  V30 1 2 1 2
M  V30 2 1 2 3
M  V30 3 2 3 4
M  V30 4 1 4 5
M  V30 5 1 5 6
M  V30 6 1 6 7
M  V30 7 1 7 8
M  V30 8 1 8 9
M  V30 9 1 9 10
M  V30 10 1 4 11
M  V30 11 1 11 12
M  V30 12 1 12 13
M  V30 13 1 13 14
M  V30 14 2 14 15
M  V30 15 1 15 16
M  V30 16 2 16 17
M  V30 17 1 17 18
M  V30 18 2 18 19
M  V30 19 1 18 20
M  V30 20 1 20 21
M  V30 21 1 21 22
M  V30 22 1 22 23
M  V30 23 2 13 24
M  V30 24 1 24 25
M  V30 25 1 25 26
M  V30 26 1 26 2
M  V30 27 1 10 5
M  V30 28 2 26 12
M  V30 29 1 19 14
M  V30 30 1 23 17
M  V30 31 1 3 27
M  V30 32 1 6 28
M  V30 33 1 6 29
M  V30 34 1 7 30
M  V30 35 1 7 31
M  V30 36 1 9 32
M  V30 37 1 9 33
M  V30 38 1 10 34
M  V30 39 1 10 35
M  V30 40 1 15 36
M  V30 41 1 16 37
M  V30 42 1 19 38
M  V30 43 1 21 39
M  V30 44 1 21 40
M  V30 45 1 22 41
M  V30 46 1 22 42
M  V30 47 1 24 43
M  V30 END BOND
M  V30 END CTAB
M  END
>  <Dataset>  (158) 
ChEMBL_Kinases

>  <Ligand_Instance>  (158) 
nan

>  <PDB_ID>  (158) 
nan

>  <Standardized_SMILES>  (158) 
O=c1cc(N2CCOCC2)oc2c(-c3ccc4c(c3)OCCO4)csc12

>  <Name>  (158) 
nan

>  <Pocket>  (158) 
nan

>  <ATP_Site>  (158) 
nan

>  <Peripheral>  (158) 
nan

>  <Num_H_Atoms_ProtBoundConf>  (158) 
nan

>  <Num_Resolved_Atoms>  (158) 
nan

>  <Num_Not_Resolved_Atoms>  (158) 
nan

$$$$
CHEMBL2322143
     RDKit          3D

  0  0  0  0  0  0  0  0  0  0999 V3000
M  V30 BEGIN CTAB
M  V30 COUNTS 35 38 0 0 0
M  V30 BEGIN ATOM
M  V30 1 C 1.184100 -4.403081 0.180998 0
M  V30 2 C 0.793151 -3.092443 0.118326 0
M  V30 3 C 1.155344 -2.473720 1.281424 0
M  V30 4 C 1.767882 -3.448715 2.030603 0
M  V30 5 N 2.246577 -3.149480 3.267495 0
M  V30 6 C 2.097549 -1.880744 3.718786 0
M  V30 7 C 1.479971 -0.950472 2.930746 0
M  V30 8 C 1.198380 0.388675 3.141888 0
M  V30 9 C 0.545846 0.851762 1.993023 0
M  V30 10 C 0.431983 -0.188185 1.096789 0
M  V30 11 C -0.225731 0.092879 -0.174733 0
M  V30 12 C -1.711860 0.178794 0.062090 0
M  V30 13 C -2.178013 1.603901 -0.054352 0
M  V30 14 C -2.036331 2.039595 -1.510531 0
M  V30 15 C -0.585031 1.898307 -1.902478 0
M  V30 16 C 0.261206 1.403249 -0.764858 0
M  V30 17 N 1.001202 -1.222089 1.709617 0
M  V30 18 N 1.797144 -4.639745 1.376100 0
M  V30 19 H 1.118869 -5.260892 -0.479007 0
M  V30 20 H 0.303686 -2.839248 -0.788795 0
M  V30 21 H 2.475647 -1.639741 4.699480 0
M  V30 22 H 1.475636 0.907010 4.073447 0
M  V30 23 H 0.262940 1.876285 2.006475 0
M  V30 24 H -0.083098 -0.669670 -0.958510 0
M  V30 25 H -1.959873 -0.232615 1.072492 0
M  V30 26 H -2.261685 -0.483597 -0.648154 0
M  V30 27 H -3.269327 1.672243 0.227074 0
M  V30 28 H -1.579685 2.280342 0.550762 0
M  V30 29 H -2.646071 1.406604 -2.178156 0
M  V30 30 H -2.342261 3.084693 -1.620858 0
M  V30 31 H -0.488632 1.263352 -2.804073 0
M  V30 32 H -0.186112 2.887689 -2.191471 0
M  V30 33 H 1.283885 1.225240 -1.215919 0
M  V30 34 H 0.340213 2.164835 0.002352 0
M  V30 35 H 2.226661 -5.522473 1.781220 0
M  V30 END ATOM
M  V30 BEGIN BOND
M  V30 1 2 1 2
M  V30 2 1 2 3
M  V30 3 2 3 4
M  V30 4 1 4 5
M  V30 5 2 5 6
M  V30 6 1 6 7
M  V30 7 2 7 8
M  V30 8 1 8 9
M  V30 9 2 9 10
M  V30 10 1 10 11
M  V30 11 1 11 12
M  V30 12 1 12 13
M  V30 13 1 13 14
M  V30 14 1 14 15
M  V30 15 1 15 16
M  V30 16 1 10 17
M  V30 17 1 4 18
M  V30 18 1 18 1
M  V30 19 1 17 3
M  V30 20 1 17 7
M  V30 21 1 16 11
M  V30 22 1 1 19
M  V30 23 1 2 20
M  V30 24 1 6 21
M  V30 25 1 8 22
M  V30 26 1 9 23
M  V30 27 1 11 24
M  V30 28 1 12 25
M  V30 29 1 12 26
M  V30 30 1 13 27
M  V30 31 1 13 28
M  V30 32 1 14 29
M  V30 33 1 14 30
M  V30 34 1 15 31
M  V30 35 1 15 32
M  V30 36 1 16 33
M  V30 37 1 16 34
M  V30 38 1 18 35
M  V30 END BOND
M  V30 END CTAB
M  END
>  <Dataset>  (159) 
ChEMBL_Kinases

>  <Ligand_Instance>  (159) 
nan

>  <PDB_ID>  (159) 
nan

>  <Standardized_SMILES>  (159) 
c1cc2c(ncc3ccc(C4CCCCC4)n32)[nH]1

>  <Name>  (159) 
nan

>  <Pocket>  (159) 
nan

>  <ATP_Site>  (159) 
nan

>  <Peripheral>  (159) 
nan

>  <Num_H_Atoms_ProtBoundConf>  (159) 
nan

>  <Num_Resolved_Atoms>  (159) 
nan

>  <Num_Not_Resolved_Atoms>  (159) 
nan

$$$$
CHEMBL2322142
     RDKit          3D

  0  0  0  0  0  0  0  0  0  0999 V3000
M  V30 BEGIN CTAB
M  V30 COUNTS 34 37 0 0 0
M  V30 BEGIN ATOM
M  V30 1 C 1.970401 -4.004207 1.379147 0
M  V30 2 C 1.319036 -2.928609 0.813933 0
M  V30 3 C 1.610606 -1.794290 1.533763 0
M  V30 4 C 2.444856 -2.246189 2.526213 0
M  V30 5 N 2.910254 -1.336334 3.428528 0
M  V30 6 C 2.537963 -0.035412 3.315954 0
M  V30 7 C 1.697725 0.320929 2.286569 0
M  V30 8 N 1.181169 1.539676 1.963123 0
M  V30 9 C 0.403281 1.375597 0.865010 0
M  V30 10 C 0.409393 0.051309 0.468279 0
M  V30 11 C -0.331517 -0.507233 -0.688272 0
M  V30 12 C -1.678994 -1.055078 -0.309262 0
M  V30 13 C -2.400715 -0.019813 0.517546 0
M  V30 14 C -2.675166 1.225491 -0.293857 0
M  V30 15 C -1.941369 1.234589 -1.599989 0
M  V30 16 C -0.591747 0.631383 -1.634179 0
M  V30 17 N 1.201497 -0.528931 1.359503 0
M  V30 18 N 2.675096 -3.552068 2.458132 0
M  V30 19 H 2.024761 -5.059542 1.146927 0
M  V30 20 H 0.731742 -3.149663 -0.031854 0
M  V30 21 H 2.896407 0.708083 4.024228 0
M  V30 22 H -0.095224 2.237662 0.451793 0
M  V30 23 H 0.277985 -1.258488 -1.242422 0
M  V30 24 H -1.683379 -2.013698 0.196947 0
M  V30 25 H -2.255993 -1.175173 -1.256413 0
M  V30 26 H -1.756980 0.197114 1.392889 0
M  V30 27 H -3.326755 -0.482260 0.912374 0
M  V30 28 H -2.488113 2.106886 0.350304 0
M  V30 29 H -3.761289 1.230468 -0.519764 0
M  V30 30 H -2.601960 0.853746 -2.421875 0
M  V30 31 H -1.803829 2.328152 -1.850099 0
M  V30 32 H -0.419614 0.260745 -2.693619 0
M  V30 33 H 0.232130 1.399445 -1.514517 0
M  V30 34 H 3.286738 -4.097772 3.123202 0
M  V30 END ATOM
M  V30 BEGIN BOND
M  V30 1 2 1 2
M  V30 2 1 2 3
M  V30 3 2 3 4
M  V30 4 1 4 5
M  V30 5 2 5 6
M  V30 6 1 6 7
M  V30 7 2 7 8
M  V30 8 1 8 9
M  V30 9 2 9 10
M  V30 10 1 10 11
M  V30 11 1 11 12
M  V30 12 1 12 13
M  V30 13 1 13 14
M  V30 14 1 14 15
M  V30 15 1 15 16
M  V30 16 1 10 17
M  V30 17 1 4 18
M  V30 18 1 18 1
M  V30 19 1 17 3
M  V30 20 1 17 7
M  V30 21 1 16 11
M  V30 22 1 1 19
M  V30 23 1 2 20
M  V30 24 1 6 21
M  V30 25 1 9 22
M  V30 26 1 11 23
M  V30 27 1 12 24
M  V30 28 1 12 25
M  V30 29 1 13 26
M  V30 30 1 13 27
M  V30 31 1 14 28
M  V30 32 1 14 29
M  V30 33 1 15 30
M  V30 34 1 15 31
M  V30 35 1 16 32
M  V30 36 1 16 33
M  V30 37 1 18 34
M  V30 END BOND
M  V30 END CTAB
M  END
>  <Dataset>  (160) 
ChEMBL_Kinases

>  <Ligand_Instance>  (160) 
nan

>  <PDB_ID>  (160) 
nan

>  <Standardized_SMILES>  (160) 
c1cc2c(ncc3ncc(C4CCCCC4)n32)[nH]1

>  <Name>  (160) 
nan

>  <Pocket>  (160) 
nan

>  <ATP_Site>  (160) 
nan

>  <Peripheral>  (160) 
nan

>  <Num_H_Atoms_ProtBoundConf>  (160) 
nan

>  <Num_Resolved_Atoms>  (160) 
nan

>  <Num_Not_Resolved_Atoms>  (160) 
nan

$$$$
CHEMBL2322140
     RDKit          3D

  0  0  0  0  0  0  0  0  0  0999 V3000
M  V30 BEGIN CTAB
M  V30 COUNTS 40 43 0 0 0
M  V30 BEGIN ATOM
M  V30 1 C 0.120300 -1.448572 4.552733 0
M  V30 2 C -0.341887 -1.002352 3.341937 0
M  V30 3 C 0.362896 -1.707173 2.397277 0
M  V30 4 C 0.247372 -1.621968 1.027030 0
M  V30 5 C 1.045145 -2.442666 0.222179 0
M  V30 6 C 1.922348 -3.306496 0.869278 0
M  V30 7 N 2.008996 -3.360509 2.209825 0
M  V30 8 C 1.250130 -2.581372 3.001236 0
M  V30 9 N 1.076778 -2.397487 4.322888 0
M  V30 10 C 0.831272 -2.282597 -1.237485 0
M  V30 11 C -0.651848 -2.239631 -1.489114 0
M  V30 12 C -1.423273 -1.241387 -0.704486 0
M  V30 13 N -0.651912 -0.700071 0.426162 0
M  V30 14 C -0.757141 0.654486 0.978031 0
M  V30 15 C -1.011573 1.615184 -0.208099 0
M  V30 16 C 0.076000 1.613471 -1.209279 0
M  V30 17 C 1.404093 1.954189 -0.575882 0
M  V30 18 C 1.102014 2.386712 0.836054 0
M  V30 19 C 0.514082 1.182985 1.564281 0
M  V30 20 H -0.082822 -1.237806 5.592740 0
M  V30 21 H -1.103900 -0.259670 3.422863 0
M  V30 22 H 2.506643 -3.909010 0.194451 0
M  V30 23 H 1.667884 -2.976413 4.986805 0
M  V30 24 H 1.238814 -3.183662 -1.761054 0
M  V30 25 H 1.286863 -1.396707 -1.677365 0
M  V30 26 H -1.021818 -3.255875 -1.244247 0
M  V30 27 H -0.839612 -2.148326 -2.597726 0
M  V30 28 H -1.795018 -0.485883 -1.392113 0
M  V30 29 H -2.327859 -1.735612 -0.283047 0
M  V30 30 H -1.674783 0.844406 1.548059 0
M  V30 31 H -2.017706 1.386135 -0.646779 0
M  V30 32 H -1.141390 2.649148 0.155635 0
M  V30 33 H 0.200110 0.709650 -1.822700 0
M  V30 34 H -0.148688 2.444174 -1.915166 0
M  V30 35 H 2.065319 1.059894 -0.545127 0
M  V30 36 H 1.942921 2.763818 -1.142270 0
M  V30 37 H 2.068448 2.609843 1.392483 0
M  V30 38 H 0.510344 3.287441 0.942232 0
M  V30 39 H 0.446753 1.530395 2.618083 0
M  V30 40 H 1.299182 0.380868 1.555505 0
M  V30 END ATOM
M  V30 BEGIN BOND
M  V30 1 2 1 2
M  V30 2 1 2 3
M  V30 3 2 3 4
M  V30 4 1 4 5
M  V30 5 2 5 6
M  V30 6 1 6 7
M  V30 7 2 7 8
M  V30 8 1 8 9
M  V30 9 1 5 10
M  V30 10 1 10 11
M  V30 11 1 11 12
M  V30 12 1 12 13
M  V30 13 1 13 14
M  V30 14 1 14 15
M  V30 15 1 15 16
M  V30 16 1 16 17
M  V30 17 1 17 18
M  V30 18 1 18 19
M  V30 19 1 9 1
M  V30 20 1 19 14
M  V30 21 1 8 3
M  V30 22 1 13 4
M  V30 23 1 1 20
M  V30 24 1 2 21
M  V30 25 1 6 22
M  V30 26 1 9 23
M  V30 27 1 10 24
M  V30 28 1 10 25
M  V30 29 1 11 26
M  V30 30 1 11 27
M  V30 31 1 12 28
M  V30 32 1 12 29
M  V30 33 1 14 30
M  V30 34 1 15 31
M  V30 35 1 15 32
M  V30 36 1 16 33
M  V30 37 1 16 34
M  V30 38 1 17 35
M  V30 39 1 17 36
M  V30 40 1 18 37
M  V30 41 1 18 38
M  V30 42 1 19 39
M  V30 43 1 19 40
M  V30 END BOND
M  V30 END CTAB
M  END
>  <Dataset>  (161) 
ChEMBL_Kinases

>  <Ligand_Instance>  (161) 
nan

>  <PDB_ID>  (161) 
nan

>  <Standardized_SMILES>  (161) 
c1cc2c3c(cnc2[nH]1)CCCN3C1CCCCC1

>  <Name>  (161) 
nan

>  <Pocket>  (161) 
nan

>  <ATP_Site>  (161) 
nan

>  <Peripheral>  (161) 
nan

>  <Num_H_Atoms_ProtBoundConf>  (161) 
nan

>  <Num_Resolved_Atoms>  (161) 
nan

>  <Num_Not_Resolved_Atoms>  (161) 
nan

$$$$
CHEMBL2322134
     RDKit          3D

  0  0  0  0  0  0  0  0  0  0999 V3000
M  V30 BEGIN CTAB
M  V30 COUNTS 34 37 0 0 0
M  V30 BEGIN ATOM
M  V30 1 C 2.894684 -3.520737 1.156467 0
M  V30 2 C 1.910264 -2.702100 0.654590 0
M  V30 3 C 1.770862 -1.635156 1.499402 0
M  V30 4 C 2.687644 -1.840730 2.504014 0
M  V30 5 N 2.780515 -0.943505 3.501397 0
M  V30 6 C 1.979386 0.138371 3.504083 0
M  V30 7 C 1.084195 0.288353 2.473437 0
M  V30 8 C 0.146702 1.258407 2.195078 0
M  V30 9 N -0.470762 0.919587 1.054921 0
M  V30 10 C 0.035007 -0.233823 0.588205 0
M  V30 11 C -0.503642 -0.796786 -0.663012 0
M  V30 12 C -1.931057 -1.281414 -0.564764 0
M  V30 13 C -2.774892 -0.236902 0.071678 0
M  V30 14 C -2.719351 1.091287 -0.588382 0
M  V30 15 C -1.526738 1.405549 -1.396372 0
M  V30 16 C -0.543055 0.341848 -1.664355 0
M  V30 17 N 0.957699 -0.578394 1.460661 0
M  V30 18 N 3.387677 -2.989577 2.314743 0
M  V30 19 H 3.350684 -4.460927 0.848341 0
M  V30 20 H 1.486237 -3.055668 -0.234645 0
M  V30 21 H 2.046056 0.862166 4.298267 0
M  V30 22 H -0.037531 2.144890 2.821344 0
M  V30 23 H 0.144638 -1.554269 -1.147589 0
M  V30 24 H -2.072936 -2.257769 -0.123024 0
M  V30 25 H -2.290110 -1.367603 -1.631922 0
M  V30 26 H -3.830551 -0.652173 0.073985 0
M  V30 27 H -2.529080 -0.220842 1.174488 0
M  V30 28 H -2.962566 1.878089 0.180647 0
M  V30 29 H -3.627505 1.139624 -1.260729 0
M  V30 30 H -1.855457 1.819010 -2.390136 0
M  V30 31 H -0.968996 2.226671 -0.847830 0
M  V30 32 H -0.679031 -0.119595 -2.678874 0
M  V30 33 H 0.518260 0.723594 -1.697611 0
M  V30 34 H 4.141142 -3.332961 2.971741 0
M  V30 END ATOM
M  V30 BEGIN BOND
M  V30 1 2 1 2
M  V30 2 1 2 3
M  V30 3 2 3 4
M  V30 4 1 4 5
M  V30 5 2 5 6
M  V30 6 1 6 7
M  V30 7 2 7 8
M  V30 8 1 8 9
M  V30 9 2 9 10
M  V30 10 1 10 11
M  V30 11 1 11 12
M  V30 12 1 12 13
M  V30 13 1 13 14
M  V30 14 1 14 15
M  V30 15 1 15 16
M  V30 16 1 10 17
M  V30 17 1 4 18
M  V30 18 1 18 1
M  V30 19 1 17 3
M  V30 20 1 17 7
M  V30 21 1 16 11
M  V30 22 1 1 19
M  V30 23 1 2 20
M  V30 24 1 6 21
M  V30 25 1 8 22
M  V30 26 1 11 23
M  V30 27 1 12 24
M  V30 28 1 12 25
M  V30 29 1 13 26
M  V30 30 1 13 27
M  V30 31 1 14 28
M  V30 32 1 14 29
M  V30 33 1 15 30
M  V30 34 1 15 31
M  V30 35 1 16 32
M  V30 36 1 16 33
M  V30 37 1 18 34
M  V30 END BOND
M  V30 END CTAB
M  END
>  <Dataset>  (162) 
ChEMBL_Kinases

>  <Ligand_Instance>  (162) 
nan

>  <PDB_ID>  (162) 
nan

>  <Standardized_SMILES>  (162) 
c1cc2c(ncc3cnc(C4CCCCC4)n32)[nH]1

>  <Name>  (162) 
nan

>  <Pocket>  (162) 
nan

>  <ATP_Site>  (162) 
nan

>  <Peripheral>  (162) 
nan

>  <Num_H_Atoms_ProtBoundConf>  (162) 
nan

>  <Num_Resolved_Atoms>  (162) 
nan

>  <Num_Not_Resolved_Atoms>  (162) 
nan

$$$$
CHEMBL2321967
     RDKit          3D

  0  0  0  0  0  0  0  0  0  0999 V3000
M  V30 BEGIN CTAB
M  V30 COUNTS 36 39 0 0 0
M  V30 BEGIN ATOM
M  V30 1 C 3.398324 -6.973964 1.551285 0
M  V30 2 O 2.826479 -5.697870 1.852231 0
M  V30 3 C 2.329571 -4.860251 0.884497 0
M  V30 4 O 2.362818 -5.200382 -0.334937 0
M  V30 5 C 1.767700 -3.578829 1.300539 0
M  V30 6 C 1.722974 -3.191168 2.619536 0
M  V30 7 C 1.202065 -1.992045 3.050879 0
M  V30 8 C 0.712785 -1.177502 2.052240 0
M  V30 9 C 0.699889 -1.454850 0.680972 0
M  V30 10 C 1.256302 -2.701236 0.375278 0
M  V30 11 C 0.100131 -0.343817 -0.035944 0
M  V30 12 O 0.042213 -0.490033 -1.246181 0
M  V30 13 C -0.275655 0.661966 0.908293 0
M  V30 14 C -0.838683 1.805947 0.690856 0
M  V30 15 C -1.184569 2.766848 1.718080 0
M  V30 16 O -1.022644 2.700852 2.962299 0
M  V30 17 N -1.781443 3.889786 1.086044 0
M  V30 18 C -1.770856 3.554979 -0.317841 0
M  V30 19 C -2.276191 4.406930 -1.296679 0
M  V30 20 C -2.232175 4.020194 -2.615629 0
M  V30 21 C -1.669792 2.767782 -2.893091 0
M  V30 22 C -1.195092 1.992335 -1.861773 0
M  V30 23 C -1.216327 2.324932 -0.569643 0
M  V30 24 N 0.115039 0.109926 2.148251 0
M  V30 25 H 3.997729 -7.361474 2.372367 0
M  V30 26 H 2.545637 -7.659792 1.376573 0
M  V30 27 H 4.005149 -6.932125 0.629422 0
M  V30 28 H 2.120767 -3.869003 3.361052 0
M  V30 29 H 1.168081 -1.690745 4.083595 0
M  V30 30 H 1.292358 -3.004849 -0.647397 0
M  V30 31 H -2.130476 4.736648 1.570768 0
M  V30 32 H -2.710909 5.371838 -1.096196 0
M  V30 33 H -2.618519 4.666802 -3.385469 0
M  V30 34 H -1.673174 2.535691 -3.969126 0
M  V30 35 H -0.823705 1.117714 -2.259099 0
M  V30 36 H -0.032135 0.621892 3.048932 0
M  V30 END ATOM
M  V30 BEGIN BOND
M  V30 1 1 1 2
M  V30 2 1 2 3
M  V30 3 2 3 4
M  V30 4 1 3 5
M  V30 5 2 5 6
M  V30 6 1 6 7
M  V30 7 2 7 8
M  V30 8 1 8 9
M  V30 9 2 9 10
M  V30 10 1 9 11
M  V30 11 2 11 12
M  V30 12 1 11 13
M  V30 13 2 13 14
M  V30 14 1 14 15
M  V30 15 2 15 16
M  V30 16 1 15 17
M  V30 17 1 17 18
M  V30 18 2 18 19
M  V30 19 1 19 20
M  V30 20 2 20 21
M  V30 21 1 21 22
M  V30 22 2 22 23
M  V30 23 1 13 24
M  V30 24 1 10 5
M  V30 25 1 23 14
M  V30 26 1 24 8
M  V30 27 1 23 18
M  V30 28 1 1 25
M  V30 29 1 1 26
M  V30 30 1 1 27
M  V30 31 1 6 28
M  V30 32 1 7 29
M  V30 33 1 10 30
M  V30 34 1 17 31
M  V30 35 1 19 32
M  V30 36 1 20 33
M  V30 37 1 21 34
M  V30 38 1 22 35
M  V30 39 1 24 36
M  V30 END BOND
M  V30 END CTAB
M  END
>  <Dataset>  (163) 
ChEMBL_Kinases

>  <Ligand_Instance>  (163) 
nan

>  <PDB_ID>  (163) 
nan

>  <Standardized_SMILES>  (163) 
COC(=O)c1ccc2c(c1)C(=O)/C(=C1/C(=O)Nc3ccccc31)N2

>  <Name>  (163) 
nan

>  <Pocket>  (163) 
nan

>  <ATP_Site>  (163) 
nan

>  <Peripheral>  (163) 
nan

>  <Num_H_Atoms_ProtBoundConf>  (163) 
nan

>  <Num_Resolved_Atoms>  (163) 
nan

>  <Num_Not_Resolved_Atoms>  (163) 
nan

$$$$
CHEMBL2321925
     RDKit          3D

  0  0  0  0  0  0  0  0  0  0999 V3000
M  V30 BEGIN CTAB
M  V30 COUNTS 67 70 0 0 0
M  V30 BEGIN ATOM
M  V30 1 C 4.970769 -1.781913 2.928379 0
M  V30 2 C 3.809772 -0.834182 2.598690 0
M  V30 3 C 2.627513 -1.721142 2.302831 0
M  V30 4 C 1.365916 -0.992529 1.953942 0 CFG=2
M  V30 5 O 1.438483 -0.184446 0.847313 0
M  V30 6 C 0.261175 0.370647 0.437843 0 CFG=1
M  V30 7 O -0.542531 -0.666793 -0.095683 0
M  V30 8 C -1.150675 -0.578458 -1.344238 0
M  V30 9 C -0.684646 -0.974574 -2.554903 0
M  V30 10 C 0.608594 -1.599996 -2.672628 0
M  V30 11 C 1.449492 -2.140560 -1.731208 0
M  V30 12 C 2.702070 -2.677984 -1.887041 0
M  V30 13 C 3.204186 -2.686788 -3.173853 0
M  V30 14 O 4.460740 -3.212990 -3.406239 0
M  V30 15 C 2.465945 -2.176504 -4.221125 0
M  V30 16 C 1.228024 -1.667381 -3.927549 0
M  V30 17 O -1.355833 -0.822624 -3.673130 0
M  V30 18 C -2.536582 -0.273578 -3.687619 0
M  V30 19 C -3.170442 -0.154125 -4.920582 0
M  V30 20 C -4.433582 0.421928 -5.005403 0
M  V30 21 O -5.117181 0.567491 -6.209026 0
M  V30 22 C -5.033077 0.869786 -3.826166 0
M  V30 23 C -4.400868 0.749387 -2.616656 0
M  V30 24 O -4.986259 1.192896 -1.419352 0
M  V30 25 C -3.147404 0.176478 -2.540020 0
M  V30 26 C -2.420649 0.009385 -1.359751 0
M  V30 27 O -3.074476 0.454640 -0.371857 0
M  V30 28 C -0.519099 0.985812 1.581785 0 CFG=2
M  V30 29 O 0.397745 1.882088 2.198169 0
M  V30 30 C -0.771804 -0.084787 2.597793 0 CFG=2
M  V30 31 O -1.672103 0.226906 3.601596 0
M  V30 32 C -2.810982 -0.544817 3.793708 0
M  V30 33 C -3.691097 -0.094421 4.912438 0
M  V30 34 O -2.910776 -1.517470 2.971907 0
M  V30 35 C 0.643650 -0.387220 3.129079 0 CFG=1
M  V30 36 O 0.567116 -1.253104 4.235611 0
M  V30 37 C 1.105920 -0.759609 5.438773 0
M  V30 38 C 1.219213 -1.343373 6.823034 0
M  V30 39 O 1.623705 0.389582 5.487801 0
M  V30 40 H 5.930247 -1.298346 2.705361 0
M  V30 41 H 4.948014 -2.032743 4.015553 0
M  V30 42 H 4.809225 -2.742129 2.400257 0
M  V30 43 H 3.577748 -0.267155 3.524689 0
M  V30 44 H 4.067546 -0.162539 1.780847 0
M  V30 45 H 2.387188 -2.386276 3.160555 0
M  V30 46 H 2.831414 -2.430034 1.456595 0
M  V30 47 H 0.663337 -1.823492 1.626063 0
M  V30 48 H 0.408665 1.114381 -0.357598 0
M  V30 49 H 1.049738 -2.172196 -0.744599 0
M  V30 50 H 3.246278 -3.065359 -1.040423 0
M  V30 51 H 5.109528 -2.735317 -4.045609 0
M  V30 52 H 2.861714 -2.189481 -5.208056 0
M  V30 53 H 0.696634 -1.278190 -4.807359 0
M  V30 54 H -2.789042 -0.470024 -5.879538 0
M  V30 55 H -5.777260 1.349075 -6.270508 0
M  V30 56 H -6.016548 1.330586 -3.798165 0
M  V30 57 H -5.354402 0.421351 -0.846555 0
M  V30 58 H -1.367142 1.592487 1.317476 0
M  V30 59 H 0.939534 2.317047 1.485577 0
M  V30 60 H -1.077236 -0.994495 1.997629 0
M  V30 61 H -4.581114 -0.727965 4.926183 0
M  V30 62 H -3.141805 -0.172551 5.889911 0
M  V30 63 H -4.015112 0.941997 4.713249 0
M  V30 64 H 1.140904 0.574610 3.396325 0
M  V30 65 H 0.739406 -0.650166 7.554895 0
M  V30 66 H 2.294270 -1.386766 7.081354 0
M  V30 67 H 0.709069 -2.322186 6.874003 0
M  V30 END ATOM
M  V30 BEGIN BOND
M  V30 1 1 1 2
M  V30 2 1 2 3
M  V30 3 1 3 4
M  V30 4 1 4 5
M  V30 5 1 5 6
M  V30 6 1 6 7
M  V30 7 1 7 8
M  V30 8 2 8 9
M  V30 9 1 9 10
M  V30 10 2 10 11
M  V30 11 1 11 12
M  V30 12 2 12 13
M  V30 13 1 13 14
M  V30 14 1 13 15
M  V30 15 2 15 16
M  V30 16 1 9 17
M  V30 17 1 17 18
M  V30 18 2 18 19
M  V30 19 1 19 20
M  V30 20 1 20 21
M  V30 21 2 20 22
M  V30 22 1 22 23
M  V30 23 1 23 24
M  V30 24 2 23 25
M  V30 25 1 25 26
M  V30 26 2 26 27
M  V30 27 1 6 28
M  V30 28 1 28 29
M  V30 29 1 28 30
M  V30 30 1 30 31
M  V30 31 1 31 32
M  V30 32 1 32 33
M  V30 33 2 32 34
M  V30 34 1 30 35
M  V30 35 1 35 36
M  V30 36 1 36 37
M  V30 37 1 37 38
M  V30 38 2 37 39
M  V30 39 1 35 4
M  V30 40 1 26 8
M  V30 41 1 16 10
M  V30 42 1 25 18
M  V30 43 1 1 40
M  V30 44 1 1 41
M  V30 45 1 1 42
M  V30 46 1 2 43
M  V30 47 1 2 44
M  V30 48 1 3 45
M  V30 49 1 3 46
M  V30 50 1 4 47 CFG=3
M  V30 51 1 6 48 CFG=3
M  V30 52 1 11 49
M  V30 53 1 12 50
M  V30 54 1 14 51
M  V30 55 1 15 52
M  V30 56 1 16 53
M  V30 57 1 19 54
M  V30 58 1 21 55
M  V30 59 1 22 56
M  V30 60 1 24 57
M  V30 61 1 28 58 CFG=3
M  V30 62 1 29 59
M  V30 63 1 30 60 CFG=3
M  V30 64 1 33 61
M  V30 65 1 33 62
M  V30 66 1 33 63
M  V30 67 1 35 64 CFG=1
M  V30 68 1 38 65
M  V30 69 1 38 66
M  V30 70 1 38 67
M  V30 END BOND
M  V30 END CTAB
M  END
>  <Dataset>  (164) 
ChEMBL_Kinases

>  <Ligand_Instance>  (164) 
nan

>  <PDB_ID>  (164) 
nan

>  <Standardized_SMILES>  (164) 
CCC[C@@H]1O[C@@H](Oc2c(-c3ccc(O)cc3)oc3cc(O)cc(O)c3c2=O)[C@H](O)[C@H](OC(C)=O)[C@H]1OC(C)=O

>  <Name>  (164) 
nan

>  <Pocket>  (164) 
nan

>  <ATP_Site>  (164) 
nan

>  <Peripheral>  (164) 
nan

>  <Num_H_Atoms_ProtBoundConf>  (164) 
nan

>  <Num_Resolved_Atoms>  (164) 
nan

>  <Num_Not_Resolved_Atoms>  (164) 
nan

$$$$
CHEMBL2321907
     RDKit          3D

  0  0  0  0  0  0  0  0  0  0999 V3000
M  V30 BEGIN CTAB
M  V30 COUNTS 46 49 0 0 0
M  V30 BEGIN ATOM
M  V30 1 C 1.620683 -4.885818 4.374490 0
M  V30 2 C 0.451482 -4.049783 3.942472 0
M  V30 3 C 0.861517 -2.722658 3.346387 0
M  V30 4 C 1.723252 -2.994189 2.135611 0
M  V30 5 C 2.165271 -1.737659 1.475416 0
M  V30 6 N 3.375418 -1.111692 1.511536 0
M  V30 7 N 3.292187 -0.001170 0.769179 0
M  V30 8 N 2.061932 0.050507 0.291017 0
M  V30 9 C 1.861689 1.212607 -0.524381 0
M  V30 10 C 1.813764 1.287894 -1.902956 0
M  V30 11 C 1.611339 2.519710 -2.481588 0
M  V30 12 C 1.458800 3.653420 -1.737107 0
M  V30 13 C 1.509208 3.560354 -0.365586 0
M  V30 14 C 1.350073 4.759410 0.506180 0
M  V30 15 N 1.707114 2.354767 0.187275 0
M  V30 16 C 1.298019 -1.005164 0.691653 0
M  V30 17 C -0.058021 -1.114557 0.259027 0
M  V30 18 C -0.639822 -2.259432 -0.260280 0
M  V30 19 C -1.951786 -2.381453 -0.671098 0
M  V30 20 C -2.766972 -1.257061 -0.556033 0
M  V30 21 N -4.048268 -1.328964 -0.941204 0
M  V30 22 C -4.888609 -0.312218 -0.865323 0
M  V30 23 C -4.382755 0.869107 -0.356525 0
M  V30 24 N -3.098756 0.961372 0.035594 0
M  V30 25 C -2.256506 -0.084069 -0.048917 0
M  V30 26 C -0.931983 -0.046836 0.339605 0
M  V30 27 H 1.844643 -5.728490 3.714262 0
M  V30 28 H 2.525674 -4.221555 4.395147 0
M  V30 29 H 1.494621 -5.307171 5.392157 0
M  V30 30 H -0.136863 -4.659878 3.203134 0
M  V30 31 H -0.249871 -3.912941 4.799647 0
M  V30 32 H 0.022424 -2.049847 3.179451 0
M  V30 33 H 1.476013 -2.210369 4.144557 0
M  V30 34 H 2.663268 -3.468553 2.517929 0
M  V30 35 H 1.301826 -3.750125 1.458908 0
M  V30 36 H 1.944793 0.344266 -2.397883 0
M  V30 37 H 1.580803 2.536041 -3.576546 0
M  V30 38 H 1.300345 4.615357 -2.189186 0
M  V30 39 H 0.356802 4.732233 1.002358 0
M  V30 40 H 1.567319 5.690061 -0.014958 0
M  V30 41 H 2.105060 4.669665 1.315619 0
M  V30 42 H -0.066503 -3.143974 -0.375327 0
M  V30 43 H -2.374731 -3.274906 -1.067038 0
M  V30 44 H -5.919861 -0.470554 -1.206094 0
M  V30 45 H -5.060283 1.711880 -0.288090 0
M  V30 46 H -0.625451 0.915968 0.725408 0
M  V30 END ATOM
M  V30 BEGIN BOND
M  V30 1 1 1 2
M  V30 2 1 2 3
M  V30 3 1 3 4
M  V30 4 1 4 5
M  V30 5 1 5 6
M  V30 6 2 6 7
M  V30 7 1 7 8
M  V30 8 1 8 9
M  V30 9 2 9 10
M  V30 10 1 10 11
M  V30 11 2 11 12
M  V30 12 1 12 13
M  V30 13 1 13 14
M  V30 14 2 13 15
M  V30 15 1 8 16
M  V30 16 1 16 17
M  V30 17 2 17 18
M  V30 18 1 18 19
M  V30 19 2 19 20
M  V30 20 1 20 21
M  V30 21 2 21 22
M  V30 22 1 22 23
M  V30 23 2 23 24
M  V30 24 1 24 25
M  V30 25 2 25 26
M  V30 26 2 16 5
M  V30 27 1 26 17
M  V30 28 1 15 9
M  V30 29 1 25 20
M  V30 30 1 1 27
M  V30 31 1 1 28
M  V30 32 1 1 29
M  V30 33 1 2 30
M  V30 34 1 2 31
M  V30 35 1 3 32
M  V30 36 1 3 33
M  V30 37 1 4 34
M  V30 38 1 4 35
M  V30 39 1 10 36
M  V30 40 1 11 37
M  V30 41 1 12 38
M  V30 42 1 14 39
M  V30 43 1 14 40
M  V30 44 1 14 41
M  V30 45 1 18 42
M  V30 46 1 19 43
M  V30 47 1 22 44
M  V30 48 1 23 45
M  V30 49 1 26 46
M  V30 END BOND
M  V30 END CTAB
M  END
>  <Dataset>  (165) 
ChEMBL_Kinases

>  <Ligand_Instance>  (165) 
nan

>  <PDB_ID>  (165) 
nan

>  <Standardized_SMILES>  (165) 
CCCCc1nnn(-c2cccc(C)n2)c1-c1ccc2nccnc2c1

>  <Name>  (165) 
nan

>  <Pocket>  (165) 
nan

>  <ATP_Site>  (165) 
nan

>  <Peripheral>  (165) 
nan

>  <Num_H_Atoms_ProtBoundConf>  (165) 
nan

>  <Num_Resolved_Atoms>  (165) 
nan

>  <Num_Not_Resolved_Atoms>  (165) 
nan

$$$$
CHEMBL232177
     RDKit          3D

  0  0  0  0  0  0  0  0  0  0999 V3000
M  V30 BEGIN CTAB
M  V30 COUNTS 41 44 0 0 0
M  V30 BEGIN ATOM
M  V30 1 N 4.655409 -3.320123 3.475074 0
M  V30 2 C 3.690265 -3.169006 2.477879 0
M  V30 3 O 2.672388 -3.388016 3.227345 0
M  V30 4 N 3.546424 -2.885476 1.092147 0
M  V30 5 C 2.210138 -2.861943 0.609608 0
M  V30 6 C 1.746591 -4.066824 0.123642 0
M  V30 7 C 0.463382 -4.166608 -0.363663 0
M  V30 8 C -0.355230 -3.064224 -0.365660 0
M  V30 9 C 0.126759 -1.888809 0.118058 0
M  V30 10 C 1.395543 -1.751915 0.611229 0
M  V30 11 C -0.919753 -0.894770 0.031236 0
M  V30 12 C -0.814846 0.377899 0.317671 0
M  V30 13 C 0.327767 1.148397 0.771695 0
M  V30 14 C 0.272113 1.719955 2.046143 0
M  V30 15 C 1.223265 2.548966 2.654474 0
M  V30 16 N 2.298759 2.798709 1.887863 0
M  V30 17 C 2.446066 2.298009 0.651878 0
M  V30 18 C 1.499598 1.483596 0.068889 0
M  V30 19 C -1.954803 1.304005 0.272610 0
M  V30 20 C -3.215332 1.113731 0.853744 0
M  V30 21 C -4.009133 2.199477 0.561381 0
M  V30 22 C -3.265653 3.082423 -0.201422 0
M  V30 23 N -2.080433 2.506043 -0.335360 0
M  V30 24 C -2.086500 -1.548928 -0.541494 0
M  V30 25 O -3.201042 -1.085577 -0.795231 0
M  V30 26 N -1.702320 -2.895502 -0.777006 0
M  V30 27 H 5.040141 -4.270100 3.759512 0
M  V30 28 H 5.158312 -2.656937 4.089721 0
M  V30 29 H 4.541116 -2.762464 0.758574 0
M  V30 30 H 2.343481 -4.956519 0.101448 0
M  V30 31 H 0.049295 -5.082154 -0.755811 0
M  V30 32 H 1.916305 -0.927990 1.043113 0
M  V30 33 H -0.616301 1.502759 2.659605 0
M  V30 34 H 1.035455 2.914000 3.652774 0
M  V30 35 H 3.324437 2.515111 0.052031 0
M  V30 36 H 1.531963 1.034843 -0.920902 0
M  V30 37 H -3.572812 0.286746 1.455688 0
M  V30 38 H -5.048546 2.407491 0.842212 0
M  V30 39 H -3.546778 4.038490 -0.617477 0
M  V30 40 H -1.256742 2.891198 -0.856028 0
M  V30 41 H -2.315913 -3.624012 -1.182106 0
M  V30 END ATOM
M  V30 BEGIN BOND
M  V30 1 1 1 2
M  V30 2 2 2 3
M  V30 3 1 2 4
M  V30 4 1 4 5
M  V30 5 2 5 6
M  V30 6 1 6 7
M  V30 7 2 7 8
M  V30 8 1 8 9
M  V30 9 2 9 10
M  V30 10 1 9 11
M  V30 11 2 11 12
M  V30 12 1 12 13
M  V30 13 2 13 14
M  V30 14 1 14 15
M  V30 15 2 15 16
M  V30 16 1 16 17
M  V30 17 2 17 18
M  V30 18 1 12 19
M  V30 19 2 19 20
M  V30 20 1 20 21
M  V30 21 2 21 22
M  V30 22 1 22 23
M  V30 23 1 11 24
M  V30 24 2 24 25
M  V30 25 1 24 26
M  V30 26 1 10 5
M  V30 27 1 18 13
M  V30 28 1 23 19
M  V30 29 1 26 8
M  V30 30 1 1 27
M  V30 31 1 1 28
M  V30 32 1 4 29
M  V30 33 1 6 30
M  V30 34 1 7 31
M  V30 35 1 10 32
M  V30 36 1 14 33
M  V30 37 1 15 34
M  V30 38 1 17 35
M  V30 39 1 18 36
M  V30 40 1 20 37
M  V30 41 1 21 38
M  V30 42 1 22 39
M  V30 43 1 23 40
M  V30 44 1 26 41
M  V30 END BOND
M  V30 END CTAB
M  END
>  <Dataset>  (166) 
ChEMBL_Kinases

>  <Ligand_Instance>  (166) 
nan

>  <PDB_ID>  (166) 
nan

>  <Standardized_SMILES>  (166) 
NC(=O)Nc1ccc2c(c1)/C(=C(\c1ccncc1)c1ccc[nH]1)C(=O)N2

>  <Name>  (166) 
nan

>  <Pocket>  (166) 
nan

>  <ATP_Site>  (166) 
nan

>  <Peripheral>  (166) 
nan

>  <Num_H_Atoms_ProtBoundConf>  (166) 
nan

>  <Num_Resolved_Atoms>  (166) 
nan

>  <Num_Not_Resolved_Atoms>  (166) 
nan

$$$$
CHEMBL2314456
     RDKit          3D

  0  0  0  0  0  0  0  0  0  0999 V3000
M  V30 BEGIN CTAB
M  V30 COUNTS 47 49 0 0 0
M  V30 BEGIN ATOM
M  V30 1 C -0.451367 -3.970296 3.835879 0
M  V30 2 C 0.437025 -3.290271 2.849768 0
M  V30 3 C 1.146755 -2.072625 3.352086 0 CFG=2
M  V30 4 C 0.155707 -0.996196 3.814963 0
M  V30 5 O 0.847505 0.137714 4.242972 0
M  V30 6 N 1.883689 -1.448234 2.264747 0
M  V30 7 C 1.283470 -0.982308 1.074433 0
M  V30 8 N 2.089081 -0.354723 0.175995 0
M  V30 9 C 1.660716 0.145219 -0.989756 0
M  V30 10 N 2.653040 0.777057 -1.810027 0
M  V30 11 C 2.919579 1.976920 -1.042598 0
M  V30 12 C 2.430538 3.264582 -1.065763 0
M  V30 13 C 2.929104 4.148385 -0.142522 0
M  V30 14 N 3.863145 3.767113 0.753360 0
M  V30 15 C 4.349219 2.525154 0.791396 0
M  V30 16 N 3.859229 1.642229 -0.121889 0
M  V30 17 C 0.350054 0.045941 -1.348963 0
M  V30 18 N -0.379885 0.419768 -2.407150 0
M  V30 19 C -1.661865 0.013390 -2.160324 0
M  V30 20 N -1.764103 -0.614728 -0.957825 0
M  V30 21 C -2.855265 -1.210318 -0.262067 0
M  V30 22 C -3.736490 -0.213661 0.461401 0
M  V30 23 C -3.704481 -2.143346 -1.116639 0
M  V30 24 C -0.487318 -0.581875 -0.466897 0
M  V30 25 N 0.033157 -1.041068 0.660159 0
M  V30 26 H -1.404021 -4.278803 3.310751 0
M  V30 27 H -0.047016 -4.954950 4.204004 0
M  V30 28 H -0.807828 -3.332300 4.672531 0
M  V30 29 H 1.226051 -4.007973 2.523966 0
M  V30 30 H -0.178306 -2.971110 1.986593 0
M  V30 31 H 1.830457 -2.289180 4.189469 0
M  V30 32 H -0.499323 -0.725025 2.989449 0
M  V30 33 H -0.439259 -1.334416 4.671633 0
M  V30 34 H 0.397197 0.990049 4.011938 0
M  V30 35 H 2.920819 -1.341062 2.383790 0
M  V30 36 H 3.110998 0.512084 -2.722932 0
M  V30 37 H 1.704054 3.353223 -1.845824 0
M  V30 38 H 2.501053 5.133806 -0.223930 0
M  V30 39 H 5.112092 2.208993 1.522086 0
M  V30 40 H -2.495849 0.165667 -2.822548 0
M  V30 41 H -2.460138 -1.880813 0.554777 0
M  V30 42 H -4.809884 -0.477659 0.379473 0
M  V30 43 H -3.617885 0.806440 0.105302 0
M  V30 44 H -3.545541 -0.207313 1.575888 0
M  V30 45 H -3.201089 -3.156626 -1.124118 0
M  V30 46 H -4.630140 -2.344581 -0.493735 0
M  V30 47 H -3.926597 -1.756542 -2.111706 0
M  V30 END ATOM
M  V30 BEGIN BOND
M  V30 1 1 1 2
M  V30 2 1 2 3
M  V30 3 1 3 4
M  V30 4 1 4 5
M  V30 5 1 3 6
M  V30 6 1 6 7
M  V30 7 2 7 8
M  V30 8 1 8 9
M  V30 9 1 9 10
M  V30 10 1 10 11
M  V30 11 2 11 12
M  V30 12 1 12 13
M  V30 13 2 13 14
M  V30 14 1 14 15
M  V30 15 2 15 16
M  V30 16 2 9 17
M  V30 17 1 17 18
M  V30 18 2 18 19
M  V30 19 1 19 20
M  V30 20 1 20 21
M  V30 21 1 21 22
M  V30 22 1 21 23
M  V30 23 1 20 24
M  V30 24 2 24 25
M  V30 25 1 25 7
M  V30 26 1 16 11
M  V30 27 1 24 17
M  V30 28 1 1 26
M  V30 29 1 1 27
M  V30 30 1 1 28
M  V30 31 1 2 29
M  V30 32 1 2 30
M  V30 33 1 3 31 CFG=1
M  V30 34 1 4 32
M  V30 35 1 4 33
M  V30 36 1 5 34
M  V30 37 1 6 35
M  V30 38 1 10 36
M  V30 39 1 12 37
M  V30 40 1 13 38
M  V30 41 1 15 39
M  V30 42 1 19 40
M  V30 43 1 21 41
M  V30 44 1 22 42
M  V30 45 1 22 43
M  V30 46 1 22 44
M  V30 47 1 23 45
M  V30 48 1 23 46
M  V30 49 1 23 47
M  V30 END BOND
M  V30 END CTAB
M  END
>  <Dataset>  (167) 
ChEMBL_Kinases

>  <Ligand_Instance>  (167) 
nan

>  <PDB_ID>  (167) 
nan

>  <Standardized_SMILES>  (167) 
CC[C@H](CO)Nc1nc(Nc2ccncn2)c2ncn(C(C)C)c2n1

>  <Name>  (167) 
nan

>  <Pocket>  (167) 
nan

>  <ATP_Site>  (167) 
nan

>  <Peripheral>  (167) 
nan

>  <Num_H_Atoms_ProtBoundConf>  (167) 
nan

>  <Num_Resolved_Atoms>  (167) 
nan

>  <Num_Not_Resolved_Atoms>  (167) 
nan

$$$$
CHEMBL2316496
     RDKit          3D

  0  0  0  0  0  0  0  0  0  0999 V3000
M  V30 BEGIN CTAB
M  V30 COUNTS 75 80 0 0 0
M  V30 BEGIN ATOM
M  V30 1 O 2.301229 -1.460998 0.859910 0
M  V30 2 C 1.543097 -1.790104 1.805985 0
M  V30 3 C 0.080302 -1.830266 1.614250 0
M  V30 4 C -0.232381 -1.158623 0.450075 0
M  V30 5 C -1.577652 -1.102786 0.137993 0
M  V30 6 C -2.536596 -1.682621 0.943134 0
M  V30 7 N -3.925631 -1.580962 0.578935 0
M  V30 8 C -4.280500 -0.771209 -0.528326 0
M  V30 9 C -4.915509 -1.230986 -1.662291 0
M  V30 10 C -5.177831 -0.294474 -2.634770 0
M  V30 11 N -5.842717 -0.690394 -3.849646 0
M  V30 12 C -4.814403 -1.105647 -4.753725 0
M  V30 13 O -3.655503 -1.004966 -4.225015 0
M  V30 14 C -5.063316 -1.598713 -6.147473 0
M  V30 15 C -5.985905 -2.792533 -6.138053 0
M  V30 16 C -7.013615 -2.444187 -7.192802 0
M  V30 17 O -7.018984 -1.056635 -7.275504 0
M  V30 18 C -5.754322 -0.612457 -7.015770 0
M  V30 19 C -4.861181 1.054665 -2.571796 0
M  V30 20 F -5.136459 1.935846 -3.547464 0
M  V30 21 C -4.227135 1.486570 -1.426926 0
M  V30 22 C -3.941329 0.582924 -0.418000 0
M  V30 23 F -3.315176 1.073303 0.693864 0
M  V30 24 C -2.159738 -2.343949 2.098944 0
M  V30 25 C -0.813781 -2.438767 2.475979 0
M  V30 26 C -0.745563 -3.182605 3.722852 0
M  V30 27 C 0.540429 -3.713577 4.178873 0
M  V30 28 C 1.755156 -2.948775 4.038452 0
M  V30 29 C 2.593014 -3.115025 5.153447 0
M  V30 30 C 3.828107 -2.457772 5.213575 0
M  V30 31 C 4.271890 -1.629527 4.196774 0
M  V30 32 O 5.482508 -1.118626 4.488448 0
M  V30 33 C 6.311687 -0.240204 3.800200 0
M  V30 34 C 5.715839 1.103850 3.599110 0
M  V30 35 N 6.533373 2.054649 2.883000 0
M  V30 36 C 5.835543 3.333979 2.784272 0
M  V30 37 C 4.540491 3.125037 2.026883 0
M  V30 38 O 4.657782 2.108007 1.094251 0
M  V30 39 C 5.937341 2.137447 0.561942 0
M  V30 40 C 6.965823 1.645042 1.589564 0
M  V30 41 C 3.467603 -1.455601 3.099946 0
M  V30 42 C 2.257629 -2.113039 3.065179 0
M  V30 43 H 0.534865 -0.716011 -0.159282 0
M  V30 44 H -1.802920 -0.572145 -0.786732 0
M  V30 45 H -4.633303 -2.114762 1.152044 0
M  V30 46 H -5.172494 -2.265963 -1.738999 0
M  V30 47 H -6.838078 -0.747898 -4.217489 0
M  V30 48 H -4.057220 -1.863542 -6.551408 0
M  V30 49 H -5.467810 -3.721638 -6.372668 0
M  V30 50 H -6.463000 -2.871737 -5.124190 0
M  V30 51 H -8.028280 -2.764413 -6.885736 0
M  V30 52 H -6.764967 -2.929975 -8.137811 0
M  V30 53 H -5.829410 0.355791 -6.473422 0
M  V30 54 H -5.165505 -0.499465 -7.965844 0
M  V30 55 H -3.942375 2.532770 -1.293989 0
M  V30 56 H -2.948422 -2.795108 2.718582 0
M  V30 57 H -1.486691 -4.036320 3.736346 0
M  V30 58 H -1.129670 -2.498317 4.528878 0
M  V30 59 H 0.426023 -4.043527 5.254171 0
M  V30 60 H 0.713122 -4.698433 3.646022 0
M  V30 61 H 2.222947 -3.770130 5.939419 0
M  V30 62 H 4.355454 -2.695394 6.148580 0
M  V30 63 H 7.255561 -0.142276 4.405082 0
M  V30 64 H 6.610034 -0.763080 2.867449 0
M  V30 65 H 5.593408 1.561385 4.637674 0
M  V30 66 H 4.694224 1.107377 3.199234 0
M  V30 67 H 5.624202 3.697446 3.807409 0
M  V30 68 H 6.462094 4.048462 2.213560 0
M  V30 69 H 3.726338 2.854016 2.746049 0
M  V30 70 H 4.214759 4.045354 1.495419 0
M  V30 71 H 5.940443 1.459188 -0.318943 0
M  V30 72 H 6.145441 3.153032 0.216404 0
M  V30 73 H 7.900759 2.193099 1.305643 0
M  V30 74 H 7.035933 0.571855 1.442213 0
M  V30 75 H 3.807038 -0.826043 2.298904 0
M  V30 END ATOM
M  V30 BEGIN BOND
M  V30 1 2 1 2
M  V30 2 1 2 3
M  V30 3 2 3 4
M  V30 4 1 4 5
M  V30 5 2 5 6
M  V30 6 1 6 7
M  V30 7 1 7 8
M  V30 8 2 8 9
M  V30 9 1 9 10
M  V30 10 1 10 11
M  V30 11 1 11 12
M  V30 12 2 12 13
M  V30 13 1 12 14
M  V30 14 1 14 15
M  V30 15 1 15 16
M  V30 16 1 16 17
M  V30 17 1 17 18
M  V30 18 2 10 19
M  V30 19 1 19 20
M  V30 20 1 19 21
M  V30 21 2 21 22
M  V30 22 1 22 23
M  V30 23 1 6 24
M  V30 24 2 24 25
M  V30 25 1 25 26
M  V30 26 1 26 27
M  V30 27 1 27 28
M  V30 28 2 28 29
M  V30 29 1 29 30
M  V30 30 2 30 31
M  V30 31 1 31 32
M  V30 32 1 32 33
M  V30 33 1 33 34
M  V30 34 1 34 35
M  V30 35 1 35 36
M  V30 36 1 36 37
M  V30 37 1 37 38
M  V30 38 1 38 39
M  V30 39 1 39 40
M  V30 40 1 31 41
M  V30 41 2 41 42
M  V30 42 1 42 2
M  V30 43 1 25 3
M  V30 44 1 42 28
M  V30 45 1 22 8
M  V30 46 1 40 35
M  V30 47 1 18 14
M  V30 48 1 4 43
M  V30 49 1 5 44
M  V30 50 1 7 45
M  V30 51 1 9 46
M  V30 52 1 11 47
M  V30 53 1 14 48
M  V30 54 1 15 49
M  V30 55 1 15 50
M  V30 56 1 16 51
M  V30 57 1 16 52
M  V30 58 1 18 53
M  V30 59 1 18 54
M  V30 60 1 21 55
M  V30 61 1 24 56
M  V30 62 1 26 57
M  V30 63 1 26 58
M  V30 64 1 27 59
M  V30 65 1 27 60
M  V30 66 1 29 61
M  V30 67 1 30 62
M  V30 68 1 33 63
M  V30 69 1 33 64
M  V30 70 1 34 65
M  V30 71 1 34 66
M  V30 72 1 36 67
M  V30 73 1 36 68
M  V30 74 1 37 69
M  V30 75 1 37 70
M  V30 76 1 39 71
M  V30 77 1 39 72
M  V30 78 1 40 73
M  V30 79 1 40 74
M  V30 80 1 41 75
M  V30 END BOND
M  V30 END CTAB
M  END
>  <Dataset>  (168) 
ChEMBL_Kinases

>  <Ligand_Instance>  (168) 
nan

>  <PDB_ID>  (168) 
nan

>  <Standardized_SMILES>  (168) 
O=C1c2ccc(Nc3cc(NC(=O)C4CCOC4)c(F)cc3F)cc2CCc2ccc(OCCN3CCOCC3)cc21

>  <Name>  (168) 
nan

>  <Pocket>  (168) 
nan

>  <ATP_Site>  (168) 
nan

>  <Peripheral>  (168) 
nan

>  <Num_H_Atoms_ProtBoundConf>  (168) 
nan

>  <Num_Resolved_Atoms>  (168) 
nan

>  <Num_Not_Resolved_Atoms>  (168) 
nan

$$$$
CHEMBL2316497
     RDKit          3D

  0  0  0  0  0  0  0  0  0  0999 V3000
M  V30 BEGIN CTAB
M  V30 COUNTS 74 79 0 0 0
M  V30 BEGIN ATOM
M  V30 1 O 5.786288 1.911863 0.441681 0
M  V30 2 C 6.227653 0.750481 0.132190 0
M  V30 3 N 6.146241 0.579704 -1.298590 0
M  V30 4 C 5.589745 1.813472 -1.802790 0
M  V30 5 C 4.227939 1.951479 -1.938807 0
M  V30 6 C 3.594895 3.068787 -2.398631 0
M  V30 7 N 2.209961 3.268362 -2.578015 0
M  V30 8 C 1.092151 2.427927 -2.403704 0
M  V30 9 C 1.040435 1.089878 -2.684559 0
M  V30 10 C -0.009625 0.219054 -2.509836 0
M  V30 11 C -1.167001 0.796272 -1.974889 0
M  V30 12 C -1.233065 2.141841 -1.651452 0
M  V30 13 C -0.104779 2.898030 -1.878670 0
M  V30 14 C -2.320410 2.931441 -1.088324 0
M  V30 15 C -3.698704 2.469018 -1.252893 0
M  V30 16 C -4.101565 1.152231 -0.820676 0
M  V30 17 C -5.253785 1.023293 -0.065970 0
M  V30 18 C -5.737496 -0.184330 0.399584 0
M  V30 19 C -5.059194 -1.340880 0.114430 0
M  V30 20 O -5.459773 -2.619064 0.536212 0
M  V30 21 C -4.737982 -3.775903 0.218573 0
M  V30 22 C -5.359744 -5.019324 0.786146 0
M  V30 23 N -5.389099 -4.860008 2.234668 0
M  V30 24 C -5.952925 -5.997564 2.894353 0
M  V30 25 C -6.239292 -5.647265 4.332994 0
M  V30 26 O -5.194277 -4.855039 4.857775 0
M  V30 27 C -4.014079 -5.093101 4.178645 0
M  V30 28 C -4.054839 -4.628295 2.756325 0
M  V30 29 C -3.899507 -1.284732 -0.635904 0
M  V30 30 C -3.455816 -0.039240 -1.080282 0
M  V30 31 C -2.207478 -0.252808 -1.841749 0
M  V30 32 O -2.023095 -1.383205 -2.402701 0
M  V30 33 C 4.455006 4.092984 -2.730895 0
M  V30 34 F 3.973107 5.281349 -3.209104 0
M  V30 35 C 5.803309 4.009234 -2.616622 0
M  V30 36 C 6.409841 2.865988 -2.148888 0
M  V30 37 F 7.748956 2.709461 -2.008937 0
M  V30 38 C 6.736862 -0.252813 1.069479 0
M  V30 39 C 7.216505 -1.511017 0.816733 0
M  V30 40 C 7.654088 -2.309779 1.848128 0
M  V30 41 C 7.642181 -1.915967 3.167719 0
M  V30 42 C 7.155314 -0.641809 3.413812 0
M  V30 43 C 6.711455 0.175879 2.395433 0
M  V30 44 H 6.488148 -0.354439 -1.677238 0
M  V30 45 H 3.636922 1.104040 -1.645199 0
M  V30 46 H 1.883372 4.202015 -2.906474 0
M  V30 47 H 1.908339 0.596424 -3.114701 0
M  V30 48 H 0.007546 -0.815947 -2.747506 0
M  V30 49 H -0.181001 3.963922 -1.613654 0
M  V30 50 H -2.119424 3.003403 0.020654 0
M  V30 51 H -2.256589 3.992630 -1.428696 0
M  V30 52 H -4.385481 3.220309 -0.799070 0
M  V30 53 H -3.940261 2.531941 -2.356739 0
M  V30 54 H -5.783381 1.963094 0.150746 0
M  V30 55 H -6.641838 -0.246851 0.988421 0
M  V30 56 H -4.691250 -3.815016 -0.909383 0
M  V30 57 H -3.668285 -3.746359 0.522663 0
M  V30 58 H -4.691682 -5.881385 0.583651 0
M  V30 59 H -6.363760 -5.195708 0.376544 0
M  V30 60 H -6.869647 -6.379481 2.418256 0
M  V30 61 H -5.188893 -6.830126 2.906457 0
M  V30 62 H -6.239494 -6.577762 4.958342 0
M  V30 63 H -7.165735 -5.067610 4.468770 0
M  V30 64 H -3.206861 -4.553598 4.713808 0
M  V30 65 H -3.766041 -6.174247 4.216337 0
M  V30 66 H -3.809829 -3.530752 2.642076 0
M  V30 67 H -3.278377 -5.131709 2.128668 0
M  V30 68 H -3.341173 -2.190364 -0.877339 0
M  V30 69 H 6.464306 4.826309 -2.882704 0
M  V30 70 H 7.202446 -1.770150 -0.231846 0
M  V30 71 H 8.023335 -3.294921 1.602496 0
M  V30 72 H 7.990247 -2.562230 3.963581 0
M  V30 73 H 7.126558 -0.283642 4.447687 0
M  V30 74 H 6.345592 1.167117 2.700864 0
M  V30 END ATOM
M  V30 BEGIN BOND
M  V30 1 2 1 2
M  V30 2 1 2 3
M  V30 3 1 3 4
M  V30 4 2 4 5
M  V30 5 1 5 6
M  V30 6 1 6 7
M  V30 7 1 7 8
M  V30 8 2 8 9
M  V30 9 1 9 10
M  V30 10 2 10 11
M  V30 11 1 11 12
M  V30 12 2 12 13
M  V30 13 1 12 14
M  V30 14 1 14 15
M  V30 15 1 15 16
M  V30 16 2 16 17
M  V30 17 1 17 18
M  V30 18 2 18 19
M  V30 19 1 19 20
M  V30 20 1 20 21
M  V30 21 1 21 22
M  V30 22 1 22 23
M  V30 23 1 23 24
M  V30 24 1 24 25
M  V30 25 1 25 26
M  V30 26 1 26 27
M  V30 27 1 27 28
M  V30 28 1 19 29
M  V30 29 2 29 30
M  V30 30 1 30 31
M  V30 31 2 31 32
M  V30 32 2 6 33
M  V30 33 1 33 34
M  V30 34 1 33 35
M  V30 35 2 35 36
M  V30 36 1 36 37
M  V30 37 1 2 38
M  V30 38 2 38 39
M  V30 39 1 39 40
M  V30 40 2 40 41
M  V30 41 1 41 42
M  V30 42 2 42 43
M  V30 43 1 36 4
M  V30 44 1 43 38
M  V30 45 1 13 8
M  V30 46 1 30 16
M  V30 47 1 31 11
M  V30 48 1 28 23
M  V30 49 1 3 44
M  V30 50 1 5 45
M  V30 51 1 7 46
M  V30 52 1 9 47
M  V30 53 1 10 48
M  V30 54 1 13 49
M  V30 55 1 14 50
M  V30 56 1 14 51
M  V30 57 1 15 52
M  V30 58 1 15 53
M  V30 59 1 17 54
M  V30 60 1 18 55
M  V30 61 1 21 56
M  V30 62 1 21 57
M  V30 63 1 22 58
M  V30 64 1 22 59
M  V30 65 1 24 60
M  V30 66 1 24 61
M  V30 67 1 25 62
M  V30 68 1 25 63
M  V30 69 1 27 64
M  V30 70 1 27 65
M  V30 71 1 28 66
M  V30 72 1 28 67
M  V30 73 1 29 68
M  V30 74 1 35 69
M  V30 75 1 39 70
M  V30 76 1 40 71
M  V30 77 1 41 72
M  V30 78 1 42 73
M  V30 79 1 43 74
M  V30 END BOND
M  V30 END CTAB
M  END
>  <Dataset>  (169) 
ChEMBL_Kinases

>  <Ligand_Instance>  (169) 
nan

>  <PDB_ID>  (169) 
nan

>  <Standardized_SMILES>  (169) 
O=C(Nc1cc(Nc2ccc3c(c2)CCc2ccc(OCCN4CCOCC4)cc2C3=O)c(F)cc1F)c1ccccc1

>  <Name>  (169) 
nan

>  <Pocket>  (169) 
nan

>  <ATP_Site>  (169) 
nan

>  <Peripheral>  (169) 
nan

>  <Num_H_Atoms_ProtBoundConf>  (169) 
nan

>  <Num_Resolved_Atoms>  (169) 
nan

>  <Num_Not_Resolved_Atoms>  (169) 
nan

$$$$
CHEMBL231715
     RDKit          3D

  0  0  0  0  0  0  0  0  0  0999 V3000
M  V30 BEGIN CTAB
M  V30 COUNTS 27 29 0 0 0
M  V30 BEGIN ATOM
M  V30 1 O 0.580267 -1.349747 3.034325 0
M  V30 2 C 0.738545 -1.542290 1.803915 0
M  V30 3 N 1.379435 -2.680432 1.259449 0
M  V30 4 C 1.360047 -2.539068 -0.157243 0
M  V30 5 C 1.826301 -3.317205 -1.194019 0
M  V30 6 C 1.705629 -2.992294 -2.528579 0
M  V30 7 C 1.067344 -1.797192 -2.800135 0
M  V30 8 C 0.586486 -0.989853 -1.806919 0
M  V30 9 O -0.038987 0.190582 -2.188532 0
M  V30 10 C 0.725397 -1.348212 -0.467804 0
M  V30 11 C 0.292621 -0.641941 0.742254 0
M  V30 12 C -0.320306 0.522505 0.856945 0
M  V30 13 C -0.653592 1.114924 2.143355 0
M  V30 14 C -0.040486 1.420139 3.339193 0
M  V30 15 C -0.953528 1.948891 4.208911 0
M  V30 16 C -2.176800 1.985754 3.554596 0
M  V30 17 N -1.960500 1.474750 2.310255 0
M  V30 18 H 1.795393 -3.484119 1.785738 0
M  V30 19 H 2.327690 -4.262160 -0.971551 0
M  V30 20 H 2.061899 -3.580446 -3.361933 0
M  V30 21 H 0.946830 -1.495897 -3.848055 0
M  V30 22 H 0.579658 0.867690 -2.633510 0
M  V30 23 H -0.576284 1.048456 -0.075877 0
M  V30 24 H 1.020591 1.223027 3.415967 0
M  V30 25 H -0.553181 2.219604 5.183252 0
M  V30 26 H -3.009057 2.381199 4.115846 0
M  V30 27 H -2.865752 1.478975 1.758390 0
M  V30 END ATOM
M  V30 BEGIN BOND
M  V30 1 2 1 2
M  V30 2 1 2 3
M  V30 3 1 3 4
M  V30 4 2 4 5
M  V30 5 1 5 6
M  V30 6 2 6 7
M  V30 7 1 7 8
M  V30 8 1 8 9
M  V30 9 2 8 10
M  V30 10 1 10 11
M  V30 11 2 11 12
M  V30 12 1 12 13
M  V30 13 2 13 14
M  V30 14 1 14 15
M  V30 15 2 15 16
M  V30 16 1 16 17
M  V30 17 1 11 2
M  V30 18 1 17 13
M  V30 19 1 10 4
M  V30 20 1 3 18
M  V30 21 1 5 19
M  V30 22 1 6 20
M  V30 23 1 7 21
M  V30 24 1 9 22
M  V30 25 1 12 23
M  V30 26 1 14 24
M  V30 27 1 15 25
M  V30 28 1 16 26
M  V30 29 1 17 27
M  V30 END BOND
M  V30 END CTAB
M  END
>  <Dataset>  (170) 
ChEMBL_Kinases

>  <Ligand_Instance>  (170) 
nan

>  <PDB_ID>  (170) 
nan

>  <Standardized_SMILES>  (170) 
O=C1Nc2cccc(O)c2/C1=C/c1ccc[nH]1

>  <Name>  (170) 
nan

>  <Pocket>  (170) 
nan

>  <ATP_Site>  (170) 
nan

>  <Peripheral>  (170) 
nan

>  <Num_H_Atoms_ProtBoundConf>  (170) 
nan

>  <Num_Resolved_Atoms>  (170) 
nan

>  <Num_Not_Resolved_Atoms>  (170) 
nan

$$$$
CHEMBL231716
     RDKit          3D

  0  0  0  0  0  0  0  0  0  0999 V3000
M  V30 BEGIN CTAB
M  V30 COUNTS 27 29 0 0 0
M  V30 BEGIN ATOM
M  V30 1 O -1.175977 -2.112766 1.901294 0
M  V30 2 C -0.227609 -1.760479 1.180167 0
M  V30 3 N 0.635590 -2.733597 0.611129 0
M  V30 4 C 1.601852 -1.977231 -0.145564 0
M  V30 5 C 2.669231 -2.469294 -0.894119 0
M  V30 6 C 3.475614 -1.558911 -1.543503 0
M  V30 7 O 4.554910 -2.012724 -2.303409 0
M  V30 8 C 3.228726 -0.186410 -1.452399 0
M  V30 9 C 2.165159 0.266344 -0.703796 0
M  V30 10 C 1.336476 -0.616525 -0.040150 0
M  V30 11 C 0.164599 -0.412433 0.803939 0
M  V30 12 C -0.445092 0.705346 1.156334 0
M  V30 13 C -1.636630 0.759525 1.991438 0
M  V30 14 C -1.943564 1.457476 3.141358 0
M  V30 15 C -3.261802 1.168839 3.491814 0
M  V30 16 C -3.716060 0.287843 2.519653 0
M  V30 17 N -2.735722 0.054747 1.633172 0
M  V30 18 H 0.604236 -3.772859 0.702670 0
M  V30 19 H 2.854912 -3.527522 -0.960599 0
M  V30 20 H 4.466411 -2.197642 -3.284820 0
M  V30 21 H 3.924285 0.466984 -2.004025 0
M  V30 22 H 1.980866 1.329746 -0.639317 0
M  V30 23 H 0.048070 1.589457 0.747123 0
M  V30 24 H -1.184559 2.101576 3.609113 0
M  V30 25 H -3.698439 1.627188 4.381968 0
M  V30 26 H -4.757806 -0.019743 2.687559 0
M  V30 27 H -3.082017 -0.601299 0.891205 0
M  V30 END ATOM
M  V30 BEGIN BOND
M  V30 1 2 1 2
M  V30 2 1 2 3
M  V30 3 1 3 4
M  V30 4 2 4 5
M  V30 5 1 5 6
M  V30 6 1 6 7
M  V30 7 2 6 8
M  V30 8 1 8 9
M  V30 9 2 9 10
M  V30 10 1 10 11
M  V30 11 2 11 12
M  V30 12 1 12 13
M  V30 13 2 13 14
M  V30 14 1 14 15
M  V30 15 2 15 16
M  V30 16 1 16 17
M  V30 17 1 11 2
M  V30 18 1 17 13
M  V30 19 1 10 4
M  V30 20 1 3 18
M  V30 21 1 5 19
M  V30 22 1 7 20
M  V30 23 1 8 21
M  V30 24 1 9 22
M  V30 25 1 12 23
M  V30 26 1 14 24
M  V30 27 1 15 25
M  V30 28 1 16 26
M  V30 29 1 17 27
M  V30 END BOND
M  V30 END CTAB
M  END
>  <Dataset>  (171) 
ChEMBL_Kinases

>  <Ligand_Instance>  (171) 
nan

>  <PDB_ID>  (171) 
nan

>  <Standardized_SMILES>  (171) 
O=C1Nc2cc(O)ccc2/C1=C/c1ccc[nH]1

>  <Name>  (171) 
nan

>  <Pocket>  (171) 
nan

>  <ATP_Site>  (171) 
nan

>  <Peripheral>  (171) 
nan

>  <Num_H_Atoms_ProtBoundConf>  (171) 
nan

>  <Num_Resolved_Atoms>  (171) 
nan

>  <Num_Not_Resolved_Atoms>  (171) 
nan

$$$$
CHEMBL231717
     RDKit          3D

  0  0  0  0  0  0  0  0  0  0999 V3000
M  V30 BEGIN CTAB
M  V30 COUNTS 30 32 0 0 0
M  V30 BEGIN ATOM
M  V30 1 C -1.345359 0.509433 0.012103 0
M  V30 2 C -0.375615 0.194741 1.092005 0
M  V30 3 C 0.527761 -0.763436 1.029160 0
M  V30 4 C 1.554068 -1.205113 1.985552 0
M  V30 5 O 1.759331 -0.678626 3.106341 0
M  V30 6 N 2.274635 -2.307506 1.452111 0
M  V30 7 C 1.724004 -2.575012 0.169017 0
M  V30 8 C 2.130571 -3.567494 -0.697976 0
M  V30 9 C 1.487617 -3.691618 -1.909920 0
M  V30 10 C 0.447356 -2.817533 -2.231373 0
M  V30 11 O -0.190739 -2.956268 -3.459856 0
M  V30 12 C 0.103811 -1.843764 -1.292121 0
M  V30 13 C 0.697611 -1.665492 -0.076462 0
M  V30 14 C -0.469463 0.966161 2.321840 0
M  V30 15 C -0.574013 0.752060 3.653487 0
M  V30 16 C -0.583579 1.933782 4.359836 0
M  V30 17 C -0.477980 2.925665 3.379085 0
M  V30 18 N -0.412272 2.323995 2.181176 0
M  V30 19 H -2.106758 -0.277492 -0.150458 0
M  V30 20 H -1.975332 1.380185 0.389476 0
M  V30 21 H -0.908380 0.897914 -0.906093 0
M  V30 22 H 3.057177 -2.801756 1.943477 0
M  V30 23 H 2.931328 -4.250395 -0.464185 0
M  V30 24 H 1.788554 -4.453032 -2.594425 0
M  V30 25 H -1.056375 -3.506320 -3.541199 0
M  V30 26 H -0.701110 -1.244364 -1.654705 0
M  V30 27 H -0.655939 -0.231571 4.063027 0
M  V30 28 H -0.658655 2.008354 5.438029 0
M  V30 29 H -0.460649 3.971108 3.652342 0
M  V30 30 H -0.328731 2.956253 1.333615 0
M  V30 END ATOM
M  V30 BEGIN BOND
M  V30 1 1 1 2
M  V30 2 2 2 3
M  V30 3 1 3 4
M  V30 4 2 4 5
M  V30 5 1 4 6
M  V30 6 1 6 7
M  V30 7 2 7 8
M  V30 8 1 8 9
M  V30 9 2 9 10
M  V30 10 1 10 11
M  V30 11 1 10 12
M  V30 12 2 12 13
M  V30 13 1 2 14
M  V30 14 2 14 15
M  V30 15 1 15 16
M  V30 16 2 16 17
M  V30 17 1 17 18
M  V30 18 1 13 3
M  V30 19 1 18 14
M  V30 20 1 13 7
M  V30 21 1 1 19
M  V30 22 1 1 20
M  V30 23 1 1 21
M  V30 24 1 6 22
M  V30 25 1 8 23
M  V30 26 1 9 24
M  V30 27 1 11 25
M  V30 28 1 12 26
M  V30 29 1 15 27
M  V30 30 1 16 28
M  V30 31 1 17 29
M  V30 32 1 18 30
M  V30 END BOND
M  V30 END CTAB
M  END
>  <Dataset>  (172) 
ChEMBL_Kinases

>  <Ligand_Instance>  (172) 
nan

>  <PDB_ID>  (172) 
nan

>  <Standardized_SMILES>  (172) 
C/C(=C1/C(=O)Nc2ccc(O)cc21)c1ccc[nH]1

>  <Name>  (172) 
nan

>  <Pocket>  (172) 
nan

>  <ATP_Site>  (172) 
nan

>  <Peripheral>  (172) 
nan

>  <Num_H_Atoms_ProtBoundConf>  (172) 
nan

>  <Num_Resolved_Atoms>  (172) 
nan

>  <Num_Not_Resolved_Atoms>  (172) 
nan

$$$$
CHEMBL231800
     RDKit          3D

  0  0  0  0  0  0  0  0  0  0999 V3000
M  V30 BEGIN CTAB
M  V30 COUNTS 63 66 0 0 0
M  V30 BEGIN ATOM
M  V30 1 C 6.224530 -1.252601 3.118818 0
M  V30 2 C 5.325370 -0.251713 3.849258 0
M  V30 3 C 4.580333 -0.937036 4.944343 0
M  V30 4 N 6.122729 0.822362 4.375979 0
M  V30 5 C 4.415593 0.314486 2.788405 0
M  V30 6 C 4.716232 1.463951 2.081678 0
M  V30 7 C 3.806312 1.907136 1.112380 0
M  V30 8 C 2.621673 1.232228 0.841753 0
M  V30 9 C 1.739772 1.793387 -0.197967 0
M  V30 10 N 0.417124 1.923742 -0.025521 0
M  V30 11 C -0.448610 2.424666 -0.907433 0
M  V30 12 N -1.786948 2.425082 -0.431677 0
M  V30 13 C -2.823206 1.466429 -0.678440 0
M  V30 14 C -4.061855 1.523970 -0.050400 0
M  V30 15 C -4.990318 0.555486 -0.369544 0
M  V30 16 C -4.792931 -0.465761 -1.260170 0
M  V30 17 C -5.926422 -1.425089 -1.471405 0
M  V30 18 C -5.815410 -2.593034 -0.518955 0
M  V30 19 N -4.573394 -3.276101 -0.782570 0
M  V30 20 C -4.550863 -3.960373 -2.046598 0
M  V30 21 C -3.126980 -4.382135 -2.336135 0
M  V30 22 O -2.788226 -5.336605 -1.346591 0
M  V30 23 C -2.785803 -4.713087 -0.100322 0
M  V30 24 C -4.162531 -4.181340 0.251261 0
M  V30 25 C -3.554749 -0.528156 -1.890700 0
M  V30 26 C -2.624883 0.437550 -1.574698 0
M  V30 27 N 0.037483 2.852994 -2.111992 0
M  V30 28 C 1.364208 2.750869 -2.355696 0
M  V30 29 C 2.246273 2.219908 -1.407252 0
M  V30 30 C 3.647642 2.124327 -1.717718 0
M  V30 31 N 4.800050 2.053362 -1.955686 0
M  V30 32 C 2.315177 0.068177 1.555204 0
M  V30 33 C 3.235308 -0.334026 2.499756 0
M  V30 34 H 5.587083 -2.085077 2.715661 0
M  V30 35 H 6.666604 -0.750386 2.231935 0
M  V30 36 H 7.049028 -1.613248 3.734504 0
M  V30 37 H 4.683624 -2.032062 4.808257 0
M  V30 38 H 3.494653 -0.725669 4.903211 0
M  V30 39 H 5.019633 -0.662095 5.931662 0
M  V30 40 H 7.132676 0.596805 4.226262 0
M  V30 41 H 5.937534 0.923266 5.400680 0
M  V30 42 H 5.641869 1.988673 2.292645 0
M  V30 43 H 4.136882 2.816438 0.627557 0
M  V30 44 H -2.023163 3.245263 0.178491 0
M  V30 45 H -4.227172 2.326715 0.655187 0
M  V30 46 H -5.941310 0.641525 0.143395 0
M  V30 47 H -6.039450 -1.715694 -2.523061 0
M  V30 48 H -6.899577 -0.909789 -1.213535 0
M  V30 49 H -6.709551 -3.222227 -0.619584 0
M  V30 50 H -5.731071 -2.166537 0.499628 0
M  V30 51 H -5.018204 -3.419983 -2.885105 0
M  V30 52 H -5.127626 -4.932688 -1.984369 0
M  V30 53 H -2.485486 -3.486984 -2.233995 0
M  V30 54 H -3.036705 -4.876784 -3.327793 0
M  V30 55 H -2.043988 -3.914939 -0.023529 0
M  V30 56 H -2.532338 -5.492938 0.651473 0
M  V30 57 H -4.882159 -5.011699 0.414034 0
M  V30 58 H -4.045140 -3.607330 1.203938 0
M  V30 59 H -3.415580 -1.332767 -2.589232 0
M  V30 60 H -1.674049 0.343114 -2.095148 0
M  V30 61 H 1.704464 3.104247 -3.329013 0
M  V30 62 H 1.387683 -0.443838 1.332879 0
M  V30 63 H 2.932692 -1.238934 3.011893 0
M  V30 END ATOM
M  V30 BEGIN BOND
M  V30 1 1 1 2
M  V30 2 1 2 3
M  V30 3 1 2 4
M  V30 4 1 2 5
M  V30 5 2 5 6
M  V30 6 1 6 7
M  V30 7 2 7 8
M  V30 8 1 8 9
M  V30 9 2 9 10
M  V30 10 1 10 11
M  V30 11 1 11 12
M  V30 12 1 12 13
M  V30 13 2 13 14
M  V30 14 1 14 15
M  V30 15 2 15 16
M  V30 16 1 16 17
M  V30 17 1 17 18
M  V30 18 1 18 19
M  V30 19 1 19 20
M  V30 20 1 20 21
M  V30 21 1 21 22
M  V30 22 1 22 23
M  V30 23 1 23 24
M  V30 24 1 16 25
M  V30 25 2 25 26
M  V30 26 2 11 27
M  V30 27 1 27 28
M  V30 28 2 28 29
M  V30 29 1 29 30
M  V30 30 3 30 31
M  V30 31 1 8 32
M  V30 32 2 32 33
M  V30 33 1 33 5
M  V30 34 1 29 9
M  V30 35 1 26 13
M  V30 36 1 24 19
M  V30 37 1 1 34
M  V30 38 1 1 35
M  V30 39 1 1 36
M  V30 40 1 3 37
M  V30 41 1 3 38
M  V30 42 1 3 39
M  V30 43 1 4 40
M  V30 44 1 4 41
M  V30 45 1 6 42
M  V30 46 1 7 43
M  V30 47 1 12 44
M  V30 48 1 14 45
M  V30 49 1 15 46
M  V30 50 1 17 47
M  V30 51 1 17 48
M  V30 52 1 18 49
M  V30 53 1 18 50
M  V30 54 1 20 51
M  V30 55 1 20 52
M  V30 56 1 21 53
M  V30 57 1 21 54
M  V30 58 1 23 55
M  V30 59 1 23 56
M  V30 60 1 24 57
M  V30 61 1 24 58
M  V30 62 1 25 59
M  V30 63 1 26 60
M  V30 64 1 28 61
M  V30 65 1 32 62
M  V30 66 1 33 63
M  V30 END BOND
M  V30 END CTAB
M  END
>  <Dataset>  (173) 
ChEMBL_Kinases

>  <Ligand_Instance>  (173) 
nan

>  <PDB_ID>  (173) 
nan

>  <Standardized_SMILES>  (173) 
CC(C)(N)c1ccc(-c2nc(Nc3ccc(CCN4CCOCC4)cc3)ncc2C#N)cc1

>  <Name>  (173) 
nan

>  <Pocket>  (173) 
nan

>  <ATP_Site>  (173) 
nan

>  <Peripheral>  (173) 
nan

>  <Num_H_Atoms_ProtBoundConf>  (173) 
nan

>  <Num_Resolved_Atoms>  (173) 
nan

>  <Num_Not_Resolved_Atoms>  (173) 
nan

$$$$
CHEMBL231801
     RDKit          3D

  0  0  0  0  0  0  0  0  0  0999 V3000
M  V30 BEGIN CTAB
M  V30 COUNTS 63 66 0 0 0
M  V30 BEGIN ATOM
M  V30 1 C 4.408791 -1.856491 3.692472 0
M  V30 2 C 3.211048 -0.944205 3.979390 0
M  V30 3 C 2.073447 -1.752346 4.485921 0
M  V30 4 N 3.662643 -0.086786 5.076843 0
M  V30 5 C 2.936281 -0.142172 2.776356 0
M  V30 6 C 3.408973 1.132675 2.564463 0
M  V30 7 C 3.146662 1.854140 1.421685 0
M  V30 8 C 2.379903 1.303346 0.425530 0
M  V30 9 C 1.948899 1.805617 -0.875305 0
M  V30 10 N 0.658249 1.633320 -1.287412 0
M  V30 11 C 0.180554 2.036128 -2.455771 0
M  V30 12 N -1.199193 1.730984 -2.606867 0
M  V30 13 C -2.022212 1.339075 -1.507071 0
M  V30 14 C -1.718095 1.955741 -0.320815 0
M  V30 15 C -2.393756 1.684964 0.849304 0
M  V30 16 C -3.434263 0.747099 0.847267 0
M  V30 17 C -3.692480 0.161799 -0.372924 0
M  V30 18 C -4.798303 -0.865168 -0.444234 0
M  V30 19 C -4.257305 -2.222527 -0.073201 0
M  V30 20 N -3.215397 -2.740613 -0.847205 0
M  V30 21 C -3.428458 -3.130212 -2.181601 0
M  V30 22 C -3.895544 -4.576357 -2.181393 0
M  V30 23 O -3.765404 -5.152933 -0.934943 0
M  V30 24 C -2.503263 -4.964988 -0.375643 0
M  V30 25 C -2.187086 -3.489530 -0.222971 0
M  V30 26 C -3.042025 0.404698 -1.563048 0
M  V30 27 N 0.949412 2.664028 -3.349562 0
M  V30 28 C 2.265582 2.890376 -3.036583 0
M  V30 29 C 2.731497 2.455319 -1.805100 0
M  V30 30 C 4.097064 2.657700 -1.382036 0
M  V30 31 N 5.204332 2.841504 -1.031515 0
M  V30 32 C 1.885615 -0.001798 0.619662 0
M  V30 33 C 2.163235 -0.713463 1.784803 0
M  V30 34 H 3.974743 -2.693421 3.077527 0
M  V30 35 H 5.145552 -1.291511 3.112054 0
M  V30 36 H 4.831404 -2.269129 4.630691 0
M  V30 37 H 2.219344 -2.815485 4.136679 0
M  V30 38 H 1.080100 -1.455777 4.104198 0
M  V30 39 H 2.042959 -1.832477 5.589519 0
M  V30 40 H 4.631106 0.278575 4.904739 0
M  V30 41 H 3.788280 -0.776445 5.882391 0
M  V30 42 H 4.014447 1.606474 3.318522 0
M  V30 43 H 3.472503 2.841979 1.177595 0
M  V30 44 H -1.610621 1.800210 -3.567043 0
M  V30 45 H -0.971078 2.717978 -0.057500 0
M  V30 46 H -2.246643 2.106303 1.852716 0
M  V30 47 H -4.011994 0.477257 1.717337 0
M  V30 48 H -5.311894 -0.853222 -1.410508 0
M  V30 49 H -5.536679 -0.587484 0.332935 0
M  V30 50 H -5.136035 -2.916729 -0.139569 0
M  V30 51 H -3.955383 -2.181759 0.996816 0
M  V30 52 H -2.429218 -3.141508 -2.710360 0
M  V30 53 H -4.194997 -2.535591 -2.725149 0
M  V30 54 H -5.005760 -4.592927 -2.399218 0
M  V30 55 H -3.361470 -5.218297 -2.891441 0
M  V30 56 H -2.537134 -5.394727 0.649077 0
M  V30 57 H -1.746084 -5.455853 -1.014276 0
M  V30 58 H -2.106078 -3.197161 0.859433 0
M  V30 59 H -1.187373 -3.283381 -0.692123 0
M  V30 60 H -3.236431 -0.046357 -2.507232 0
M  V30 61 H 2.926169 3.390424 -3.709021 0
M  V30 62 H 1.259837 -0.560696 -0.096272 0
M  V30 63 H 1.783557 -1.710752 1.929279 0
M  V30 END ATOM
M  V30 BEGIN BOND
M  V30 1 1 1 2
M  V30 2 1 2 3
M  V30 3 1 2 4
M  V30 4 1 2 5
M  V30 5 2 5 6
M  V30 6 1 6 7
M  V30 7 2 7 8
M  V30 8 1 8 9
M  V30 9 2 9 10
M  V30 10 1 10 11
M  V30 11 1 11 12
M  V30 12 1 12 13
M  V30 13 2 13 14
M  V30 14 1 14 15
M  V30 15 2 15 16
M  V30 16 1 16 17
M  V30 17 1 17 18
M  V30 18 1 18 19
M  V30 19 1 19 20
M  V30 20 1 20 21
M  V30 21 1 21 22
M  V30 22 1 22 23
M  V30 23 1 23 24
M  V30 24 1 24 25
M  V30 25 2 17 26
M  V30 26 2 11 27
M  V30 27 1 27 28
M  V30 28 2 28 29
M  V30 29 1 29 30
M  V30 30 3 30 31
M  V30 31 1 8 32
M  V30 32 2 32 33
M  V30 33 1 33 5
M  V30 34 1 29 9
M  V30 35 1 26 13
M  V30 36 1 25 20
M  V30 37 1 1 34
M  V30 38 1 1 35
M  V30 39 1 1 36
M  V30 40 1 3 37
M  V30 41 1 3 38
M  V30 42 1 3 39
M  V30 43 1 4 40
M  V30 44 1 4 41
M  V30 45 1 6 42
M  V30 46 1 7 43
M  V30 47 1 12 44
M  V30 48 1 14 45
M  V30 49 1 15 46
M  V30 50 1 16 47
M  V30 51 1 18 48
M  V30 52 1 18 49
M  V30 53 1 19 50
M  V30 54 1 19 51
M  V30 55 1 21 52
M  V30 56 1 21 53
M  V30 57 1 22 54
M  V30 58 1 22 55
M  V30 59 1 24 56
M  V30 60 1 24 57
M  V30 61 1 25 58
M  V30 62 1 25 59
M  V30 63 1 26 60
M  V30 64 1 28 61
M  V30 65 1 32 62
M  V30 66 1 33 63
M  V30 END BOND
M  V30 END CTAB
M  END
>  <Dataset>  (174) 
ChEMBL_Kinases

>  <Ligand_Instance>  (174) 
nan

>  <PDB_ID>  (174) 
nan

>  <Standardized_SMILES>  (174) 
CC(C)(N)c1ccc(-c2nc(Nc3cccc(CCN4CCOCC4)c3)ncc2C#N)cc1

>  <Name>  (174) 
nan

>  <Pocket>  (174) 
nan

>  <ATP_Site>  (174) 
nan

>  <Peripheral>  (174) 
nan

>  <Num_H_Atoms_ProtBoundConf>  (174) 
nan

>  <Num_Resolved_Atoms>  (174) 
nan

>  <Num_Not_Resolved_Atoms>  (174) 
nan

$$$$
CHEMBL232176
     RDKit          3D

  0  0  0  0  0  0  0  0  0  0999 V3000
M  V30 BEGIN CTAB
M  V30 COUNTS 38 40 0 0 0
M  V30 BEGIN ATOM
M  V30 1 C -0.836614 -3.370766 0.082778 0
M  V30 2 C -1.102573 -1.824188 0.158955 0
M  V30 3 C -0.542141 -1.436470 1.444461 0
M  V30 4 C 0.334546 -0.585721 1.838284 0
M  V30 5 C 0.826754 -0.273157 3.161548 0
M  V30 6 O 0.495994 -0.775669 4.237016 0
M  V30 7 N 1.797612 0.752948 3.049107 0
M  V30 8 C 1.888319 1.057698 1.664459 0
M  V30 9 C 2.687984 1.995574 1.052409 0
M  V30 10 C 2.637796 2.163514 -0.299493 0
M  V30 11 C 1.770915 1.382298 -1.079354 0
M  V30 12 N 1.851689 1.694590 -2.468161 0
M  V30 13 C 0.898800 2.727822 -2.800732 0
M  V30 14 N 0.707902 3.277746 -4.083237 0
M  V30 15 O 0.150100 3.207876 -1.886684 0
M  V30 16 C 0.996438 0.461295 -0.411538 0
M  V30 17 C 1.036586 0.283093 0.934031 0
M  V30 18 C -1.164963 -2.315795 2.454066 0
M  V30 19 C -2.504592 -2.570960 2.720380 0
M  V30 20 C -2.622869 -3.522622 3.740665 0
M  V30 21 C -1.318655 -3.823564 4.069944 0
M  V30 22 N -0.478832 -3.088748 3.285728 0
M  V30 23 H -1.567511 -3.827276 0.797331 0
M  V30 24 H -1.146861 -3.660294 -0.933706 0
M  V30 25 H 0.214103 -3.578527 0.332907 0
M  V30 26 H -2.232096 -1.795946 0.163522 0
M  V30 27 H -0.670634 -1.482888 -0.741047 0
M  V30 28 H 2.328170 1.184433 3.840989 0
M  V30 29 H 3.355066 2.597834 1.649891 0
M  V30 30 H 3.292431 2.917022 -0.714018 0
M  V30 31 H 2.429311 1.358387 -3.291981 0
M  V30 32 H 0.019823 2.776065 -4.708797 0
M  V30 33 H 1.052944 4.080802 -4.655057 0
M  V30 34 H 0.429109 0.006257 -1.178916 0
M  V30 35 H -3.308958 -2.078797 2.187741 0
M  V30 36 H -3.571331 -3.883992 4.123934 0
M  V30 37 H -1.176281 -4.560424 4.861483 0
M  V30 38 H 0.517236 -3.290584 3.483274 0
M  V30 END ATOM
M  V30 BEGIN BOND
M  V30 1 1 1 2
M  V30 2 1 2 3
M  V30 3 2 3 4
M  V30 4 1 4 5
M  V30 5 2 5 6
M  V30 6 1 5 7
M  V30 7 1 7 8
M  V30 8 2 8 9
M  V30 9 1 9 10
M  V30 10 2 10 11
M  V30 11 1 11 12
M  V30 12 1 12 13
M  V30 13 1 13 14
M  V30 14 2 13 15
M  V30 15 1 11 16
M  V30 16 2 16 17
M  V30 17 1 3 18
M  V30 18 2 18 19
M  V30 19 1 19 20
M  V30 20 2 20 21
M  V30 21 1 21 22
M  V30 22 1 17 4
M  V30 23 1 22 18
M  V30 24 1 17 8
M  V30 25 1 1 23
M  V30 26 1 1 24
M  V30 27 1 1 25
M  V30 28 1 2 26
M  V30 29 1 2 27
M  V30 30 1 7 28
M  V30 31 1 9 29
M  V30 32 1 10 30
M  V30 33 1 12 31
M  V30 34 1 14 32
M  V30 35 1 14 33
M  V30 36 1 16 34
M  V30 37 1 19 35
M  V30 38 1 20 36
M  V30 39 1 21 37
M  V30 40 1 22 38
M  V30 END BOND
M  V30 END CTAB
M  END
>  <Dataset>  (175) 
ChEMBL_Kinases

>  <Ligand_Instance>  (175) 
nan

>  <PDB_ID>  (175) 
nan

>  <Standardized_SMILES>  (175) 
CC/C(=C1/C(=O)Nc2ccc(NC(N)=O)cc21)c1ccc[nH]1

>  <Name>  (175) 
nan

>  <Pocket>  (175) 
nan

>  <ATP_Site>  (175) 
nan

>  <Peripheral>  (175) 
nan

>  <Num_H_Atoms_ProtBoundConf>  (175) 
nan

>  <Num_Resolved_Atoms>  (175) 
nan

>  <Num_Not_Resolved_Atoms>  (175) 
nan

$$$$
CHEMBL231884
     RDKit          3D

  0  0  0  0  0  0  0  0  0  0999 V3000
M  V30 BEGIN CTAB
M  V30 COUNTS 75 79 0 0 0
M  V30 BEGIN ATOM
M  V30 1 C -2.145470 0.869466 8.148134 0
M  V30 2 O -0.982365 1.641626 7.947198 0
M  V30 3 C -0.441886 1.802964 6.683404 0
M  V30 4 C -0.927434 1.279765 5.518234 0
M  V30 5 C -0.315261 1.491222 4.291323 0
M  V30 6 C 0.818287 2.243392 4.187167 0
M  V30 7 C 1.523782 2.486285 2.920086 0
M  V30 8 C 2.688378 3.201398 2.798226 0
M  V30 9 C 3.293211 3.373006 1.553477 0
M  V30 10 O 4.373695 4.041511 1.482278 0
M  V30 11 C 2.744018 2.836573 0.422409 0
M  V30 12 C 3.365635 3.014785 -0.783108 0
M  V30 13 O 4.560939 3.741316 -0.922160 0
M  V30 14 C 2.722629 2.410541 -1.901236 0
M  V30 15 C 1.521645 1.693817 -1.697979 0
M  V30 16 O 1.181101 1.246042 -2.957228 0
M  V30 17 C -0.004259 0.652670 -3.374144 0 CFG=2
M  V30 18 O -0.386225 -0.460923 -2.582460 0
M  V30 19 C -1.418941 -1.065858 -3.234556 0 CFG=2
M  V30 20 C -2.513568 -1.681652 -2.423002 0
M  V30 21 O -2.172791 -2.522557 -1.520895 0
M  V30 22 C -1.548173 -3.670847 -1.420158 0 CFG=2
M  V30 23 O -2.511283 -4.650976 -1.106020 0
M  V30 24 C -2.082326 -5.752767 -0.455694 0 CFG=1
M  V30 25 C -1.170464 -6.688238 -1.171185 0
M  V30 26 C -1.610352 -5.358478 0.929591 0 CFG=2
M  V30 27 O -2.785554 -5.105536 1.678873 0
M  V30 28 C -0.740109 -4.146147 0.915479 0 CFG=1
M  V30 29 O 0.415081 -4.428906 1.642429 0
M  V30 30 C -0.373556 -3.695305 -0.473779 0 CFG=1
M  V30 31 O 0.694989 -4.445649 -0.921320 0
M  V30 32 C -0.912892 -1.872511 -4.397503 0 CFG=1
M  V30 33 O -1.952894 -2.304360 -5.235299 0
M  V30 34 C 0.085032 -1.017026 -5.199167 0 CFG=2
M  V30 35 O 1.374665 -1.469057 -4.913742 0
M  V30 36 C -0.013765 0.430681 -4.840807 0 CFG=1
M  V30 37 O -1.137048 1.011564 -5.439289 0
M  V30 38 C 0.961568 1.565091 -0.445316 0
M  V30 39 C 1.592014 2.144944 0.620698 0
M  V30 40 O 0.998015 1.969723 1.805152 0
M  V30 41 C 1.327264 2.782105 5.343482 0
M  V30 42 C 0.727367 2.585120 6.605793 0
M  V30 43 O 1.268396 3.147371 7.771645 0
M  V30 44 H -2.029707 -0.074629 7.566192 0
M  V30 45 H -3.052020 1.410348 7.764767 0
M  V30 46 H -2.247921 0.591715 9.205649 0
M  V30 47 H -1.843569 0.665452 5.592892 0
M  V30 48 H -0.751751 1.051880 3.415754 0
M  V30 49 H 3.150937 3.641411 3.668469 0
M  V30 50 H 4.789577 4.230438 -1.768625 0
M  V30 51 H 3.294459 2.608299 -2.810613 0
M  V30 52 H -0.836422 1.388113 -3.068291 0
M  V30 53 H -1.930976 -0.153205 -3.793078 0
M  V30 54 H -3.143546 -2.240243 -3.230177 0
M  V30 55 H -3.282684 -0.893523 -2.128810 0
M  V30 56 H -1.181367 -4.008646 -2.408536 0
M  V30 57 H -3.023536 -6.365832 -0.251494 0
M  V30 58 H -0.299498 -6.960595 -0.532149 0
M  V30 59 H -0.779452 -6.363902 -2.143371 0
M  V30 60 H -1.667870 -7.682663 -1.395101 0
M  V30 61 H -1.156110 -6.264567 1.374494 0
M  V30 62 H -3.596505 -5.076155 1.108414 0
M  V30 63 H -1.246486 -3.321590 1.504181 0
M  V30 64 H 0.179388 -4.500991 2.604651 0
M  V30 65 H 0.046382 -2.653087 -0.351549 0
M  V30 66 H 1.354594 -4.473597 -0.165678 0
M  V30 67 H -0.343777 -2.776222 -4.128883 0
M  V30 68 H -1.757334 -2.102047 -6.205820 0
M  V30 69 H -0.123568 -1.243808 -6.271741 0
M  V30 70 H 2.007702 -0.717802 -5.135098 0
M  V30 71 H 0.919060 0.896859 -5.316750 0
M  V30 72 H -0.859641 1.778767 -5.998326 0
M  V30 73 H 0.068027 0.996607 -0.480947 0
M  V30 74 H 2.207572 3.399704 5.412733 0
M  V30 75 H 2.201065 2.806208 8.018658 0
M  V30 END ATOM
M  V30 BEGIN BOND
M  V30 1 1 1 2
M  V30 2 1 2 3
M  V30 3 2 3 4
M  V30 4 1 4 5
M  V30 5 2 5 6
M  V30 6 1 6 7
M  V30 7 2 7 8
M  V30 8 1 8 9
M  V30 9 2 9 10
M  V30 10 1 9 11
M  V30 11 2 11 12
M  V30 12 1 12 13
M  V30 13 1 12 14
M  V30 14 2 14 15
M  V30 15 1 15 16
M  V30 16 1 16 17
M  V30 17 1 17 18
M  V30 18 1 18 19
M  V30 19 1 19 20
M  V30 20 1 20 21
M  V30 21 1 21 22
M  V30 22 1 22 23
M  V30 23 1 23 24
M  V30 24 1 24 25
M  V30 25 1 24 26
M  V30 26 1 26 27
M  V30 27 1 26 28
M  V30 28 1 28 29
M  V30 29 1 28 30
M  V30 30 1 30 31
M  V30 31 1 19 32
M  V30 32 1 32 33
M  V30 33 1 32 34
M  V30 34 1 34 35
M  V30 35 1 34 36
M  V30 36 1 36 37
M  V30 37 1 15 38
M  V30 38 2 38 39
M  V30 39 1 39 40
M  V30 40 1 6 41
M  V30 41 2 41 42
M  V30 42 1 42 43
M  V30 43 1 42 3
M  V30 44 1 40 7
M  V30 45 1 39 11
M  V30 46 1 36 17
M  V30 47 1 30 22
M  V30 48 1 1 44
M  V30 49 1 1 45
M  V30 50 1 1 46
M  V30 51 1 4 47
M  V30 52 1 5 48
M  V30 53 1 8 49
M  V30 54 1 13 50
M  V30 55 1 14 51
M  V30 56 1 17 52 CFG=3
M  V30 57 1 19 53 CFG=3
M  V30 58 1 20 54
M  V30 59 1 20 55
M  V30 60 1 22 56 CFG=3
M  V30 61 1 24 57 CFG=1
M  V30 62 1 25 58
M  V30 63 1 25 59
M  V30 64 1 25 60
M  V30 65 1 26 61 CFG=1
M  V30 66 1 27 62
M  V30 67 1 28 63 CFG=1
M  V30 68 1 29 64
M  V30 69 1 30 65 CFG=1
M  V30 70 1 31 66
M  V30 71 1 32 67 CFG=1
M  V30 72 1 33 68
M  V30 73 1 34 69 CFG=3
M  V30 74 1 35 70
M  V30 75 1 36 71 CFG=3
M  V30 76 1 37 72
M  V30 77 1 38 73
M  V30 78 1 41 74
M  V30 79 1 43 75
M  V30 END BOND
M  V30 END CTAB
M  END
>  <Dataset>  (176) 
ChEMBL_Kinases

>  <Ligand_Instance>  (176) 
nan

>  <PDB_ID>  (176) 
nan

>  <Standardized_SMILES>  (176) 
COc1ccc(-c2cc(=O)c3c(O)cc(O[C@@H]4O[C@H](CO[C@@H]5O[C@@H](C)[C@H](O)[C@@H](O)[C@H]5O)[C@@H](O)[C@H](O)[C@H]4O)cc3o2)cc1O

>  <Name>  (176) 
DIOSMIN

>  <Pocket>  (176) 
nan

>  <ATP_Site>  (176) 
nan

>  <Peripheral>  (176) 
nan

>  <Num_H_Atoms_ProtBoundConf>  (176) 
nan

>  <Num_Resolved_Atoms>  (176) 
nan

>  <Num_Not_Resolved_Atoms>  (176) 
nan

$$$$
CHEMBL231947
     RDKit          3D

  0  0  0  0  0  0  0  0  0  0999 V3000
M  V30 BEGIN CTAB
M  V30 COUNTS 32 34 0 0 0
M  V30 BEGIN ATOM
M  V30 1 C 3.517667 2.362846 -2.288083 0
M  V30 2 O 2.742460 1.347412 -1.717076 0
M  V30 3 C 3.079075 0.022660 -1.576483 0
M  V30 4 O 4.213261 0.054013 -2.092833 0
M  V30 5 C 2.198284 -0.963549 -0.962421 0
M  V30 6 C 2.609775 -2.275629 -0.868629 0
M  V30 7 C 1.777765 -3.234820 -0.276761 0
M  V30 8 C 0.563429 -2.770311 0.183181 0
M  V30 9 C 0.174709 -1.451891 0.077303 0
M  V30 10 C 0.990352 -0.502117 -0.504923 0
M  V30 11 C -1.153500 -1.334688 0.669725 0
M  V30 12 C -1.954028 -0.298151 0.789273 0
M  V30 13 C -3.256236 -0.190405 1.376377 0
M  V30 14 C -3.920579 -0.556900 2.534862 0
M  V30 15 C -5.248103 -0.169095 2.492869 0
M  V30 16 C -5.414983 0.455710 1.277803 0
M  V30 17 N -4.232476 0.423526 0.657156 0
M  V30 18 C -1.542293 -2.658641 1.137435 0
M  V30 19 O -2.602251 -3.008857 1.703808 0
M  V30 20 N -0.467243 -3.534754 0.828058 0
M  V30 21 H 3.012492 2.620694 -3.265334 0
M  V30 22 H 4.547426 2.114472 -2.531557 0
M  V30 23 H 3.475502 3.314451 -1.709674 0
M  V30 24 H 3.572800 -2.578494 -1.247850 0
M  V30 25 H 2.049248 -4.261142 -0.180022 0
M  V30 26 H 0.661114 0.512386 -0.573290 0
M  V30 27 H -1.499938 0.610503 0.352100 0
M  V30 28 H -3.391616 -1.065454 3.326411 0
M  V30 29 H -5.921374 -0.383360 3.334710 0
M  V30 30 H -6.387016 0.844993 1.027239 0
M  V30 31 H -4.220195 0.874083 -0.295038 0
M  V30 32 H -0.460951 -4.560572 1.048003 0
M  V30 END ATOM
M  V30 BEGIN BOND
M  V30 1 1 1 2
M  V30 2 1 2 3
M  V30 3 2 3 4
M  V30 4 1 3 5
M  V30 5 2 5 6
M  V30 6 1 6 7
M  V30 7 2 7 8
M  V30 8 1 8 9
M  V30 9 2 9 10
M  V30 10 1 9 11
M  V30 11 2 11 12
M  V30 12 1 12 13
M  V30 13 2 13 14
M  V30 14 1 14 15
M  V30 15 2 15 16
M  V30 16 1 16 17
M  V30 17 1 11 18
M  V30 18 2 18 19
M  V30 19 1 18 20
M  V30 20 1 10 5
M  V30 21 1 17 13
M  V30 22 1 20 8
M  V30 23 1 1 21
M  V30 24 1 1 22
M  V30 25 1 1 23
M  V30 26 1 6 24
M  V30 27 1 7 25
M  V30 28 1 10 26
M  V30 29 1 12 27
M  V30 30 1 14 28
M  V30 31 1 15 29
M  V30 32 1 16 30
M  V30 33 1 17 31
M  V30 34 1 20 32
M  V30 END BOND
M  V30 END CTAB
M  END
>  <Dataset>  (177) 
ChEMBL_Kinases

>  <Ligand_Instance>  (177) 
nan

>  <PDB_ID>  (177) 
nan

>  <Standardized_SMILES>  (177) 
COC(=O)c1ccc2c(c1)/C(=C/c1ccc[nH]1)C(=O)N2

>  <Name>  (177) 
nan

>  <Pocket>  (177) 
nan

>  <ATP_Site>  (177) 
nan

>  <Peripheral>  (177) 
nan

>  <Num_H_Atoms_ProtBoundConf>  (177) 
nan

>  <Num_Resolved_Atoms>  (177) 
nan

>  <Num_Not_Resolved_Atoms>  (177) 
nan

$$$$
CHEMBL231979
     RDKit          3D

  0  0  0  0  0  0  0  0  0  0999 V3000
M  V30 BEGIN CTAB
M  V30 COUNTS 47 49 0 0 0
M  V30 BEGIN ATOM
M  V30 1 C 0.665357 -4.108532 -0.430093 0
M  V30 2 C -0.302910 -3.706604 0.717457 0
M  V30 3 N 0.329184 -2.634128 1.426165 0
M  V30 4 C 1.107516 -3.310130 2.473878 0
M  V30 5 C 0.224228 -3.543926 3.682787 0
M  V30 6 C 0.135232 -1.251623 1.120600 0
M  V30 7 O 1.035221 -1.159542 1.938917 0
M  V30 8 C -0.777185 -0.652182 0.221244 0
M  V30 9 C -0.800888 0.626038 -0.021866 0
M  V30 10 C -1.683383 1.372844 -0.916590 0
M  V30 11 O -2.610257 0.898320 -1.614660 0
M  V30 12 N -1.360126 2.755732 -0.905789 0
M  V30 13 C -0.282688 2.930915 -0.021988 0
M  V30 14 C 0.370176 4.099375 0.302277 0
M  V30 15 C 1.416349 4.046114 1.194507 0
M  V30 16 C 1.783145 2.810036 1.743176 0
M  V30 17 S 3.131841 2.910919 2.858656 0
M  V30 18 N 4.633680 2.721603 2.051367 0
M  V30 19 O 3.151504 4.251234 3.553208 0
M  V30 20 O 3.067650 1.876847 3.940095 0
M  V30 21 C 1.075465 1.692337 1.362834 0
M  V30 22 C 0.036888 1.693639 0.487227 0
M  V30 23 C -1.814504 -1.334307 -0.531080 0
M  V30 24 C -1.873804 -1.726926 -1.851337 0
M  V30 25 C -3.149337 -2.253752 -1.956196 0
M  V30 26 C -3.813055 -2.176816 -0.756805 0
M  V30 27 N -2.981591 -1.599806 0.144567 0
M  V30 28 H 1.505641 -4.685499 -0.029069 0
M  V30 29 H 1.018687 -3.241725 -0.983363 0
M  V30 30 H 0.099826 -4.816943 -1.079316 0
M  V30 31 H -0.313613 -4.623837 1.349776 0
M  V30 32 H -1.269741 -3.526181 0.270524 0
M  V30 33 H 1.657276 -4.183154 2.132789 0
M  V30 34 H 1.881944 -2.582181 2.820935 0
M  V30 35 H 0.057909 -4.620462 3.748262 0
M  V30 36 H -0.733580 -2.984602 3.534644 0
M  V30 37 H 0.653257 -3.179231 4.630429 0
M  V30 38 H -1.849560 3.487632 -1.460918 0
M  V30 39 H 0.073079 5.038619 -0.129414 0
M  V30 40 H 1.897071 4.965770 1.422776 0
M  V30 41 H 5.363853 3.367848 2.463132 0
M  V30 42 H 5.040873 1.748361 2.202861 0
M  V30 43 H 1.508485 0.892325 1.875712 0
M  V30 44 H -1.066248 -1.609373 -2.559164 0
M  V30 45 H -3.549060 -2.665271 -2.875749 0
M  V30 46 H -4.828673 -2.516222 -0.552185 0
M  V30 47 H -3.271048 -1.437824 1.126378 0
M  V30 END ATOM
M  V30 BEGIN BOND
M  V30 1 1 1 2
M  V30 2 1 2 3
M  V30 3 1 3 4
M  V30 4 1 4 5
M  V30 5 1 3 6
M  V30 6 2 6 7
M  V30 7 1 6 8
M  V30 8 2 8 9
M  V30 9 1 9 10
M  V30 10 2 10 11
M  V30 11 1 10 12
M  V30 12 1 12 13
M  V30 13 2 13 14
M  V30 14 1 14 15
M  V30 15 2 15 16
M  V30 16 1 16 17
M  V30 17 1 17 18
M  V30 18 2 17 19
M  V30 19 2 17 20
M  V30 20 1 16 21
M  V30 21 2 21 22
M  V30 22 1 8 23
M  V30 23 2 23 24
M  V30 24 1 24 25
M  V30 25 2 25 26
M  V30 26 1 26 27
M  V30 27 1 22 9
M  V30 28 1 27 23
M  V30 29 1 22 13
M  V30 30 1 1 28
M  V30 31 1 1 29
M  V30 32 1 1 30
M  V30 33 1 2 31
M  V30 34 1 2 32
M  V30 35 1 4 33
M  V30 36 1 4 34
M  V30 37 1 5 35
M  V30 38 1 5 36
M  V30 39 1 5 37
M  V30 40 1 12 38
M  V30 41 1 14 39
M  V30 42 1 15 40
M  V30 43 1 18 41
M  V30 44 1 18 42
M  V30 45 1 21 43
M  V30 46 1 24 44
M  V30 47 1 25 45
M  V30 48 1 26 46
M  V30 49 1 27 47
M  V30 END BOND
M  V30 END CTAB
M  END
>  <Dataset>  (178) 
ChEMBL_Kinases

>  <Ligand_Instance>  (178) 
nan

>  <PDB_ID>  (178) 
nan

>  <Standardized_SMILES>  (178) 
CCN(CC)C(=O)/C(=C1/C(=O)Nc2ccc(S(N)(=O)=O)cc21)c1ccc[nH]1

>  <Name>  (178) 
nan

>  <Pocket>  (178) 
nan

>  <ATP_Site>  (178) 
nan

>  <Peripheral>  (178) 
nan

>  <Num_H_Atoms_ProtBoundConf>  (178) 
nan

>  <Num_Resolved_Atoms>  (178) 
nan

>  <Num_Not_Resolved_Atoms>  (178) 
nan

$$$$
CHEMBL232134
     RDKit          3D

  0  0  0  0  0  0  0  0  0  0999 V3000
M  V30 BEGIN CTAB
M  V30 COUNTS 30 32 0 0 0
M  V30 BEGIN ATOM
M  V30 1 C -2.477087 -2.750522 2.237017 0
M  V30 2 C -1.174229 -3.400829 1.896928 0
M  V30 3 C -0.759146 -4.739838 1.870539 0
M  V30 4 C 0.569930 -4.728086 1.469088 0
M  V30 5 N 0.946089 -3.452420 1.262110 0
M  V30 6 C -0.095887 -2.624506 1.514694 0
M  V30 7 C 0.092258 -1.179516 1.407266 0
M  V30 8 C 0.556467 -0.581910 0.326472 0
M  V30 9 C 0.962268 -1.138296 -0.929534 0
M  V30 10 O 0.914458 -2.349969 -1.220982 0
M  V30 11 N 1.403871 -0.062718 -1.728181 0
M  V30 12 C 1.285349 1.158387 -1.005520 0
M  V30 13 C 1.597300 2.479226 -1.372836 0
M  V30 14 C 1.336659 3.382842 -0.371656 0
M  V30 15 C 0.835041 3.214328 0.893238 0
M  V30 16 O 0.625987 4.238152 1.801380 0
M  V30 17 C 0.544624 1.876724 1.195591 0
M  V30 18 C 0.772874 0.880190 0.249038 0
M  V30 19 H -2.922964 -2.362623 1.298049 0
M  V30 20 H -3.137447 -3.488587 2.733323 0
M  V30 21 H -2.348481 -1.900638 2.937649 0
M  V30 22 H -1.518415 -5.472482 2.152860 0
M  V30 23 H 1.026409 -5.714611 1.404980 0
M  V30 24 H 1.962661 -3.404952 0.966325 0
M  V30 25 H -0.192616 -0.631540 2.318317 0
M  V30 26 H 1.759485 -0.183573 -2.708012 0
M  V30 27 H 1.996123 2.754383 -2.327272 0
M  V30 28 H 1.575287 4.427465 -0.641311 0
M  V30 29 H 0.924332 4.110375 2.783846 0
M  V30 30 H 0.141675 1.628406 2.169499 0
M  V30 END ATOM
M  V30 BEGIN BOND
M  V30 1 1 1 2
M  V30 2 1 2 3
M  V30 3 2 3 4
M  V30 4 1 4 5
M  V30 5 1 5 6
M  V30 6 1 6 7
M  V30 7 2 7 8
M  V30 8 1 8 9
M  V30 9 2 9 10
M  V30 10 1 9 11
M  V30 11 1 11 12
M  V30 12 2 12 13
M  V30 13 1 13 14
M  V30 14 2 14 15
M  V30 15 1 15 16
M  V30 16 1 15 17
M  V30 17 2 17 18
M  V30 18 2 6 2
M  V30 19 1 18 8
M  V30 20 1 18 12
M  V30 21 1 1 19
M  V30 22 1 1 20
M  V30 23 1 1 21
M  V30 24 1 3 22
M  V30 25 1 4 23
M  V30 26 1 5 24
M  V30 27 1 7 25
M  V30 28 1 11 26
M  V30 29 1 13 27
M  V30 30 1 14 28
M  V30 31 1 16 29
M  V30 32 1 17 30
M  V30 END BOND
M  V30 END CTAB
M  END
>  <Dataset>  (179) 
ChEMBL_Kinases

>  <Ligand_Instance>  (179) 
nan

>  <PDB_ID>  (179) 
nan

>  <Standardized_SMILES>  (179) 
Cc1cc[nH]c1/C=C1\C(=O)Nc2ccc(O)cc21

>  <Name>  (179) 
nan

>  <Pocket>  (179) 
nan

>  <ATP_Site>  (179) 
nan

>  <Peripheral>  (179) 
nan

>  <Num_H_Atoms_ProtBoundConf>  (179) 
nan

>  <Num_Resolved_Atoms>  (179) 
nan

>  <Num_Not_Resolved_Atoms>  (179) 
nan

$$$$
CHEMBL232135
     RDKit          3D

  0  0  0  0  0  0  0  0  0  0999 V3000
M  V30 BEGIN CTAB
M  V30 COUNTS 30 32 0 0 0
M  V30 BEGIN ATOM
M  V30 1 C -2.352088 -4.774110 2.115964 0
M  V30 2 C -1.072199 -4.017821 2.060336 0
M  V30 3 C 0.213699 -4.447078 2.309498 0
M  V30 4 N 1.112740 -3.458462 2.155368 0
M  V30 5 C 0.438503 -2.351320 1.799086 0
M  V30 6 C 0.881787 -0.984029 1.549566 0
M  V30 7 C 0.565711 -0.383748 0.416492 0
M  V30 8 C -0.178800 -0.812030 -0.733589 0
M  V30 9 O -0.675327 -1.935818 -0.883653 0
M  V30 10 N -0.222218 0.289972 -1.640018 0
M  V30 11 C 0.487077 1.401172 -1.071633 0
M  V30 12 C 0.682306 2.654551 -1.619640 0
M  V30 13 C 1.412281 3.499628 -0.809233 0
M  V30 14 C 1.935495 3.217655 0.433387 0
M  V30 15 O 2.654388 4.172720 1.140004 0
M  V30 16 C 1.683763 1.936797 0.891158 0
M  V30 17 C 0.966230 0.996162 0.175942 0
M  V30 18 C -0.913592 -2.663259 1.732677 0
M  V30 19 H -3.122075 -4.157701 1.567108 0
M  V30 20 H -2.702180 -4.847025 3.187097 0
M  V30 21 H -2.316241 -5.761761 1.641025 0
M  V30 22 H 0.487406 -5.452255 2.593997 0
M  V30 23 H 2.145833 -3.415148 2.256989 0
M  V30 24 H 1.469521 -0.523907 2.343118 0
M  V30 25 H -0.732510 0.191784 -2.567478 0
M  V30 26 H 0.287591 2.913036 -2.589701 0
M  V30 27 H 1.595896 4.513149 -1.205098 0
M  V30 28 H 2.185102 4.565931 1.954998 0
M  V30 29 H 2.086484 1.679503 1.879192 0
M  V30 30 H -1.801707 -2.063732 1.499946 0
M  V30 END ATOM
M  V30 BEGIN BOND
M  V30 1 1 1 2
M  V30 2 2 2 3
M  V30 3 1 3 4
M  V30 4 1 4 5
M  V30 5 1 5 6
M  V30 6 2 6 7
M  V30 7 1 7 8
M  V30 8 2 8 9
M  V30 9 1 8 10
M  V30 10 1 10 11
M  V30 11 2 11 12
M  V30 12 1 12 13
M  V30 13 2 13 14
M  V30 14 1 14 15
M  V30 15 1 14 16
M  V30 16 2 16 17
M  V30 17 2 5 18
M  V30 18 1 18 2
M  V30 19 1 17 7
M  V30 20 1 17 11
M  V30 21 1 1 19
M  V30 22 1 1 20
M  V30 23 1 1 21
M  V30 24 1 3 22
M  V30 25 1 4 23
M  V30 26 1 6 24
M  V30 27 1 10 25
M  V30 28 1 12 26
M  V30 29 1 13 27
M  V30 30 1 15 28
M  V30 31 1 16 29
M  V30 32 1 18 30
M  V30 END BOND
M  V30 END CTAB
M  END
>  <Dataset>  (180) 
ChEMBL_Kinases

>  <Ligand_Instance>  (180) 
nan

>  <PDB_ID>  (180) 
nan

>  <Standardized_SMILES>  (180) 
Cc1c[nH]c(/C=C2\C(=O)Nc3ccc(O)cc32)c1

>  <Name>  (180) 
nan

>  <Pocket>  (180) 
nan

>  <ATP_Site>  (180) 
nan

>  <Peripheral>  (180) 
nan

>  <Num_H_Atoms_ProtBoundConf>  (180) 
nan

>  <Num_Resolved_Atoms>  (180) 
nan

>  <Num_Not_Resolved_Atoms>  (180) 
nan

$$$$
CHEMBL232136
     RDKit          3D

  0  0  0  0  0  0  0  0  0  0999 V3000
M  V30 BEGIN CTAB
M  V30 COUNTS 30 32 0 0 0
M  V30 BEGIN ATOM
M  V30 1 C -2.258586 -4.680001 2.258946 0
M  V30 2 C -1.020734 -3.872540 2.097145 0
M  V30 3 C 0.230089 -4.485717 2.240890 0
M  V30 4 C 1.216069 -3.540543 2.041932 0
M  V30 5 C 0.559513 -2.358723 1.777740 0
M  V30 6 C 0.983017 -0.985342 1.529628 0
M  V30 7 C 0.579236 -0.361740 0.432812 0
M  V30 8 C -0.262844 -0.857004 -0.629080 0
M  V30 9 O -0.781181 -1.972870 -0.773551 0
M  V30 10 N -0.401000 0.222862 -1.541513 0
M  V30 11 C 0.329197 1.364648 -1.074841 0
M  V30 12 C 0.478666 2.616719 -1.624071 0
M  V30 13 C 1.256489 3.520508 -0.924145 0
M  V30 14 C 1.878836 3.237059 0.274381 0
M  V30 15 O 2.658783 4.138883 0.982778 0
M  V30 16 C 1.707647 1.966408 0.800110 0
M  V30 17 C 0.935289 1.015012 0.138085 0
M  V30 18 N -0.765422 -2.560912 1.813599 0
M  V30 19 H -3.114219 -3.977457 2.029963 0
M  V30 20 H -2.401553 -4.949988 3.323835 0
M  V30 21 H -2.257977 -5.575204 1.635040 0
M  V30 22 H 0.585844 -5.494027 2.462255 0
M  V30 23 H 2.295874 -3.473638 2.034285 0
M  V30 24 H 1.619274 -0.576853 2.299052 0
M  V30 25 H -0.958273 0.176325 -2.421827 0
M  V30 26 H -0.010867 2.815398 -2.551211 0
M  V30 27 H 1.375297 4.505618 -1.351073 0
M  V30 28 H 2.258098 4.465021 1.865852 0
M  V30 29 H 2.164812 1.682588 1.729981 0
M  V30 30 H -1.676498 -2.021632 1.705908 0
M  V30 END ATOM
M  V30 BEGIN BOND
M  V30 1 1 1 2
M  V30 2 2 2 3
M  V30 3 1 3 4
M  V30 4 2 4 5
M  V30 5 1 5 6
M  V30 6 2 6 7
M  V30 7 1 7 8
M  V30 8 2 8 9
M  V30 9 1 8 10
M  V30 10 1 10 11
M  V30 11 2 11 12
M  V30 12 1 12 13
M  V30 13 2 13 14
M  V30 14 1 14 15
M  V30 15 1 14 16
M  V30 16 2 16 17
M  V30 17 1 5 18
M  V30 18 1 18 2
M  V30 19 1 17 7
M  V30 20 1 17 11
M  V30 21 1 1 19
M  V30 22 1 1 20
M  V30 23 1 1 21
M  V30 24 1 3 22
M  V30 25 1 4 23
M  V30 26 1 6 24
M  V30 27 1 10 25
M  V30 28 1 12 26
M  V30 29 1 13 27
M  V30 30 1 15 28
M  V30 31 1 16 29
M  V30 32 1 18 30
M  V30 END BOND
M  V30 END CTAB
M  END
>  <Dataset>  (181) 
ChEMBL_Kinases

>  <Ligand_Instance>  (181) 
nan

>  <PDB_ID>  (181) 
nan

>  <Standardized_SMILES>  (181) 
Cc1ccc(/C=C2\C(=O)Nc3ccc(O)cc32)[nH]1

>  <Name>  (181) 
nan

>  <Pocket>  (181) 
nan

>  <ATP_Site>  (181) 
nan

>  <Peripheral>  (181) 
nan

>  <Num_H_Atoms_ProtBoundConf>  (181) 
nan

>  <Num_Resolved_Atoms>  (181) 
nan

>  <Num_Not_Resolved_Atoms>  (181) 
nan

$$$$
CHEMBL232143
     RDKit          3D

  0  0  0  0  0  0  0  0  0  0999 V3000
M  V30 BEGIN CTAB
M  V30 COUNTS 31 34 0 0 0
M  V30 BEGIN ATOM
M  V30 1 O -0.812565 -2.087873 3.627494 0
M  V30 2 C 0.046593 -1.595772 2.858962 0
M  V30 3 N 1.448999 -1.461641 2.975592 0
M  V30 4 C 1.993081 -0.822897 1.829372 0
M  V30 5 C 3.299897 -0.504023 1.539952 0
M  V30 6 C 3.588485 0.125847 0.333100 0
M  V30 7 C 2.548155 0.406106 -0.527328 0
M  V30 8 N 2.897598 1.048796 -1.748412 0
M  V30 9 N 2.585022 0.309696 -2.826203 0
M  V30 10 C 2.937349 0.960665 -3.933138 0
M  V30 11 N 3.473007 2.112491 -3.552243 0
M  V30 12 N 3.442476 2.153226 -2.227309 0
M  V30 13 C 1.273694 0.069418 -0.191440 0
M  V30 14 C 0.921526 -0.555543 0.986720 0
M  V30 15 C -0.339708 -1.030311 1.599599 0
M  V30 16 C -1.459759 -0.878057 0.916930 0
M  V30 17 C -2.695683 -1.384713 1.498782 0
M  V30 18 C -2.924866 -2.677840 1.982416 0
M  V30 19 C -4.189597 -2.792913 2.483320 0
M  V30 20 C -4.755956 -1.528560 2.300233 0
M  V30 21 N -3.855540 -0.702217 1.713188 0
M  V30 22 H 1.889445 -1.838607 3.863867 0
M  V30 23 H 4.074385 -0.754672 2.265095 0
M  V30 24 H 4.636093 0.349426 0.167177 0
M  V30 25 H 2.850948 0.693171 -4.998528 0
M  V30 26 H 0.510070 0.312611 -0.899981 0
M  V30 27 H -1.534716 -0.402484 -0.048424 0
M  V30 28 H -2.294464 -3.561941 2.008310 0
M  V30 29 H -4.727455 -3.610706 2.936131 0
M  V30 30 H -5.740138 -1.180259 2.553997 0
M  V30 31 H -3.931741 0.305260 1.428233 0
M  V30 END ATOM
M  V30 BEGIN BOND
M  V30 1 2 1 2
M  V30 2 1 2 3
M  V30 3 1 3 4
M  V30 4 2 4 5
M  V30 5 1 5 6
M  V30 6 2 6 7
M  V30 7 1 7 8
M  V30 8 1 8 9
M  V30 9 2 9 10
M  V30 10 1 10 11
M  V30 11 2 11 12
M  V30 12 1 7 13
M  V30 13 2 13 14
M  V30 14 1 14 15
M  V30 15 2 15 16
M  V30 16 1 16 17
M  V30 17 2 17 18
M  V30 18 1 18 19
M  V30 19 2 19 20
M  V30 20 1 20 21
M  V30 21 1 15 2
M  V30 22 1 21 17
M  V30 23 1 14 4
M  V30 24 1 12 8
M  V30 25 1 3 22
M  V30 26 1 5 23
M  V30 27 1 6 24
M  V30 28 1 10 25
M  V30 29 1 13 26
M  V30 30 1 16 27
M  V30 31 1 18 28
M  V30 32 1 19 29
M  V30 33 1 20 30
M  V30 34 1 21 31
M  V30 END BOND
M  V30 END CTAB
M  END
>  <Dataset>  (182) 
ChEMBL_Kinases

>  <Ligand_Instance>  (182) 
nan

>  <PDB_ID>  (182) 
nan

>  <Standardized_SMILES>  (182) 
O=C1Nc2ccc(-n3ncnn3)cc2/C1=C/c1ccc[nH]1

>  <Name>  (182) 
nan

>  <Pocket>  (182) 
nan

>  <ATP_Site>  (182) 
nan

>  <Peripheral>  (182) 
nan

>  <Num_H_Atoms_ProtBoundConf>  (182) 
nan

>  <Num_Resolved_Atoms>  (182) 
nan

>  <Num_Not_Resolved_Atoms>  (182) 
nan

$$$$
CHEMBL232144
     RDKit          3D

  0  0  0  0  0  0  0  0  0  0999 V3000
M  V30 BEGIN CTAB
M  V30 COUNTS 28 30 0 0 0
M  V30 BEGIN ATOM
M  V30 1 N 0.253930 -4.506195 3.318364 0
M  V30 2 C 0.046161 -3.098513 3.163059 0
M  V30 3 C -0.442366 -2.366804 4.248423 0
M  V30 4 C -0.629657 -1.007261 4.068499 0
M  V30 5 C -0.363269 -0.346125 2.890710 0
M  V30 6 C 0.115678 -1.126793 1.860892 0
M  V30 7 C 0.329022 -2.487802 1.963010 0
M  V30 8 C 0.345831 -0.263105 0.690268 0
M  V30 9 C 0.760231 -0.573641 -0.527195 0
M  V30 10 C 0.942683 0.434822 -1.592391 0
M  V30 11 C 0.294768 0.083351 -2.775402 0
M  V30 12 C 0.548918 1.075625 -3.732311 0
M  V30 13 C 1.350192 1.972860 -3.038463 0
M  V30 14 N 1.575814 1.580457 -1.773634 0
M  V30 15 C -0.043545 1.059292 1.152326 0
M  V30 16 O -0.039659 2.147918 0.540997 0
M  V30 17 N -0.478724 1.018015 2.497763 0
M  V30 18 H 1.103390 -4.895792 2.858259 0
M  V30 19 H -0.470115 -5.002395 3.880141 0
M  V30 20 H -0.648274 -2.897527 5.169502 0
M  V30 21 H -1.013095 -0.499179 4.956157 0
M  V30 22 H 0.712901 -3.057363 1.112546 0
M  V30 23 H 0.950421 -1.630792 -0.654028 0
M  V30 24 H -0.337144 -0.746399 -3.129711 0
M  V30 25 H 0.270564 1.238121 -4.768896 0
M  V30 26 H 1.781659 2.909177 -3.420089 0
M  V30 27 H 2.114258 1.979113 -1.001546 0
M  V30 28 H -0.824966 1.753948 3.145359 0
M  V30 END ATOM
M  V30 BEGIN BOND
M  V30 1 1 1 2
M  V30 2 2 2 3
M  V30 3 1 3 4
M  V30 4 2 4 5
M  V30 5 1 5 6
M  V30 6 2 6 7
M  V30 7 1 6 8
M  V30 8 2 8 9
M  V30 9 1 9 10
M  V30 10 2 10 11
M  V30 11 1 11 12
M  V30 12 2 12 13
M  V30 13 1 13 14
M  V30 14 1 8 15
M  V30 15 2 15 16
M  V30 16 1 15 17
M  V30 17 1 7 2
M  V30 18 1 14 10
M  V30 19 1 17 5
M  V30 20 1 1 18
M  V30 21 1 1 19
M  V30 22 1 3 20
M  V30 23 1 4 21
M  V30 24 1 7 22
M  V30 25 1 9 23
M  V30 26 1 11 24
M  V30 27 1 12 25
M  V30 28 1 13 26
M  V30 29 1 14 27
M  V30 30 1 17 28
M  V30 END BOND
M  V30 END CTAB
M  END
>  <Dataset>  (183) 
ChEMBL_Kinases

>  <Ligand_Instance>  (183) 
nan

>  <PDB_ID>  (183) 
nan

>  <Standardized_SMILES>  (183) 
Nc1ccc2c(c1)/C(=C/c1ccc[nH]1)C(=O)N2

>  <Name>  (183) 
nan

>  <Pocket>  (183) 
nan

>  <ATP_Site>  (183) 
nan

>  <Peripheral>  (183) 
nan

>  <Num_H_Atoms_ProtBoundConf>  (183) 
nan

>  <Num_Resolved_Atoms>  (183) 
nan

>  <Num_Not_Resolved_Atoms>  (183) 
nan

$$$$
CHEMBL231824
     RDKit          3D

  0  0  0  0  0  0  0  0  0  0999 V3000
M  V30 BEGIN CTAB
M  V30 COUNTS 63 66 0 0 0
M  V30 BEGIN ATOM
M  V30 1 C 4.701858 3.087765 3.019944 0
M  V30 2 C 3.973211 2.877812 1.705877 0
M  V30 3 C 4.518759 3.684233 0.619340 0
M  V30 4 N 5.496540 3.359867 -0.241932 0
M  V30 5 C 5.712742 4.383461 -1.083094 0
M  V30 6 C 4.809672 5.366896 -0.694270 0
M  V30 7 N 4.070986 4.922848 0.365241 0
M  V30 8 C 3.087165 5.826697 0.865676 0
M  V30 9 C 1.746956 5.754128 0.182005 0
M  V30 10 C 1.090965 4.431331 0.273077 0
M  V30 11 C 1.305454 3.462274 -0.685518 0
M  V30 12 C 0.660835 2.253682 -0.535616 0
M  V30 13 C -0.189791 1.907144 0.489451 0
M  V30 14 N -0.854849 0.667431 0.650146 0
M  V30 15 C -0.776436 -0.462350 -0.199894 0
M  V30 16 N -0.059848 -0.588227 -1.322817 0
M  V30 17 C 0.004587 -1.657550 -2.112618 0
M  V30 18 C -0.735425 -2.762907 -1.757343 0
M  V30 19 C -0.691623 -3.936264 -2.581820 0
M  V30 20 N -0.637077 -4.879378 -3.247627 0
M  V30 21 C -1.494965 -2.694477 -0.609586 0
M  V30 22 C -2.295412 -3.841288 -0.192180 0
M  V30 23 C -2.299571 -4.265319 1.134185 0
M  V30 24 C -3.070100 -5.361191 1.513897 0
M  V30 25 C -3.846645 -6.058467 0.607034 0
M  V30 26 C -4.661539 -7.218573 1.011502 0
M  V30 27 C -5.407400 -7.786468 -0.197305 0
M  V30 28 C -3.818649 -8.346939 1.565969 0
M  V30 29 N -5.676531 -6.803451 1.982748 0
M  V30 30 C -3.854797 -5.651576 -0.714247 0
M  V30 31 C -3.076410 -4.549419 -1.082296 0
M  V30 32 N -1.475781 -1.559066 0.101840 0
M  V30 33 C -0.368316 2.910974 1.418038 0
M  V30 34 C 0.246938 4.139856 1.324924 0
M  V30 35 H 4.646195 4.138293 3.360532 0
M  V30 36 H 5.739595 2.710703 2.913319 0
M  V30 37 H 4.187439 2.451993 3.769883 0
M  V30 38 H 2.908216 2.936275 1.893700 0
M  V30 39 H 4.172495 1.797021 1.443412 0
M  V30 40 H 6.446194 4.390430 -1.877657 0
M  V30 41 H 4.819318 6.309647 -1.264448 0
M  V30 42 H 3.427258 6.872668 0.927087 0
M  V30 43 H 2.883645 5.543667 1.942395 0
M  V30 44 H 1.927243 6.062924 -0.872489 0
M  V30 45 H 1.087764 6.566016 0.589171 0
M  V30 46 H 1.960957 3.658869 -1.522069 0
M  V30 47 H 0.865399 1.537907 -1.311895 0
M  V30 48 H -1.472080 0.583479 1.493774 0
M  V30 49 H 0.624694 -1.633978 -2.998005 0
M  V30 50 H -1.696066 -3.730301 1.860772 0
M  V30 51 H -3.089550 -5.710230 2.541353 0
M  V30 52 H -6.107312 -7.035192 -0.617747 0
M  V30 53 H -4.685816 -8.175075 -0.945549 0
M  V30 54 H -6.021756 -8.652682 0.123364 0
M  V30 55 H -2.827156 -8.312290 1.074936 0
M  V30 56 H -4.279980 -9.317333 1.290482 0
M  V30 57 H -3.700762 -8.268259 2.667608 0
M  V30 58 H -5.321380 -5.944740 2.460598 0
M  V30 59 H -5.780493 -7.534874 2.728908 0
M  V30 60 H -4.451144 -6.176387 -1.444587 0
M  V30 61 H -3.124411 -4.280466 -2.121833 0
M  V30 62 H -1.016721 2.756831 2.272276 0
M  V30 63 H 0.087248 4.909026 2.070271 0
M  V30 END ATOM
M  V30 BEGIN BOND
M  V30 1 1 1 2
M  V30 2 1 2 3
M  V30 3 2 3 4
M  V30 4 1 4 5
M  V30 5 2 5 6
M  V30 6 1 6 7
M  V30 7 1 7 8
M  V30 8 1 8 9
M  V30 9 1 9 10
M  V30 10 2 10 11
M  V30 11 1 11 12
M  V30 12 2 12 13
M  V30 13 1 13 14
M  V30 14 1 14 15
M  V30 15 2 15 16
M  V30 16 1 16 17
M  V30 17 2 17 18
M  V30 18 1 18 19
M  V30 19 3 19 20
M  V30 20 1 18 21
M  V30 21 1 21 22
M  V30 22 2 22 23
M  V30 23 1 23 24
M  V30 24 2 24 25
M  V30 25 1 25 26
M  V30 26 1 26 27
M  V30 27 1 26 28
M  V30 28 1 26 29
M  V30 29 1 25 30
M  V30 30 2 30 31
M  V30 31 2 21 32
M  V30 32 1 13 33
M  V30 33 2 33 34
M  V30 34 1 7 3
M  V30 35 1 34 10
M  V30 36 1 32 15
M  V30 37 1 31 22
M  V30 38 1 1 35
M  V30 39 1 1 36
M  V30 40 1 1 37
M  V30 41 1 2 38
M  V30 42 1 2 39
M  V30 43 1 5 40
M  V30 44 1 6 41
M  V30 45 1 8 42
M  V30 46 1 8 43
M  V30 47 1 9 44
M  V30 48 1 9 45
M  V30 49 1 11 46
M  V30 50 1 12 47
M  V30 51 1 14 48
M  V30 52 1 17 49
M  V30 53 1 23 50
M  V30 54 1 24 51
M  V30 55 1 27 52
M  V30 56 1 27 53
M  V30 57 1 27 54
M  V30 58 1 28 55
M  V30 59 1 28 56
M  V30 60 1 28 57
M  V30 61 1 29 58
M  V30 62 1 29 59
M  V30 63 1 30 60
M  V30 64 1 31 61
M  V30 65 1 33 62
M  V30 66 1 34 63
M  V30 END BOND
M  V30 END CTAB
M  END
>  <Dataset>  (184) 
ChEMBL_Kinases

>  <Ligand_Instance>  (184) 
nan

>  <PDB_ID>  (184) 
nan

>  <Standardized_SMILES>  (184) 
CCc1nccn1CCc1ccc(Nc2ncc(C#N)c(-c3ccc(C(C)(C)N)cc3)n2)cc1

>  <Name>  (184) 
nan

>  <Pocket>  (184) 
nan

>  <ATP_Site>  (184) 
nan

>  <Peripheral>  (184) 
nan

>  <Num_H_Atoms_ProtBoundConf>  (184) 
nan

>  <Num_Resolved_Atoms>  (184) 
nan

>  <Num_Not_Resolved_Atoms>  (184) 
nan

$$$$
CHEMBL2326714
     RDKit          3D

  0  0  0  0  0  0  0  0  0  0999 V3000
M  V30 BEGIN CTAB
M  V30 COUNTS 33 34 0 0 0
M  V30 BEGIN ATOM
M  V30 1 C -0.117348 -2.406124 4.730182 0
M  V30 2 N -0.373998 -2.200572 3.301333 0
M  V30 3 C -1.393696 -1.229242 2.929599 0
M  V30 4 N -0.621749 -0.993322 1.777600 0
M  V30 5 C -0.782719 -0.174229 0.740764 0
M  V30 6 N 0.001799 -0.041322 -0.462642 0
M  V30 7 C 0.250651 0.014414 -1.894788 0
M  V30 8 C -0.637933 0.137466 -2.911574 0
M  V30 9 N 0.324051 0.124337 -3.708018 0
M  V30 10 N 1.499520 0.040863 -3.617699 0
M  V30 11 C 2.831012 0.010203 -4.246156 0
M  V30 12 C 1.653477 -0.061251 -2.163287 0
M  V30 13 C 2.824296 -0.229125 -1.262389 0
M  V30 14 N -1.867713 0.582964 0.752456 0
M  V30 15 C -2.760340 0.537256 1.741647 0
M  V30 16 C -2.267951 -0.395716 2.604902 0
M  V30 17 C -3.039551 -0.758507 3.904330 0
M  V30 18 F -3.338918 -2.067070 3.950580 0
M  V30 19 F -2.492900 -0.175819 5.002891 0
M  V30 20 F -4.289789 -0.117207 3.779915 0
M  V30 21 H 0.748415 -1.772786 5.092424 0
M  V30 22 H 0.206281 -3.467210 4.973813 0
M  V30 23 H -0.947436 -2.097251 5.388350 0
M  V30 24 H 0.288991 -2.849720 2.863120 0
M  V30 25 H 0.795154 0.140413 0.237026 0
M  V30 26 H -1.680409 0.205311 -2.878078 0
M  V30 27 H 2.792533 -0.385809 -5.253122 0
M  V30 28 H 3.194547 1.082127 -4.240738 0
M  V30 29 H 3.591458 -0.555255 -3.647284 0
M  V30 30 H 2.699139 -1.279860 -0.844409 0
M  V30 31 H 2.791993 0.505360 -0.449247 0
M  V30 32 H 3.748060 -0.073378 -1.823061 0
M  V30 33 H -3.687948 0.967987 2.066668 0
M  V30 END ATOM
M  V30 BEGIN BOND
M  V30 1 1 1 2
M  V30 2 1 2 3
M  V30 3 2 3 4
M  V30 4 1 4 5
M  V30 5 1 5 6
M  V30 6 1 6 7
M  V30 7 1 7 8
M  V30 8 2 8 9
M  V30 9 1 9 10
M  V30 10 1 10 11
M  V30 11 1 10 12
M  V30 12 1 12 13
M  V30 13 2 5 14
M  V30 14 1 14 15
M  V30 15 2 15 16
M  V30 16 1 16 17
M  V30 17 1 17 18
M  V30 18 1 17 19
M  V30 19 1 17 20
M  V30 20 1 16 3
M  V30 21 2 12 7
M  V30 22 1 1 21
M  V30 23 1 1 22
M  V30 24 1 1 23
M  V30 25 1 2 24
M  V30 26 1 6 25
M  V30 27 1 8 26
M  V30 28 1 11 27
M  V30 29 1 11 28
M  V30 30 1 11 29
M  V30 31 1 13 30
M  V30 32 1 13 31
M  V30 33 1 13 32
M  V30 34 1 15 33
M  V30 END BOND
M  V30 END CTAB
M  END
>  <Dataset>  (185) 
ChEMBL_Kinases

>  <Ligand_Instance>  (185) 
nan

>  <PDB_ID>  (185) 
nan

>  <Standardized_SMILES>  (185) 
CNc1nc(Nc2cnn(C)c2C)ncc1C(F)(F)F

>  <Name>  (185) 
nan

>  <Pocket>  (185) 
nan

>  <ATP_Site>  (185) 
nan

>  <Peripheral>  (185) 
nan

>  <Num_H_Atoms_ProtBoundConf>  (185) 
nan

>  <Num_Resolved_Atoms>  (185) 
nan

>  <Num_Not_Resolved_Atoms>  (185) 
nan

$$$$
CHEMBL2326713
     RDKit          3D

  0  0  0  0  0  0  0  0  0  0999 V3000
M  V30 BEGIN CTAB
M  V30 COUNTS 33 34 0 0 0
M  V30 BEGIN ATOM
M  V30 1 C -1.319510 -2.915282 3.693389 0
M  V30 2 N -1.516775 -2.262641 2.463021 0
M  V30 3 C -1.545192 -1.555020 1.235231 0
M  V30 4 N -0.683190 -0.835552 0.511660 0
M  V30 5 C -1.002379 -0.262176 -0.647538 0
M  V30 6 N 0.015319 0.467887 -1.288871 0
M  V30 7 C 1.331634 0.651171 -0.812638 0
M  V30 8 C 1.981816 0.212718 0.315883 0
M  V30 9 N 3.270384 0.645099 0.362161 0
M  V30 10 C 4.187580 0.332861 1.440021 0
M  V30 11 N 3.417120 1.349054 -0.735093 0
M  V30 12 C 2.307673 1.396013 -1.480931 0
M  V30 13 C 2.212012 2.131841 -2.778565 0
M  V30 14 N -2.243604 -0.435702 -1.072426 0
M  V30 15 C -3.222955 -1.120998 -0.476435 0
M  V30 16 C -2.844187 -1.704810 0.736530 0
M  V30 17 C -3.974494 -2.467211 1.388182 0
M  V30 18 F -3.633718 -3.796484 1.531815 0
M  V30 19 F -4.156576 -1.946269 2.655660 0
M  V30 20 F -5.136394 -2.402840 0.661588 0
M  V30 21 H -0.898288 -2.307517 4.525539 0
M  V30 22 H -0.651285 -3.826534 3.613825 0
M  V30 23 H -2.329059 -3.294856 4.099846 0
M  V30 24 H -0.478646 -1.987547 2.563073 0
M  V30 25 H -0.289712 0.884726 -2.189434 0
M  V30 26 H 1.545267 -0.396378 1.076731 0
M  V30 27 H 3.848732 0.844454 2.385354 0
M  V30 28 H 4.176239 -0.752049 1.701804 0
M  V30 29 H 5.213028 0.625143 1.223499 0
M  V30 30 H 2.946452 1.695830 -3.456079 0
M  V30 31 H 1.187231 2.030068 -3.215609 0
M  V30 32 H 2.413146 3.192428 -2.645592 0
M  V30 33 H -4.186688 -1.171499 -0.950496 0
M  V30 END ATOM
M  V30 BEGIN BOND
M  V30 1 1 1 2
M  V30 2 1 2 3
M  V30 3 2 3 4
M  V30 4 1 4 5
M  V30 5 1 5 6
M  V30 6 1 6 7
M  V30 7 2 7 8
M  V30 8 1 8 9
M  V30 9 1 9 10
M  V30 10 1 9 11
M  V30 11 2 11 12
M  V30 12 1 12 13
M  V30 13 2 5 14
M  V30 14 1 14 15
M  V30 15 2 15 16
M  V30 16 1 16 17
M  V30 17 1 17 18
M  V30 18 1 17 19
M  V30 19 1 17 20
M  V30 20 1 16 3
M  V30 21 1 12 7
M  V30 22 1 1 21
M  V30 23 1 1 22
M  V30 24 1 1 23
M  V30 25 1 2 24
M  V30 26 1 6 25
M  V30 27 1 8 26
M  V30 28 1 10 27
M  V30 29 1 10 28
M  V30 30 1 10 29
M  V30 31 1 13 30
M  V30 32 1 13 31
M  V30 33 1 13 32
M  V30 34 1 15 33
M  V30 END BOND
M  V30 END CTAB
M  END
>  <Dataset>  (186) 
ChEMBL_Kinases

>  <Ligand_Instance>  (186) 
nan

>  <PDB_ID>  (186) 
nan

>  <Standardized_SMILES>  (186) 
CNc1nc(Nc2cn(C)nc2C)ncc1C(F)(F)F

>  <Name>  (186) 
nan

>  <Pocket>  (186) 
nan

>  <ATP_Site>  (186) 
nan

>  <Peripheral>  (186) 
nan

>  <Num_H_Atoms_ProtBoundConf>  (186) 
nan

>  <Num_Resolved_Atoms>  (186) 
nan

>  <Num_Not_Resolved_Atoms>  (186) 
nan

$$$$
CHEMBL2326712
     RDKit          3D

  0  0  0  0  0  0  0  0  0  0999 V3000
M  V30 BEGIN CTAB
M  V30 COUNTS 30 31 0 0 0
M  V30 BEGIN ATOM
M  V30 1 C -2.879902 -0.998960 2.462063 0
M  V30 2 N -2.533398 0.284423 1.880950 0
M  V30 3 C -1.154213 0.608112 1.602714 0
M  V30 4 N -0.202250 -0.296708 1.892751 0
M  V30 5 C 1.114608 -0.123345 1.686815 0
M  V30 6 N 1.917392 -1.232328 2.074727 0
M  V30 7 C 2.260809 -2.202996 1.087232 0
M  V30 8 C 2.968456 -3.379757 1.240683 0
M  V30 9 N 3.067965 -3.992423 0.025823 0
M  V30 10 N 2.449834 -3.247387 -0.890491 0
M  V30 11 C 2.285389 -3.471825 -2.314344 0
M  V30 12 C 1.960309 -2.166361 -0.258431 0
M  V30 13 N 1.506272 1.046615 1.149141 0
M  V30 14 C 0.624266 2.015502 0.824965 0
M  V30 15 C -0.720170 1.803294 1.050297 0
M  V30 16 C -1.745192 2.828276 0.722859 0
M  V30 17 F -1.192216 3.966211 0.169254 0
M  V30 18 F -2.750778 2.365050 -0.089922 0
M  V30 19 F -2.332063 3.239215 1.908404 0
M  V30 20 H -1.941027 -1.475123 2.794424 0
M  V30 21 H -3.556052 -0.844329 3.353304 0
M  V30 22 H -3.439511 -1.646480 1.758011 0
M  V30 23 H -3.280643 0.977849 1.661936 0
M  V30 24 H 2.265200 -1.372489 3.033606 0
M  V30 25 H 3.374222 -3.741175 2.200518 0
M  V30 26 H 1.307014 -3.092677 -2.678359 0
M  V30 27 H 3.100974 -2.918271 -2.848562 0
M  V30 28 H 2.352579 -4.527995 -2.588088 0
M  V30 29 H 1.393863 -1.349078 -0.729670 0
M  V30 30 H 0.981140 2.928018 0.400296 0
M  V30 END ATOM
M  V30 BEGIN BOND
M  V30 1 1 1 2
M  V30 2 1 2 3
M  V30 3 2 3 4
M  V30 4 1 4 5
M  V30 5 1 5 6
M  V30 6 1 6 7
M  V30 7 1 7 8
M  V30 8 2 8 9
M  V30 9 1 9 10
M  V30 10 1 10 11
M  V30 11 1 10 12
M  V30 12 2 5 13
M  V30 13 1 13 14
M  V30 14 2 14 15
M  V30 15 1 15 16
M  V30 16 1 16 17
M  V30 17 1 16 18
M  V30 18 1 16 19
M  V30 19 1 15 3
M  V30 20 2 12 7
M  V30 21 1 1 20
M  V30 22 1 1 21
M  V30 23 1 1 22
M  V30 24 1 2 23
M  V30 25 1 6 24
M  V30 26 1 8 25
M  V30 27 1 11 26
M  V30 28 1 11 27
M  V30 29 1 11 28
M  V30 30 1 12 29
M  V30 31 1 14 30
M  V30 END BOND
M  V30 END CTAB
M  END
>  <Dataset>  (187) 
ChEMBL_Kinases

>  <Ligand_Instance>  (187) 
nan

>  <PDB_ID>  (187) 
nan

>  <Standardized_SMILES>  (187) 
CNc1nc(Nc2cnn(C)c2)ncc1C(F)(F)F

>  <Name>  (187) 
nan

>  <Pocket>  (187) 
nan

>  <ATP_Site>  (187) 
nan

>  <Peripheral>  (187) 
nan

>  <Num_H_Atoms_ProtBoundConf>  (187) 
nan

>  <Num_Resolved_Atoms>  (187) 
nan

>  <Num_Not_Resolved_Atoms>  (187) 
nan

$$$$
CHEMBL2326711
     RDKit          3D

  0  0  0  0  0  0  0  0  0  0999 V3000
M  V30 BEGIN CTAB
M  V30 COUNTS 30 31 0 0 0
M  V30 BEGIN ATOM
M  V30 1 C -2.835391 0.997945 3.204094 0
M  V30 2 N -1.731046 0.244203 2.668974 0
M  V30 3 C -0.883881 0.893275 1.778765 0
M  V30 4 N -0.118897 -0.318286 1.734090 0
M  V30 5 C 0.982952 -0.624066 1.062454 0
M  V30 6 N 1.780429 -1.870918 0.940150 0
M  V30 7 C 1.493391 -2.604532 -0.238411 0
M  V30 8 C 0.546118 -2.218018 -1.167387 0
M  V30 9 C 0.690068 -3.269421 -2.110421 0
M  V30 10 N 1.650723 -4.142304 -1.694568 0
M  V30 11 N 2.138234 -3.725415 -0.544214 0
M  V30 12 C 3.173860 -4.381981 0.212431 0
M  V30 13 N 1.566498 0.276802 0.259467 0
M  V30 14 C 1.001111 1.508448 0.149958 0
M  V30 15 C -0.084200 1.504319 0.939112 0
M  V30 16 C -0.993203 2.747476 0.976516 0
M  V30 17 F -1.155180 3.205060 2.234255 0
M  V30 18 F -0.301097 3.755986 0.264550 0
M  V30 19 F -2.139783 2.531876 0.279699 0
M  V30 20 H -3.680650 0.380123 3.594933 0
M  V30 21 H -2.435679 1.671795 3.991580 0
M  V30 22 H -3.255947 1.622157 2.380762 0
M  V30 23 H -1.927680 -0.620838 3.167058 0
M  V30 24 H 2.230079 -1.669546 1.842778 0
M  V30 25 H -0.125415 -1.381855 -1.215656 0
M  V30 26 H 0.013687 -3.190128 -2.983341 0
M  V30 27 H 3.502474 -5.327168 -0.317208 0
M  V30 28 H 4.085803 -3.751516 0.318451 0
M  V30 29 H 2.821258 -4.675502 1.218698 0
M  V30 30 H 1.194239 2.414887 -0.364663 0
M  V30 END ATOM
M  V30 BEGIN BOND
M  V30 1 1 1 2
M  V30 2 1 2 3
M  V30 3 2 3 4
M  V30 4 1 4 5
M  V30 5 1 5 6
M  V30 6 1 6 7
M  V30 7 2 7 8
M  V30 8 1 8 9
M  V30 9 2 9 10
M  V30 10 1 10 11
M  V30 11 1 11 12
M  V30 12 2 5 13
M  V30 13 1 13 14
M  V30 14 2 14 15
M  V30 15 1 15 16
M  V30 16 1 16 17
M  V30 17 1 16 18
M  V30 18 1 16 19
M  V30 19 1 15 3
M  V30 20 1 11 7
M  V30 21 1 1 20
M  V30 22 1 1 21
M  V30 23 1 1 22
M  V30 24 1 2 23
M  V30 25 1 6 24
M  V30 26 1 8 25
M  V30 27 1 9 26
M  V30 28 1 12 27
M  V30 29 1 12 28
M  V30 30 1 12 29
M  V30 31 1 14 30
M  V30 END BOND
M  V30 END CTAB
M  END
>  <Dataset>  (188) 
ChEMBL_Kinases

>  <Ligand_Instance>  (188) 
nan

>  <PDB_ID>  (188) 
nan

>  <Standardized_SMILES>  (188) 
CNc1nc(Nc2ccnn2C)ncc1C(F)(F)F

>  <Name>  (188) 
nan

>  <Pocket>  (188) 
nan

>  <ATP_Site>  (188) 
nan

>  <Peripheral>  (188) 
nan

>  <Num_H_Atoms_ProtBoundConf>  (188) 
nan

>  <Num_Resolved_Atoms>  (188) 
nan

>  <Num_Not_Resolved_Atoms>  (188) 
nan

$$$$
CHEMBL2326710
     RDKit          3D

  0  0  0  0  0  0  0  0  0  0999 V3000
M  V30 BEGIN CTAB
M  V30 COUNTS 30 31 0 0 0
M  V30 BEGIN ATOM
M  V30 1 C -3.206717 0.746915 3.510987 0
M  V30 2 N -2.054727 0.683751 2.725501 0
M  V30 3 C -0.899870 0.620370 1.938153 0
M  V30 4 N 0.282189 0.016219 1.992520 0
M  V30 5 C 1.276500 0.079058 1.131212 0
M  V30 6 N 2.421263 -0.702003 1.471442 0
M  V30 7 C 2.634790 -1.879930 0.662224 0
M  V30 8 C 3.657962 -2.851533 0.775775 0
M  V30 9 C 3.422031 -3.769602 -0.259194 0
M  V30 10 N 2.325846 -3.379038 -0.956330 0
M  V30 11 C 1.851831 -4.141627 -2.090714 0
M  V30 12 N 1.923342 -2.293967 -0.381189 0
M  V30 13 N 1.044279 0.857516 0.068267 0
M  V30 14 C -0.075387 1.544587 -0.168043 0
M  V30 15 C -1.062133 1.417736 0.791049 0
M  V30 16 C -2.310132 2.205946 0.478907 0
M  V30 17 F -2.578604 3.124823 1.444419 0
M  V30 18 F -2.228887 2.843383 -0.734544 0
M  V30 19 F -3.390622 1.315818 0.333653 0
M  V30 20 H -3.057399 1.136353 4.558387 0
M  V30 21 H -3.964364 1.475634 3.057208 0
M  V30 22 H -3.816176 -0.185131 3.613141 0
M  V30 23 H -1.648946 -0.000770 3.443559 0
M  V30 24 H 3.144342 -0.567950 2.227183 0
M  V30 25 H 4.410580 -2.773650 1.559762 0
M  V30 26 H 4.123009 -4.610387 -0.338915 0
M  V30 27 H 0.772087 -3.925177 -2.322736 0
M  V30 28 H 1.896610 -5.239041 -1.860553 0
M  V30 29 H 2.442373 -3.900637 -3.019929 0
M  V30 30 H -0.132195 2.135196 -1.068299 0
M  V30 END ATOM
M  V30 BEGIN BOND
M  V30 1 1 1 2
M  V30 2 1 2 3
M  V30 3 2 3 4
M  V30 4 1 4 5
M  V30 5 1 5 6
M  V30 6 1 6 7
M  V30 7 1 7 8
M  V30 8 2 8 9
M  V30 9 1 9 10
M  V30 10 1 10 11
M  V30 11 1 10 12
M  V30 12 2 5 13
M  V30 13 1 13 14
M  V30 14 2 14 15
M  V30 15 1 15 16
M  V30 16 1 16 17
M  V30 17 1 16 18
M  V30 18 1 16 19
M  V30 19 1 15 3
M  V30 20 2 12 7
M  V30 21 1 1 20
M  V30 22 1 1 21
M  V30 23 1 1 22
M  V30 24 1 2 23
M  V30 25 1 6 24
M  V30 26 1 8 25
M  V30 27 1 9 26
M  V30 28 1 11 27
M  V30 29 1 11 28
M  V30 30 1 11 29
M  V30 31 1 14 30
M  V30 END BOND
M  V30 END CTAB
M  END
>  <Dataset>  (189) 
ChEMBL_Kinases

>  <Ligand_Instance>  (189) 
nan

>  <PDB_ID>  (189) 
nan

>  <Standardized_SMILES>  (189) 
CNc1nc(Nc2ccn(C)n2)ncc1C(F)(F)F

>  <Name>  (189) 
nan

>  <Pocket>  (189) 
nan

>  <ATP_Site>  (189) 
nan

>  <Peripheral>  (189) 
nan

>  <Num_H_Atoms_ProtBoundConf>  (189) 
nan

>  <Num_Resolved_Atoms>  (189) 
nan

>  <Num_Not_Resolved_Atoms>  (189) 
nan

$$$$
CHEMBL2326709
     RDKit          3D

  0  0  0  0  0  0  0  0  0  0999 V3000
M  V30 BEGIN CTAB
M  V30 COUNTS 72 75 0 0 0
M  V30 BEGIN ATOM
M  V30 1 C 4.138026 -1.579683 3.683352 0
M  V30 2 C 4.223574 -1.560908 2.207977 0
M  V30 3 C 3.302970 -0.715429 1.423992 0
M  V30 4 C 1.834799 -0.961888 1.452191 0 CFG=2
M  V30 5 O 1.190636 -0.041730 0.595338 0
M  V30 6 C -0.131339 -0.162135 0.425264 0 CFG=1
M  V30 7 O -0.414594 -1.404347 -0.246495 0
M  V30 8 C -1.214627 -1.338337 -1.389677 0
M  V30 9 C -0.804617 -1.175854 -2.692944 0
M  V30 10 C 0.596820 -1.060137 -3.040806 0
M  V30 11 C 0.951614 -0.607876 -4.304367 0
M  V30 12 C 2.230793 -0.487149 -4.780446 0
M  V30 13 C 3.288671 -0.829867 -3.979397 0
M  V30 14 O 4.602758 -0.730682 -4.399910 0
M  V30 15 C 3.026272 -1.288735 -2.711766 0
M  V30 16 C 1.713871 -1.377146 -2.319936 0
M  V30 17 O -1.627674 -1.113125 -3.710211 0
M  V30 18 C -2.929142 -1.197656 -3.629432 0
M  V30 19 C -3.729546 -1.121247 -4.756818 0
M  V30 20 C -5.099048 -1.213006 -4.645808 0
M  V30 21 O -5.902085 -1.135685 -5.780480 0
M  V30 22 C -5.654442 -1.383120 -3.382299 0
M  V30 23 C -4.834322 -1.455896 -2.277627 0
M  V30 24 O -5.386883 -1.626863 -1.004457 0
M  V30 25 C -3.468083 -1.368345 -2.352687 0
M  V30 26 C -2.587136 -1.430829 -1.295085 0
M  V30 27 O -3.210204 -1.587017 -0.218703 0
M  V30 28 C -0.935596 -0.128891 1.690554 0 CFG=2
M  V30 29 O -1.719640 1.080496 1.736102 0
M  V30 30 C -3.051899 0.950153 2.054275 0
M  V30 31 C -3.841552 2.215525 2.088007 0
M  V30 32 O -3.766038 -0.043407 2.331524 0
M  V30 33 C 0.047054 0.043786 2.840258 0 CFG=2
M  V30 34 O 0.593300 1.326015 2.757192 0
M  V30 35 C 0.471807 2.289843 3.743182 0
M  V30 36 C 1.100961 3.629633 3.542065 0
M  V30 37 O -0.156493 2.034567 4.782821 0
M  V30 38 C 1.139153 -1.042719 2.748527 0 CFG=1
M  V30 39 O 0.458207 -2.264557 2.963352 0
M  V30 40 C 0.457704 -3.047318 4.063544 0
M  V30 41 C -0.396353 -4.260209 3.852482 0
M  V30 42 O 1.074443 -2.799761 5.099948 0
M  V30 43 H 3.974475 -0.609148 4.181509 0
M  V30 44 H 3.481926 -2.364950 4.095303 0
M  V30 45 H 5.176568 -1.941383 4.035518 0
M  V30 46 H 4.149403 -2.660097 1.887565 0
M  V30 47 H 5.274678 -1.251388 1.938001 0
M  V30 48 H 3.635485 -0.844924 0.337654 0
M  V30 49 H 3.537318 0.366683 1.696620 0
M  V30 50 H 1.678986 -1.944387 0.961207 0
M  V30 51 H -0.566251 0.625140 -0.255157 0
M  V30 52 H 0.178073 -0.303840 -5.030726 0
M  V30 53 H 2.435385 -0.127024 -5.775834 0
M  V30 54 H 4.831544 0.008914 -5.064476 0
M  V30 55 H 3.819665 -1.564231 -2.061206 0
M  V30 56 H 1.545342 -1.771887 -1.341968 0
M  V30 57 H -3.267417 -0.988666 -5.717937 0
M  V30 58 H -6.908086 -1.302017 -5.683325 0
M  V30 59 H -6.723950 -1.457949 -3.266779 0
M  V30 60 H -5.399809 -2.559667 -0.616429 0
M  V30 61 H -1.619036 -0.952000 1.870845 0
M  V30 62 H -4.410884 2.247558 3.038615 0
M  V30 63 H -4.609417 2.191272 1.265351 0
M  V30 64 H -3.226512 3.122877 2.009968 0
M  V30 65 H -0.489647 -0.107511 3.780194 0
M  V30 66 H 0.784047 4.338012 4.330919 0
M  V30 67 H 2.198718 3.492433 3.566440 0
M  V30 68 H 0.819052 3.974757 2.533313 0
M  V30 69 H 1.765503 -0.833389 3.598085 0
M  V30 70 H 0.125833 -4.947672 3.158271 0
M  V30 71 H -1.379227 -3.987107 3.414921 0
M  V30 72 H -0.511611 -4.795009 4.821576 0
M  V30 END ATOM
M  V30 BEGIN BOND
M  V30 1 1 1 2
M  V30 2 1 2 3
M  V30 3 1 3 4
M  V30 4 1 4 5
M  V30 5 1 5 6
M  V30 6 1 6 7
M  V30 7 1 7 8
M  V30 8 2 8 9
M  V30 9 1 9 10
M  V30 10 2 10 11
M  V30 11 1 11 12
M  V30 12 2 12 13
M  V30 13 1 13 14
M  V30 14 1 13 15
M  V30 15 2 15 16
M  V30 16 1 9 17
M  V30 17 1 17 18
M  V30 18 2 18 19
M  V30 19 1 19 20
M  V30 20 1 20 21
M  V30 21 2 20 22
M  V30 22 1 22 23
M  V30 23 1 23 24
M  V30 24 2 23 25
M  V30 25 1 25 26
M  V30 26 2 26 27
M  V30 27 1 6 28
M  V30 28 1 28 29
M  V30 29 1 29 30
M  V30 30 1 30 31
M  V30 31 2 30 32
M  V30 32 1 28 33
M  V30 33 1 33 34
M  V30 34 1 34 35
M  V30 35 1 35 36
M  V30 36 2 35 37
M  V30 37 1 33 38
M  V30 38 1 38 39
M  V30 39 1 39 40
M  V30 40 1 40 41
M  V30 41 2 40 42
M  V30 42 1 38 4
M  V30 43 1 26 8
M  V30 44 1 16 10
M  V30 45 1 25 18
M  V30 46 1 1 43
M  V30 47 1 1 44
M  V30 48 1 1 45
M  V30 49 1 2 46
M  V30 50 1 2 47
M  V30 51 1 3 48
M  V30 52 1 3 49
M  V30 53 1 4 50 CFG=3
M  V30 54 1 6 51 CFG=3
M  V30 55 1 11 52
M  V30 56 1 12 53
M  V30 57 1 14 54
M  V30 58 1 15 55
M  V30 59 1 16 56
M  V30 60 1 19 57
M  V30 61 1 21 58
M  V30 62 1 22 59
M  V30 63 1 24 60
M  V30 64 1 28 61 CFG=1
M  V30 65 1 31 62
M  V30 66 1 31 63
M  V30 67 1 31 64
M  V30 68 1 33 65 CFG=1
M  V30 69 1 36 66
M  V30 70 1 36 67
M  V30 71 1 36 68
M  V30 72 1 38 69 CFG=1
M  V30 73 1 41 70
M  V30 74 1 41 71
M  V30 75 1 41 72
M  V30 END BOND
M  V30 END CTAB
M  END
>  <Dataset>  (190) 
ChEMBL_Kinases

>  <Ligand_Instance>  (190) 
nan

>  <PDB_ID>  (190) 
nan

>  <Standardized_SMILES>  (190) 
CCC[C@@H]1O[C@@H](Oc2c(-c3ccc(O)cc3)oc3cc(O)cc(O)c3c2=O)[C@H](OC(C)=O)[C@H](OC(C)=O)[C@H]1OC(C)=O

>  <Name>  (190) 
nan

>  <Pocket>  (190) 
nan

>  <ATP_Site>  (190) 
nan

>  <Peripheral>  (190) 
nan

>  <Num_H_Atoms_ProtBoundConf>  (190) 
nan

>  <Num_Resolved_Atoms>  (190) 
nan

>  <Num_Not_Resolved_Atoms>  (190) 
nan

$$$$
CHEMBL2326708
     RDKit          3D

  0  0  0  0  0  0  0  0  0  0999 V3000
M  V30 BEGIN CTAB
M  V30 COUNTS 67 70 0 0 0
M  V30 BEGIN ATOM
M  V30 1 C -0.918451 -0.781476 3.841776 0
M  V30 2 C 0.512509 -1.317806 3.728454 0
M  V30 3 C 0.712042 -1.795159 2.328313 0
M  V30 4 C 0.517768 -0.753643 1.302291 0 CFG=2
M  V30 5 O 0.707004 -1.377844 0.031580 0
M  V30 6 C 0.283005 -0.491224 -0.980135 0 CFG=1
M  V30 7 O -1.107405 -0.285602 -0.909413 0
M  V30 8 C -1.968752 -0.686271 -1.931939 0
M  V30 9 C -2.516613 -0.005963 -2.961073 0
M  V30 10 C -2.237712 1.404199 -3.093803 0
M  V30 11 C -2.611334 1.965828 -4.288866 0
M  V30 12 C -2.477169 3.301142 -4.606635 0
M  V30 13 C -1.938365 4.176857 -3.701569 0
M  V30 14 O -1.771127 5.521523 -3.945761 0
M  V30 15 C -1.556841 3.644937 -2.499341 0
M  V30 16 C -1.707643 2.322422 -2.228006 0
M  V30 17 O -3.291118 -0.605095 -3.825055 0
M  V30 18 C -3.543632 -1.901003 -3.682666 0
M  V30 19 C -4.371721 -2.410893 -4.656158 0
M  V30 20 C -4.750886 -3.734070 -4.683444 0
M  V30 21 O -5.578265 -4.352919 -5.617360 0
M  V30 22 C -4.238832 -4.531941 -3.652988 0
M  V30 23 C -3.419534 -4.024919 -2.690100 0
M  V30 24 O -2.891692 -4.784130 -1.651283 0
M  V30 25 C -3.052185 -2.701302 -2.680811 0
M  V30 26 C -2.219024 -2.055895 -1.755914 0
M  V30 27 O -1.790263 -2.830478 -0.854086 0
M  V30 28 C 1.133631 0.742911 -1.009521 0 CFG=2
M  V30 29 O 2.499138 0.326106 -1.049173 0
M  V30 30 C 3.349448 0.745297 -2.060508 0
M  V30 31 C 4.759700 0.541316 -2.429739 0
M  V30 32 O 2.764958 1.497854 -2.883325 0
M  V30 33 C 0.988935 1.409211 0.361357 0 CFG=2
M  V30 34 O 1.747116 2.572549 0.460372 0
M  V30 35 C 1.532215 0.322966 1.331227 0 CFG=1
M  V30 36 O 1.916939 0.889849 2.529643 0
M  V30 37 C 3.244688 1.008869 2.944537 0
M  V30 38 C 3.657117 1.630631 4.248880 0
M  V30 39 O 4.088843 0.553448 2.139627 0
M  V30 40 H -1.152099 -0.771917 4.944627 0
M  V30 41 H -0.996391 0.241071 3.439035 0
M  V30 42 H -1.591686 -1.518432 3.395311 0
M  V30 43 H 1.185546 -0.545561 4.082496 0
M  V30 44 H 0.628606 -2.194595 4.426932 0
M  V30 45 H 0.004497 -2.653238 2.162365 0
M  V30 46 H 1.767775 -2.207848 2.299582 0
M  V30 47 H -0.493293 -0.307215 1.352524 0
M  V30 48 H 0.472642 -1.033703 -1.940446 0
M  V30 49 H -3.059179 1.386776 -5.112527 0
M  V30 50 H -2.777109 3.715010 -5.553191 0
M  V30 51 H -1.278651 6.108555 -3.292475 0
M  V30 52 H -1.121656 4.278050 -1.728760 0
M  V30 53 H -1.415029 1.931509 -1.268825 0
M  V30 54 H -4.788764 -1.824141 -5.466705 0
M  V30 55 H -5.859619 -3.742606 -6.406071 0
M  V30 56 H -4.507367 -5.581009 -3.629419 0
M  V30 57 H -2.090650 -5.356106 -1.862518 0
M  V30 58 H 0.885581 1.392439 -1.841881 0
M  V30 59 H 5.284144 1.523409 -2.250442 0
M  V30 60 H 4.887955 0.333863 -3.509612 0
M  V30 61 H 5.303260 -0.178378 -1.787961 0
M  V30 62 H -0.068807 1.546135 0.659917 0
M  V30 63 H 2.632293 2.392099 0.019899 0
M  V30 64 H 2.465912 -0.027851 0.809927 0
M  V30 65 H 3.479788 2.726103 4.241193 0
M  V30 66 H 4.757229 1.468083 4.353919 0
M  V30 67 H 3.155452 1.082737 5.046432 0
M  V30 END ATOM
M  V30 BEGIN BOND
M  V30 1 1 1 2
M  V30 2 1 2 3
M  V30 3 1 3 4
M  V30 4 1 4 5
M  V30 5 1 5 6
M  V30 6 1 6 7
M  V30 7 1 7 8
M  V30 8 2 8 9
M  V30 9 1 9 10
M  V30 10 2 10 11
M  V30 11 1 11 12
M  V30 12 2 12 13
M  V30 13 1 13 14
M  V30 14 1 13 15
M  V30 15 2 15 16
M  V30 16 1 9 17
M  V30 17 1 17 18
M  V30 18 2 18 19
M  V30 19 1 19 20
M  V30 20 1 20 21
M  V30 21 2 20 22
M  V30 22 1 22 23
M  V30 23 1 23 24
M  V30 24 2 23 25
M  V30 25 1 25 26
M  V30 26 2 26 27
M  V30 27 1 6 28
M  V30 28 1 28 29
M  V30 29 1 29 30
M  V30 30 1 30 31
M  V30 31 2 30 32
M  V30 32 1 28 33
M  V30 33 1 33 34
M  V30 34 1 33 35
M  V30 35 1 35 36
M  V30 36 1 36 37
M  V30 37 1 37 38
M  V30 38 2 37 39
M  V30 39 1 35 4
M  V30 40 1 26 8
M  V30 41 1 16 10
M  V30 42 1 25 18
M  V30 43 1 1 40
M  V30 44 1 1 41
M  V30 45 1 1 42
M  V30 46 1 2 43
M  V30 47 1 2 44
M  V30 48 1 3 45
M  V30 49 1 3 46
M  V30 50 1 4 47 CFG=3
M  V30 51 1 6 48 CFG=3
M  V30 52 1 11 49
M  V30 53 1 12 50
M  V30 54 1 14 51
M  V30 55 1 15 52
M  V30 56 1 16 53
M  V30 57 1 19 54
M  V30 58 1 21 55
M  V30 59 1 22 56
M  V30 60 1 24 57
M  V30 61 1 28 58 CFG=3
M  V30 62 1 31 59
M  V30 63 1 31 60
M  V30 64 1 31 61
M  V30 65 1 33 62 CFG=1
M  V30 66 1 34 63
M  V30 67 1 35 64 CFG=3
M  V30 68 1 38 65
M  V30 69 1 38 66
M  V30 70 1 38 67
M  V30 END BOND
M  V30 END CTAB
M  END
>  <Dataset>  (191) 
ChEMBL_Kinases

>  <Ligand_Instance>  (191) 
nan

>  <PDB_ID>  (191) 
nan

>  <Standardized_SMILES>  (191) 
CCC[C@@H]1O[C@@H](Oc2c(-c3ccc(O)cc3)oc3cc(O)cc(O)c3c2=O)[C@H](OC(C)=O)[C@H](O)[C@H]1OC(C)=O

>  <Name>  (191) 
nan

>  <Pocket>  (191) 
nan

>  <ATP_Site>  (191) 
nan

>  <Peripheral>  (191) 
nan

>  <Num_H_Atoms_ProtBoundConf>  (191) 
nan

>  <Num_Resolved_Atoms>  (191) 
nan

>  <Num_Not_Resolved_Atoms>  (191) 
nan

$$$$
CHEMBL2326707
     RDKit          3D

  0  0  0  0  0  0  0  0  0  0999 V3000
M  V30 BEGIN CTAB
M  V30 COUNTS 62 65 0 0 0
M  V30 BEGIN ATOM
M  V30 1 C -0.857695 -1.808419 4.938541 0
M  V30 2 C -0.100719 -1.649892 3.608804 0
M  V30 3 C 0.470207 -0.290163 3.592345 0
M  V30 4 C 1.285175 0.132649 2.424119 0 CFG=2
M  V30 5 O 0.650281 0.107677 1.253076 0
M  V30 6 C 0.659640 -0.911087 0.381663 0 CFG=1
M  V30 7 O 0.394695 -0.507487 -0.984203 0
M  V30 8 C -0.737205 -1.015588 -1.632883 0
M  V30 9 C -1.944225 -0.364866 -1.679989 0
M  V30 10 C -2.199540 0.930150 -1.084146 0
M  V30 11 C -3.503287 1.362270 -0.990964 0
M  V30 12 C -3.893029 2.586819 -0.482626 0
M  V30 13 C -2.944190 3.468443 -0.025925 0
M  V30 14 O -3.278248 4.709479 0.494499 0
M  V30 15 C -1.630704 3.096904 -0.092689 0
M  V30 16 C -1.319306 1.867749 -0.609439 0
M  V30 17 O -2.946157 -0.934375 -2.301275 0
M  V30 18 C -2.853949 -2.098394 -2.885866 0
M  V30 19 C -3.980106 -2.603646 -3.513358 0
M  V30 20 C -3.999732 -3.814974 -4.159058 0
M  V30 21 O -5.142436 -4.318501 -4.791078 0
M  V30 22 C -2.816232 -4.531431 -4.158152 0
M  V30 23 C -1.662085 -4.048942 -3.533662 0
M  V30 24 O -0.472479 -4.744807 -3.519913 0
M  V30 25 C -1.688956 -2.833559 -2.900625 0
M  V30 26 C -0.621227 -2.262188 -2.255399 0
M  V30 27 O 0.423716 -2.957846 -2.288143 0
M  V30 28 C 1.963794 -1.646936 0.362568 0 CFG=2
M  V30 29 O 1.884062 -2.876987 1.025010 0
M  V30 30 C 3.024951 -0.761967 0.974680 0 CFG=2
M  V30 31 O 4.295062 -1.270459 0.832110 0
M  V30 32 C 2.679067 -0.454968 2.427599 0 CFG=1
M  V30 33 O 3.582037 0.535502 2.854827 0
M  V30 34 C 4.464581 0.371762 3.889966 0
M  V30 35 C 5.301114 1.585974 4.124523 0
M  V30 36 O 4.476598 -0.736174 4.506946 0
M  V30 37 H -0.771304 -2.828210 5.348089 0
M  V30 38 H -1.924925 -1.535994 4.845017 0
M  V30 39 H -0.408473 -1.133025 5.711071 0
M  V30 40 H 0.582617 -2.468983 3.414235 0
M  V30 41 H -0.931218 -1.729822 2.845463 0
M  V30 42 H -0.376702 0.457246 3.662609 0
M  V30 43 H 1.054875 -0.074460 4.536444 0
M  V30 44 H 1.464213 1.258353 2.636356 0
M  V30 45 H -0.126722 -1.671005 0.664629 0
M  V30 46 H -4.337999 0.733836 -1.328259 0
M  V30 47 H -4.933759 2.867688 -0.435679 0
M  V30 48 H -2.774392 5.526006 0.169455 0
M  V30 49 H -0.857790 3.764119 0.257043 0
M  V30 50 H -0.271291 1.637461 -0.666848 0
M  V30 51 H -4.912701 -2.044287 -3.517247 0
M  V30 52 H -6.044982 -4.104124 -4.377892 0
M  V30 53 H -2.737212 -5.483101 -4.635520 0
M  V30 54 H -0.520695 -5.748340 -3.664305 0
M  V30 55 H 2.280581 -1.785244 -0.698454 0
M  V30 56 H 2.728722 -3.001522 1.520723 0
M  V30 57 H 2.978577 0.207112 0.436359 0
M  V30 58 H 4.790378 -1.324177 1.694222 0
M  V30 59 H 2.783266 -1.354072 3.030336 0
M  V30 60 H 5.654175 2.002062 3.154504 0
M  V30 61 H 4.638580 2.341051 4.563591 0
M  V30 62 H 6.209522 1.357473 4.715882 0
M  V30 END ATOM
M  V30 BEGIN BOND
M  V30 1 1 1 2
M  V30 2 1 2 3
M  V30 3 1 3 4
M  V30 4 1 4 5
M  V30 5 1 5 6
M  V30 6 1 6 7
M  V30 7 1 7 8
M  V30 8 2 8 9
M  V30 9 1 9 10
M  V30 10 2 10 11
M  V30 11 1 11 12
M  V30 12 2 12 13
M  V30 13 1 13 14
M  V30 14 1 13 15
M  V30 15 2 15 16
M  V30 16 1 9 17
M  V30 17 1 17 18
M  V30 18 2 18 19
M  V30 19 1 19 20
M  V30 20 1 20 21
M  V30 21 2 20 22
M  V30 22 1 22 23
M  V30 23 1 23 24
M  V30 24 2 23 25
M  V30 25 1 25 26
M  V30 26 2 26 27
M  V30 27 1 6 28
M  V30 28 1 28 29
M  V30 29 1 28 30
M  V30 30 1 30 31
M  V30 31 1 30 32
M  V30 32 1 32 33
M  V30 33 1 33 34
M  V30 34 1 34 35
M  V30 35 2 34 36
M  V30 36 1 32 4
M  V30 37 1 26 8
M  V30 38 1 16 10
M  V30 39 1 25 18
M  V30 40 1 1 37
M  V30 41 1 1 38
M  V30 42 1 1 39
M  V30 43 1 2 40
M  V30 44 1 2 41
M  V30 45 1 3 42
M  V30 46 1 3 43
M  V30 47 1 4 44 CFG=1
M  V30 48 1 6 45 CFG=1
M  V30 49 1 11 46
M  V30 50 1 12 47
M  V30 51 1 14 48
M  V30 52 1 15 49
M  V30 53 1 16 50
M  V30 54 1 19 51
M  V30 55 1 21 52
M  V30 56 1 22 53
M  V30 57 1 24 54
M  V30 58 1 28 55 CFG=3
M  V30 59 1 29 56
M  V30 60 1 30 57 CFG=3
M  V30 61 1 31 58
M  V30 62 1 32 59 CFG=1
M  V30 63 1 35 60
M  V30 64 1 35 61
M  V30 65 1 35 62
M  V30 END BOND
M  V30 END CTAB
M  END
>  <Dataset>  (192) 
ChEMBL_Kinases

>  <Ligand_Instance>  (192) 
nan

>  <PDB_ID>  (192) 
nan

>  <Standardized_SMILES>  (192) 
CCC[C@@H]1O[C@@H](Oc2c(-c3ccc(O)cc3)oc3cc(O)cc(O)c3c2=O)[C@H](O)[C@H](O)[C@H]1OC(C)=O

>  <Name>  (192) 
nan

>  <Pocket>  (192) 
nan

>  <ATP_Site>  (192) 
nan

>  <Peripheral>  (192) 
nan

>  <Num_H_Atoms_ProtBoundConf>  (192) 
nan

>  <Num_Resolved_Atoms>  (192) 
nan

>  <Num_Not_Resolved_Atoms>  (192) 
nan

$$$$
CHEMBL2326706
     RDKit          3D

  0  0  0  0  0  0  0  0  0  0999 V3000
M  V30 BEGIN CTAB
M  V30 COUNTS 60 63 0 0 0
M  V30 BEGIN ATOM
M  V30 1 C 4.946908 -3.143220 1.824791 0
M  V30 2 C 3.606903 -2.762545 2.417292 0
M  V30 3 C 2.706504 -3.968878 2.201552 0
M  V30 4 C 3.029295 -1.544862 1.782723 0
M  V30 5 C 1.737551 -1.067730 2.258114 0 CFG=2
M  V30 6 O 1.359746 0.075330 1.545069 0
M  V30 7 C 0.031292 0.338580 1.578847 0 CFG=1
M  V30 8 O -0.650337 -0.723768 0.874481 0
M  V30 9 C -1.595049 -0.468453 -0.088582 0
M  V30 10 C -1.403411 -0.366432 -1.443095 0
M  V30 11 C -0.090136 -0.539363 -2.040079 0
M  V30 12 C 0.011451 -0.109001 -3.345605 0
M  V30 13 C 1.154176 -0.212481 -4.117409 0
M  V30 14 C 2.236738 -0.787245 -3.505196 0
M  V30 15 O 3.424481 -0.916665 -4.241296 0
M  V30 16 C 2.253704 -1.249605 -2.222422 0
M  V30 17 C 1.038964 -1.095909 -1.527985 0
M  V30 18 O -2.416976 -0.109818 -2.207289 0
M  V30 19 C -3.641084 0.069322 -1.852460 0
M  V30 20 C -4.643543 0.340444 -2.787498 0
M  V30 21 C -5.926922 0.517564 -2.316300 0
M  V30 22 O -6.869542 0.785080 -3.329310 0
M  V30 23 C -6.276535 0.443134 -0.986272 0
M  V30 24 C -5.280013 0.174191 -0.054973 0
M  V30 25 O -5.539243 0.082715 1.301855 0
M  V30 26 C -3.983623 -0.009824 -0.481890 0
M  V30 27 C -2.902265 -0.285625 0.363181 0
M  V30 28 O -3.287347 -0.340418 1.562088 0
M  V30 29 C -0.538774 0.360251 2.985171 0 CFG=2
M  V30 30 O -1.261900 1.532514 3.147109 0
M  V30 31 C 0.620308 0.396233 3.961850 0 CFG=2
M  V30 32 O 1.234470 1.632492 4.045072 0
M  V30 33 C 1.582293 -0.745563 3.705203 0 CFG=1
M  V30 34 O 1.014125 -1.866642 4.316649 0
M  V30 35 H 5.714735 -2.365848 1.979557 0
M  V30 36 H 4.833392 -3.230699 0.708437 0
M  V30 37 H 5.304181 -4.123490 2.159022 0
M  V30 38 H 3.743408 -2.693750 3.510345 0
M  V30 39 H 2.970196 -4.740655 2.970792 0
M  V30 40 H 2.916891 -4.448309 1.210943 0
M  V30 41 H 1.643954 -3.742780 2.342148 0
M  V30 42 H 3.008588 -1.717929 0.687851 0
M  V30 43 H 3.836468 -0.753707 1.875640 0
M  V30 44 H 0.941274 -1.800096 2.006756 0
M  V30 45 H -0.308859 1.237933 1.071496 0
M  V30 46 H -0.817319 0.362340 -3.897868 0
M  V30 47 H 1.214337 0.129967 -5.137066 0
M  V30 48 H 3.559733 -0.426498 -5.111740 0
M  V30 49 H 3.069444 -1.706589 -1.690232 0
M  V30 50 H 0.981211 -1.468281 -0.526901 0
M  V30 51 H -4.388693 0.402396 -3.849183 0
M  V30 52 H -7.127305 0.053466 -3.970307 0
M  V30 53 H -7.302719 0.588084 -0.669199 0
M  V30 54 H -5.806424 -0.846352 1.650643 0
M  V30 55 H -1.154622 -0.526867 3.223264 0
M  V30 56 H -0.833376 2.312768 2.730809 0
M  V30 57 H 0.166267 0.224825 4.959065 0
M  V30 58 H 1.584231 1.899753 3.181693 0
M  V30 59 H 2.495809 -0.528629 4.264166 0
M  V30 60 H 0.029668 -1.869820 4.261355 0
M  V30 END ATOM
M  V30 BEGIN BOND
M  V30 1 1 1 2
M  V30 2 1 2 3
M  V30 3 1 2 4
M  V30 4 1 4 5
M  V30 5 1 5 6
M  V30 6 1 6 7
M  V30 7 1 7 8
M  V30 8 1 8 9
M  V30 9 2 9 10
M  V30 10 1 10 11
M  V30 11 2 11 12
M  V30 12 1 12 13
M  V30 13 2 13 14
M  V30 14 1 14 15
M  V30 15 1 14 16
M  V30 16 2 16 17
M  V30 17 1 10 18
M  V30 18 1 18 19
M  V30 19 2 19 20
M  V30 20 1 20 21
M  V30 21 1 21 22
M  V30 22 2 21 23
M  V30 23 1 23 24
M  V30 24 1 24 25
M  V30 25 2 24 26
M  V30 26 1 26 27
M  V30 27 2 27 28
M  V30 28 1 7 29
M  V30 29 1 29 30
M  V30 30 1 29 31
M  V30 31 1 31 32
M  V30 32 1 31 33
M  V30 33 1 33 34
M  V30 34 1 33 5
M  V30 35 1 27 9
M  V30 36 1 17 11
M  V30 37 1 26 19
M  V30 38 1 1 35
M  V30 39 1 1 36
M  V30 40 1 1 37
M  V30 41 1 2 38
M  V30 42 1 3 39
M  V30 43 1 3 40
M  V30 44 1 3 41
M  V30 45 1 4 42
M  V30 46 1 4 43
M  V30 47 1 5 44 CFG=3
M  V30 48 1 7 45 CFG=3
M  V30 49 1 12 46
M  V30 50 1 13 47
M  V30 51 1 15 48
M  V30 52 1 16 49
M  V30 53 1 17 50
M  V30 54 1 20 51
M  V30 55 1 22 52
M  V30 56 1 23 53
M  V30 57 1 25 54
M  V30 58 1 29 55 CFG=1
M  V30 59 1 30 56
M  V30 60 1 31 57 CFG=1
M  V30 61 1 32 58
M  V30 62 1 33 59 CFG=1
M  V30 63 1 34 60
M  V30 END BOND
M  V30 END CTAB
M  END
>  <Dataset>  (193) 
ChEMBL_Kinases

>  <Ligand_Instance>  (193) 
nan

>  <PDB_ID>  (193) 
nan

>  <Standardized_SMILES>  (193) 
CC(C)C[C@@H]1O[C@@H](Oc2c(-c3ccc(O)cc3)oc3cc(O)cc(O)c3c2=O)[C@H](O)[C@H](O)[C@H]1O

>  <Name>  (193) 
nan

>  <Pocket>  (193) 
nan

>  <ATP_Site>  (193) 
nan

>  <Peripheral>  (193) 
nan

>  <Num_H_Atoms_ProtBoundConf>  (193) 
nan

>  <Num_Resolved_Atoms>  (193) 
nan

>  <Num_Not_Resolved_Atoms>  (193) 
nan

$$$$
CHEMBL2326705
     RDKit          3D

  0  0  0  0  0  0  0  0  0  0999 V3000
M  V30 BEGIN CTAB
M  V30 COUNTS 57 60 0 0 0
M  V30 BEGIN ATOM
M  V30 1 C 1.165448 -4.974747 1.593656 0
M  V30 2 C 2.644902 -4.755035 1.530059 0
M  V30 3 C 3.078743 -3.331420 1.600849 0
M  V30 4 C 2.563890 -2.455944 0.506075 0 CFG=2
M  V30 5 O 1.174116 -2.465598 0.539896 0
M  V30 6 C 0.620380 -1.414497 -0.182203 0 CFG=1
M  V30 7 O 0.468435 -0.293924 0.668708 0
M  V30 8 C -0.769519 0.218790 1.000173 0
M  V30 9 C -1.467554 1.259996 0.455422 0
M  V30 10 C -0.909750 2.030606 -0.631622 0
M  V30 11 C -1.806625 2.883356 -1.236225 0
M  V30 12 C -1.383638 3.720756 -2.272801 0
M  V30 13 C -0.083573 3.745960 -2.741493 0
M  V30 14 O 0.255119 4.603244 -3.772955 0
M  V30 15 C 0.812101 2.891991 -2.134044 0
M  V30 16 C 0.363785 2.087208 -1.122780 0
M  V30 17 O -2.647511 1.545797 0.939016 0
M  V30 18 C -3.200123 0.872245 1.939044 0
M  V30 19 C -4.450149 1.317141 2.314781 0
M  V30 20 C -5.041733 0.633457 3.347954 0
M  V30 21 O -6.294669 0.921354 3.874740 0
M  V30 22 C -4.447867 -0.440419 3.995174 0
M  V30 23 C -3.191345 -0.863391 3.595100 0
M  V30 24 O -2.483433 -1.922554 4.155197 0
M  V30 25 C -2.568823 -0.192321 2.553620 0
M  V30 26 C -1.304594 -0.509046 2.042888 0
M  V30 27 O -0.776771 -1.502413 2.654811 0
M  V30 28 C 1.329924 -1.226638 -1.461391 0 CFG=2
M  V30 29 O 0.464529 -0.815670 -2.487772 0
M  V30 30 C 1.961214 -2.572771 -1.857013 0 CFG=2
M  V30 31 O 0.970416 -3.535074 -1.840795 0
M  V30 32 C 3.073075 -2.898213 -0.850351 0 CFG=1
M  V30 33 O 4.155973 -2.088106 -1.181887 0
M  V30 34 H 0.733562 -4.748274 0.608877 0
M  V30 35 H 0.661777 -4.360599 2.355629 0
M  V30 36 H 0.964012 -6.065568 1.773615 0
M  V30 37 H 3.033860 -5.234557 0.606608 0
M  V30 38 H 3.072005 -5.268579 2.431128 0
M  V30 39 H 4.193807 -3.325993 1.560436 0
M  V30 40 H 2.776312 -2.920118 2.604453 0
M  V30 41 H 2.892839 -1.407529 0.659124 0
M  V30 42 H -0.411809 -1.743953 -0.437447 0
M  V30 43 H -2.849128 2.962688 -0.967555 0
M  V30 44 H -2.097128 4.386370 -2.734379 0
M  V30 45 H 1.162469 5.052440 -3.772026 0
M  V30 46 H 1.826712 2.866822 -2.451589 0
M  V30 47 H 1.090432 1.450987 -0.649474 0
M  V30 48 H -4.991312 2.138555 1.873851 0
M  V30 49 H -7.060725 0.261365 3.753116 0
M  V30 50 H -4.860155 -1.004477 4.800245 0
M  V30 51 H -2.418685 -2.843853 3.722869 0
M  V30 52 H 2.196897 -0.513800 -1.392508 0
M  V30 53 H 1.003382 -0.426078 -3.239251 0
M  V30 54 H 2.417282 -2.499509 -2.857939 0
M  V30 55 H 0.240136 -3.227439 -2.421288 0
M  V30 56 H 3.410016 -3.932536 -0.898048 0
M  V30 57 H 4.801082 -2.584236 -1.771189 0
M  V30 END ATOM
M  V30 BEGIN BOND
M  V30 1 1 1 2
M  V30 2 1 2 3
M  V30 3 1 3 4
M  V30 4 1 4 5
M  V30 5 1 5 6
M  V30 6 1 6 7
M  V30 7 1 7 8
M  V30 8 2 8 9
M  V30 9 1 9 10
M  V30 10 2 10 11
M  V30 11 1 11 12
M  V30 12 2 12 13
M  V30 13 1 13 14
M  V30 14 1 13 15
M  V30 15 2 15 16
M  V30 16 1 9 17
M  V30 17 1 17 18
M  V30 18 2 18 19
M  V30 19 1 19 20
M  V30 20 1 20 21
M  V30 21 2 20 22
M  V30 22 1 22 23
M  V30 23 1 23 24
M  V30 24 2 23 25
M  V30 25 1 25 26
M  V30 26 2 26 27
M  V30 27 1 6 28
M  V30 28 1 28 29
M  V30 29 1 28 30
M  V30 30 1 30 31
M  V30 31 1 30 32
M  V30 32 1 32 33
M  V30 33 1 32 4
M  V30 34 1 26 8
M  V30 35 1 16 10
M  V30 36 1 25 18
M  V30 37 1 1 34
M  V30 38 1 1 35
M  V30 39 1 1 36
M  V30 40 1 2 37
M  V30 41 1 2 38
M  V30 42 1 3 39
M  V30 43 1 3 40
M  V30 44 1 4 41 CFG=1
M  V30 45 1 6 42 CFG=3
M  V30 46 1 11 43
M  V30 47 1 12 44
M  V30 48 1 14 45
M  V30 49 1 15 46
M  V30 50 1 16 47
M  V30 51 1 19 48
M  V30 52 1 21 49
M  V30 53 1 22 50
M  V30 54 1 24 51
M  V30 55 1 28 52 CFG=1
M  V30 56 1 29 53
M  V30 57 1 30 54 CFG=3
M  V30 58 1 31 55
M  V30 59 1 32 56 CFG=1
M  V30 60 1 33 57
M  V30 END BOND
M  V30 END CTAB
M  END
>  <Dataset>  (194) 
ChEMBL_Kinases

>  <Ligand_Instance>  (194) 
nan

>  <PDB_ID>  (194) 
nan

>  <Standardized_SMILES>  (194) 
CCC[C@@H]1O[C@@H](Oc2c(-c3ccc(O)cc3)oc3cc(O)cc(O)c3c2=O)[C@H](O)[C@H](O)[C@H]1O

>  <Name>  (194) 
nan

>  <Pocket>  (194) 
nan

>  <ATP_Site>  (194) 
nan

>  <Peripheral>  (194) 
nan

>  <Num_H_Atoms_ProtBoundConf>  (194) 
nan

>  <Num_Resolved_Atoms>  (194) 
nan

>  <Num_Not_Resolved_Atoms>  (194) 
nan

$$$$
CHEMBL2326704
     RDKit          3D

  0  0  0  0  0  0  0  0  0  0999 V3000
M  V30 BEGIN CTAB
M  V30 COUNTS 54 57 0 0 0
M  V30 BEGIN ATOM
M  V30 1 C 3.446404 -0.469446 4.837722 0
M  V30 2 C 2.185597 -0.778978 4.099696 0
M  V30 3 C 2.222010 -0.414512 2.627441 0 CFG=2
M  V30 4 O 1.011281 -0.761218 2.127643 0
M  V30 5 C 0.884900 -1.397994 0.975175 0 CFG=1
M  V30 6 O 0.617231 -0.583133 -0.181730 0
M  V30 7 C -0.590619 -0.670233 -0.847626 0
M  V30 8 C -1.683915 0.127704 -0.624812 0
M  V30 9 C -1.694418 1.190659 0.347703 0
M  V30 10 C -0.694767 1.776737 1.077483 0
M  V30 11 C -0.835389 2.756598 2.010624 0
M  V30 12 C -2.076809 3.249842 2.293491 0
M  V30 13 O -2.251114 4.235622 3.227546 0
M  V30 14 C -3.143970 2.717784 1.603991 0
M  V30 15 C -2.945882 1.726599 0.669508 0
M  V30 16 O -2.748719 -0.116376 -1.347848 0
M  V30 17 C -2.832477 -1.052063 -2.252297 0
M  V30 18 C -4.047442 -1.178011 -2.936099 0
M  V30 19 C -4.145563 -2.166054 -3.895854 0
M  V30 20 O -5.314755 -2.389200 -4.648302 0
M  V30 21 C -3.093758 -3.020869 -4.195436 0
M  V30 22 C -1.887051 -2.900892 -3.520798 0
M  V30 23 O -0.780102 -3.700738 -3.743396 0
M  V30 24 C -1.795929 -1.909375 -2.561132 0
M  V30 25 C -0.640922 -1.679603 -1.806980 0
M  V30 26 O 0.296097 -2.476934 -2.107903 0
M  V30 27 C 1.968223 -2.355653 0.579666 0 CFG=2
M  V30 28 O 1.488106 -3.680029 0.468744 0
M  V30 29 C 3.128336 -2.408100 1.548402 0 CFG=2
M  V30 30 O 2.873733 -3.245189 2.627329 0
M  V30 31 C 3.413132 -0.997681 1.938458 0 CFG=1
M  V30 32 O 3.641623 -0.277547 0.767550 0
M  V30 33 H 3.888294 0.499847 4.587870 0
M  V30 34 H 3.164923 -0.424798 5.928778 0
M  V30 35 H 4.219360 -1.258177 4.789648 0
M  V30 36 H 1.937112 -1.843841 4.268834 0
M  V30 37 H 1.342351 -0.211179 4.580260 0
M  V30 38 H 2.323336 0.690542 2.586278 0
M  V30 39 H -0.062148 -2.010139 1.044742 0
M  V30 40 H 0.289701 1.427858 0.854862 0
M  V30 41 H 0.041742 3.133246 2.518415 0
M  V30 42 H -1.711204 5.102297 3.118415 0
M  V30 43 H -4.132340 3.082521 1.802614 0
M  V30 44 H -3.841508 1.361167 0.169534 0
M  V30 45 H -4.906947 -0.546891 -2.752673 0
M  V30 46 H -6.041723 -1.667253 -4.608792 0
M  V30 47 H -3.170377 -3.791903 -4.944885 0
M  V30 48 H -0.958444 -4.640984 -4.083241 0
M  V30 49 H 2.403612 -2.112103 -0.408662 0
M  V30 50 H 2.186415 -4.166948 -0.042145 0
M  V30 51 H 4.010928 -2.789749 0.997047 0
M  V30 52 H 2.450888 -4.069255 2.310932 0
M  V30 53 H 4.292465 -0.954370 2.601692 0
M  V30 54 H 4.191451 0.514944 0.931219 0
M  V30 END ATOM
M  V30 BEGIN BOND
M  V30 1 1 1 2
M  V30 2 1 2 3
M  V30 3 1 3 4
M  V30 4 1 4 5
M  V30 5 1 5 6
M  V30 6 1 6 7
M  V30 7 2 7 8
M  V30 8 1 8 9
M  V30 9 2 9 10
M  V30 10 1 10 11
M  V30 11 2 11 12
M  V30 12 1 12 13
M  V30 13 1 12 14
M  V30 14 2 14 15
M  V30 15 1 8 16
M  V30 16 1 16 17
M  V30 17 2 17 18
M  V30 18 1 18 19
M  V30 19 1 19 20
M  V30 20 2 19 21
M  V30 21 1 21 22
M  V30 22 1 22 23
M  V30 23 2 22 24
M  V30 24 1 24 25
M  V30 25 2 25 26
M  V30 26 1 5 27
M  V30 27 1 27 28
M  V30 28 1 27 29
M  V30 29 1 29 30
M  V30 30 1 29 31
M  V30 31 1 31 32
M  V30 32 1 31 3
M  V30 33 1 25 7
M  V30 34 1 15 9
M  V30 35 1 24 17
M  V30 36 1 1 33
M  V30 37 1 1 34
M  V30 38 1 1 35
M  V30 39 1 2 36
M  V30 40 1 2 37
M  V30 41 1 3 38 CFG=1
M  V30 42 1 5 39 CFG=1
M  V30 43 1 10 40
M  V30 44 1 11 41
M  V30 45 1 13 42
M  V30 46 1 14 43
M  V30 47 1 15 44
M  V30 48 1 18 45
M  V30 49 1 20 46
M  V30 50 1 21 47
M  V30 51 1 23 48
M  V30 52 1 27 49 CFG=3
M  V30 53 1 28 50
M  V30 54 1 29 51 CFG=3
M  V30 55 1 30 52
M  V30 56 1 31 53 CFG=1
M  V30 57 1 32 54
M  V30 END BOND
M  V30 END CTAB
M  END
>  <Dataset>  (195) 
ChEMBL_Kinases

>  <Ligand_Instance>  (195) 
nan

>  <PDB_ID>  (195) 
nan

>  <Standardized_SMILES>  (195) 
CC[C@@H]1O[C@@H](Oc2c(-c3ccc(O)cc3)oc3cc(O)cc(O)c3c2=O)[C@H](O)[C@H](O)[C@H]1O

>  <Name>  (195) 
nan

>  <Pocket>  (195) 
nan

>  <ATP_Site>  (195) 
nan

>  <Peripheral>  (195) 
nan

>  <Num_H_Atoms_ProtBoundConf>  (195) 
nan

>  <Num_Resolved_Atoms>  (195) 
nan

>  <Num_Not_Resolved_Atoms>  (195) 
nan

$$$$
CHEMBL232610
     RDKit          3D

  0  0  0  0  0  0  0  0  0  0999 V3000
M  V30 BEGIN CTAB
M  V30 COUNTS 48 52 0 0 0
M  V30 BEGIN ATOM
M  V30 1 N 1.986036 -1.664764 3.869821 0
M  V30 2 C 1.231576 -1.568068 2.968720 0
M  V30 3 C 0.302565 -1.472309 1.877962 0
M  V30 4 C 0.599459 -0.728093 0.804926 0
M  V30 5 N 1.606839 0.089221 0.294654 0
M  V30 6 C 2.869249 0.511456 0.742101 0
M  V30 7 O 3.288544 0.117424 1.850759 0
M  V30 8 C 3.901047 1.364080 0.194577 0
M  V30 9 C 4.957317 0.725834 -0.420208 0
M  V30 10 C 5.946873 1.557328 -0.940456 0
M  V30 11 C 5.897347 2.932235 -0.859178 0
M  V30 12 C 4.816784 3.522455 -0.232704 0
M  V30 13 C 4.707797 4.905039 -0.118347 0
M  V30 14 C 3.613630 5.496296 0.515028 0
M  V30 15 C 2.595572 4.705553 1.052591 0
M  V30 16 C 2.725424 3.339589 0.927270 0
M  V30 17 C 3.793432 2.733833 0.307895 0
M  V30 18 S -0.836247 -0.930386 -0.236849 0
M  V30 19 C -1.751382 -2.023872 0.868705 0
M  V30 20 C -0.882808 -2.134362 1.926025 0
M  V30 21 C -1.546573 -3.028774 2.912031 0
M  V30 22 C -2.984025 -2.564485 3.160021 0
M  V30 23 C -3.827024 -2.855057 1.931161 0
M  V30 24 N -3.006054 -2.642671 0.779940 0
M  V30 25 C -3.421489 -3.045686 -0.518472 0
M  V30 26 O -2.786211 -2.903161 -1.571021 0
M  V30 27 C -4.733477 -3.702468 -0.665312 0
M  V30 28 C -5.056640 -4.975755 -0.218578 0
M  V30 29 C -6.383670 -5.247391 -0.535705 0
M  V30 30 N -6.814714 -4.122293 -1.166419 0
M  V30 31 N -5.845498 -3.226671 -1.237186 0
M  V30 32 H 1.551705 0.575858 -0.637277 0
M  V30 33 H 5.056105 -0.346353 -0.518160 0
M  V30 34 H 6.796065 1.092230 -1.433433 0
M  V30 35 H 6.675696 3.570882 -1.267068 0
M  V30 36 H 5.499600 5.515674 -0.535889 0
M  V30 37 H 3.532212 6.580895 0.603030 0
M  V30 38 H 1.764561 5.202826 1.534574 0
M  V30 39 H 1.928320 2.747795 1.349040 0
M  V30 40 H -1.572591 -4.087303 2.591299 0
M  V30 41 H -1.062054 -2.999143 3.916899 0
M  V30 42 H -3.347431 -3.116709 4.037786 0
M  V30 43 H -2.968765 -1.458937 3.288572 0
M  V30 44 H -4.253329 -3.856818 2.031394 0
M  V30 45 H -4.647728 -2.092151 1.922103 0
M  V30 46 H -4.422705 -5.691683 0.298981 0
M  V30 47 H -7.013747 -6.106491 -0.368735 0
M  V30 48 H -7.735566 -3.861866 -1.582144 0
M  V30 END ATOM
M  V30 BEGIN BOND
M  V30 1 3 1 2
M  V30 2 1 2 3
M  V30 3 2 3 4
M  V30 4 1 4 5
M  V30 5 1 5 6
M  V30 6 2 6 7
M  V30 7 1 6 8
M  V30 8 2 8 9
M  V30 9 1 9 10
M  V30 10 2 10 11
M  V30 11 1 11 12
M  V30 12 2 12 13
M  V30 13 1 13 14
M  V30 14 2 14 15
M  V30 15 1 15 16
M  V30 16 2 16 17
M  V30 17 1 4 18
M  V30 18 1 18 19
M  V30 19 2 19 20
M  V30 20 1 20 21
M  V30 21 1 21 22
M  V30 22 1 22 23
M  V30 23 1 23 24
M  V30 24 1 24 25
M  V30 25 2 25 26
M  V30 26 1 25 27
M  V30 27 1 27 28
M  V30 28 2 28 29
M  V30 29 1 29 30
M  V30 30 1 30 31
M  V30 31 1 20 3
M  V30 32 2 31 27
M  V30 33 1 17 8
M  V30 34 1 24 19
M  V30 35 1 17 12
M  V30 36 1 5 32
M  V30 37 1 9 33
M  V30 38 1 10 34
M  V30 39 1 11 35
M  V30 40 1 13 36
M  V30 41 1 14 37
M  V30 42 1 15 38
M  V30 43 1 16 39
M  V30 44 1 21 40
M  V30 45 1 21 41
M  V30 46 1 22 42
M  V30 47 1 22 43
M  V30 48 1 23 44
M  V30 49 1 23 45
M  V30 50 1 28 46
M  V30 51 1 29 47
M  V30 52 1 30 48
M  V30 END BOND
M  V30 END CTAB
M  END
>  <Dataset>  (196) 
ChEMBL_Kinases

>  <Ligand_Instance>  (196) 
nan

>  <PDB_ID>  (196) 
nan

>  <Standardized_SMILES>  (196) 
N#Cc1c(NC(=O)c2cccc3ccccc23)sc2c1CCCN2C(=O)c1cc[nH]n1

>  <Name>  (196) 
nan

>  <Pocket>  (196) 
nan

>  <ATP_Site>  (196) 
nan

>  <Peripheral>  (196) 
nan

>  <Num_H_Atoms_ProtBoundConf>  (196) 
nan

>  <Num_Resolved_Atoms>  (196) 
nan

>  <Num_Not_Resolved_Atoms>  (196) 
nan

$$$$
CHEMBL2326010
     RDKit          3D

  0  0  0  0  0  0  0  0  0  0999 V3000
M  V30 BEGIN CTAB
M  V30 COUNTS 53 56 0 0 0
M  V30 BEGIN ATOM
M  V30 1 C 3.030848 -3.761078 3.001403 0
M  V30 2 C 3.609623 -2.377400 2.942601 0
M  V30 3 C 3.124470 -1.570854 4.106884 0
M  V30 4 C 3.414522 -1.682039 1.640413 0 CFG=1
M  V30 5 C 4.073730 -0.301078 1.790483 0
M  V30 6 O 4.097215 -2.316055 0.619359 0
M  V30 7 C 1.978921 -1.530540 1.243949 0 CFG=1
M  V30 8 C 1.886238 -0.748346 -0.073975 0
M  V30 9 N 0.466175 -0.566517 -0.278211 0
M  V30 10 C -0.252470 0.654038 -0.214988 0
M  V30 11 C 0.350252 1.841405 0.134117 0
M  V30 12 C -0.367100 3.018696 0.185964 0
M  V30 13 C -1.703409 2.902571 -0.134000 0
M  V30 14 F -2.433994 4.063655 -0.087956 0
M  V30 15 C -2.336367 1.719791 -0.488999 0
M  V30 16 C -3.755233 1.760095 -0.801049 0
M  V30 17 N -4.540562 2.872421 -0.774996 0
M  V30 18 N -5.772977 2.544748 -1.113195 0
M  V30 19 C -5.890400 1.227441 -1.380595 0
M  V30 20 N -6.886570 0.406328 -1.755909 0
M  V30 21 C -6.682381 -0.924412 -1.953432 0
M  V30 22 C -5.411215 -1.469873 -1.766197 0
M  V30 23 C -4.417093 -0.594321 -1.381331 0
M  V30 24 C -4.611079 0.755500 -1.178012 0
M  V30 25 N -1.554292 0.640742 -0.508627 0
M  V30 26 C -0.183403 -1.830049 -0.564988 0
M  V30 27 C 0.023511 -2.772133 0.602511 0
M  V30 28 N 1.411445 -2.836539 1.006360 0
M  V30 29 H 3.429006 -4.330511 3.881764 0
M  V30 30 H 1.933708 -3.720422 3.150110 0
M  V30 31 H 3.264183 -4.381165 2.127381 0
M  V30 32 H 4.722683 -2.482360 3.076420 0
M  V30 33 H 2.059288 -1.271939 4.012327 0
M  V30 34 H 3.796674 -0.720927 4.345866 0
M  V30 35 H 3.154173 -2.243348 5.009258 0
M  V30 36 H 4.325216 0.103059 0.775386 0
M  V30 37 H 4.998028 -0.471345 2.384100 0
M  V30 38 H 3.431007 0.395344 2.332678 0
M  V30 39 H 4.771266 -2.963757 0.932471 0
M  V30 40 H 1.399226 -1.047130 2.029607 0
M  V30 41 H 2.311910 -1.427073 -0.850091 0
M  V30 42 H 2.371626 0.221280 -0.034918 0
M  V30 43 H 1.398045 1.916497 0.383415 0
M  V30 44 H 0.053937 3.978628 0.453335 0
M  V30 45 H -6.574018 3.226656 -1.169503 0
M  V30 46 H -7.506181 -1.578824 -2.259300 0
M  V30 47 H -5.221384 -2.523288 -1.916239 0
M  V30 48 H -3.452814 -1.011837 -1.240258 0
M  V30 49 H 0.387055 -2.282424 -1.428032 0
M  V30 50 H -1.244312 -1.734892 -0.774631 0
M  V30 51 H -0.226515 -3.795404 0.223156 0
M  V30 52 H -0.650242 -2.583935 1.454748 0
M  V30 53 H 1.986098 -3.411060 0.350971 0
M  V30 END ATOM
M  V30 BEGIN BOND
M  V30 1 1 1 2
M  V30 2 1 2 3
M  V30 3 1 2 4
M  V30 4 1 4 5
M  V30 5 1 4 6 CFG=3
M  V30 6 1 4 7
M  V30 7 1 7 8
M  V30 8 1 8 9
M  V30 9 1 9 10
M  V30 10 2 10 11
M  V30 11 1 11 12
M  V30 12 2 12 13
M  V30 13 1 13 14
M  V30 14 1 13 15
M  V30 15 1 15 16
M  V30 16 2 16 17
M  V30 17 1 17 18
M  V30 18 1 18 19
M  V30 19 2 19 20
M  V30 20 1 20 21
M  V30 21 2 21 22
M  V30 22 1 22 23
M  V30 23 2 23 24
M  V30 24 2 15 25
M  V30 25 1 9 26
M  V30 26 1 26 27
M  V30 27 1 27 28
M  V30 28 1 28 7
M  V30 29 1 25 10
M  V30 30 1 24 16
M  V30 31 1 24 19
M  V30 32 1 1 29
M  V30 33 1 1 30
M  V30 34 1 1 31
M  V30 35 1 2 32
M  V30 36 1 3 33
M  V30 37 1 3 34
M  V30 38 1 3 35
M  V30 39 1 5 36
M  V30 40 1 5 37
M  V30 41 1 5 38
M  V30 42 1 6 39
M  V30 43 1 7 40 CFG=1
M  V30 44 1 8 41
M  V30 45 1 8 42
M  V30 46 1 11 43
M  V30 47 1 12 44
M  V30 48 1 18 45
M  V30 49 1 21 46
M  V30 50 1 22 47
M  V30 51 1 23 48
M  V30 52 1 26 49
M  V30 53 1 26 50
M  V30 54 1 27 51
M  V30 55 1 27 52
M  V30 56 1 28 53
M  V30 END BOND
M  V30 END CTAB
M  END
>  <Dataset>  (197) 
ChEMBL_Kinases

>  <Ligand_Instance>  (197) 
nan

>  <PDB_ID>  (197) 
nan

>  <Standardized_SMILES>  (197) 
CC(C)[C@@](C)(O)[C@H]1CN(c2ccc(F)c(-c3n[nH]c4ncccc34)n2)CCN1

>  <Name>  (197) 
nan

>  <Pocket>  (197) 
nan

>  <ATP_Site>  (197) 
nan

>  <Peripheral>  (197) 
nan

>  <Num_H_Atoms_ProtBoundConf>  (197) 
nan

>  <Num_Resolved_Atoms>  (197) 
nan

>  <Num_Not_Resolved_Atoms>  (197) 
nan

$$$$
CHEMBL2326008
     RDKit          3D

  0  0  0  0  0  0  0  0  0  0999 V3000
M  V30 BEGIN CTAB
M  V30 COUNTS 53 56 0 0 0
M  V30 BEGIN ATOM
M  V30 1 C 2.072975 -2.643620 4.033381 0
M  V30 2 C 3.270752 -2.576183 3.114405 0
M  V30 3 C 4.504686 -2.298657 3.943419 0
M  V30 4 C 3.100773 -1.551170 2.024419 0 CFG=2
M  V30 5 C 4.302352 -1.493859 1.114706 0
M  V30 6 O 3.034508 -0.295550 2.658996 0
M  V30 7 C 1.846604 -1.689956 1.254053 0 CFG=1
M  V30 8 C 1.838049 -0.583909 0.188520 0
M  V30 9 N 0.442726 -0.454942 -0.174023 0
M  V30 10 C -0.358022 0.706863 -0.018307 0
M  V30 11 C 0.145142 1.854625 0.552889 0
M  V30 12 C -0.666163 2.968510 0.686313 0
M  V30 13 C -1.961192 2.838841 0.220741 0
M  V30 14 F -2.784744 3.917186 0.337522 0
M  V30 15 C -2.475803 1.694464 -0.353027 0
M  V30 16 C -3.857161 1.659099 -0.815297 0
M  V30 17 N -4.727870 2.708442 -0.720176 0
M  V30 18 N -5.886249 2.370794 -1.219925 0
M  V30 19 C -5.878935 1.096791 -1.677837 0
M  V30 20 N -6.777848 0.294195 -2.261424 0
M  V30 21 C -6.485632 -0.964744 -2.621523 0
M  V30 22 C -5.201978 -1.426940 -2.369981 0
M  V30 23 C -4.256330 -0.605234 -1.764223 0
M  V30 24 C -4.578691 0.674092 -1.406521 0
M  V30 25 N -1.619973 0.659941 -0.443755 0
M  V30 26 C -0.079252 -1.683990 -0.735782 0
M  V30 27 C 0.380250 -2.929574 -0.066673 0
M  V30 28 N 1.681962 -2.911021 0.509885 0
M  V30 29 H 1.394536 -3.457019 3.697071 0
M  V30 30 H 2.446961 -2.970546 5.031070 0
M  V30 31 H 1.579978 -1.677589 4.177135 0
M  V30 32 H 3.395786 -3.570955 2.648376 0
M  V30 33 H 4.456191 -1.265246 4.300546 0
M  V30 34 H 5.377633 -2.448983 3.283794 0
M  V30 35 H 4.489703 -3.029771 4.777419 0
M  V30 36 H 5.148408 -1.124102 1.751153 0
M  V30 37 H 4.532402 -2.452208 0.619995 0
M  V30 38 H 4.163467 -0.732262 0.343732 0
M  V30 39 H 3.906933 0.077314 2.861020 0
M  V30 40 H 0.965278 -1.546281 1.889995 0
M  V30 41 H 2.271215 0.286313 0.678451 0
M  V30 42 H 2.421105 -0.922280 -0.700026 0
M  V30 43 H 1.142317 1.945773 0.908215 0
M  V30 44 H -0.341260 3.903688 1.124117 0
M  V30 45 H -6.730538 3.014549 -1.262746 0
M  V30 46 H -7.219934 -1.594343 -3.088958 0
M  V30 47 H -4.950381 -2.438494 -2.653850 0
M  V30 48 H -3.278277 -0.971610 -1.578355 0
M  V30 49 H -1.185355 -1.660467 -0.669435 0
M  V30 50 H 0.182255 -1.694848 -1.825333 0
M  V30 51 H 0.280436 -3.754499 -0.831702 0
M  V30 52 H -0.342219 -3.178071 0.761499 0
M  V30 53 H 2.454488 -3.086538 -0.166359 0
M  V30 END ATOM
M  V30 BEGIN BOND
M  V30 1 1 1 2
M  V30 2 1 2 3
M  V30 3 1 2 4
M  V30 4 1 4 5
M  V30 5 1 4 6 CFG=1
M  V30 6 1 4 7
M  V30 7 1 7 8
M  V30 8 1 8 9
M  V30 9 1 9 10
M  V30 10 2 10 11
M  V30 11 1 11 12
M  V30 12 2 12 13
M  V30 13 1 13 14
M  V30 14 1 13 15
M  V30 15 1 15 16
M  V30 16 2 16 17
M  V30 17 1 17 18
M  V30 18 1 18 19
M  V30 19 2 19 20
M  V30 20 1 20 21
M  V30 21 2 21 22
M  V30 22 1 22 23
M  V30 23 2 23 24
M  V30 24 2 15 25
M  V30 25 1 9 26
M  V30 26 1 26 27
M  V30 27 1 27 28
M  V30 28 1 28 7
M  V30 29 1 25 10
M  V30 30 1 24 16
M  V30 31 1 24 19
M  V30 32 1 1 29
M  V30 33 1 1 30
M  V30 34 1 1 31
M  V30 35 1 2 32
M  V30 36 1 3 33
M  V30 37 1 3 34
M  V30 38 1 3 35
M  V30 39 1 5 36
M  V30 40 1 5 37
M  V30 41 1 5 38
M  V30 42 1 6 39
M  V30 43 1 7 40 CFG=1
M  V30 44 1 8 41
M  V30 45 1 8 42
M  V30 46 1 11 43
M  V30 47 1 12 44
M  V30 48 1 18 45
M  V30 49 1 21 46
M  V30 50 1 22 47
M  V30 51 1 23 48
M  V30 52 1 26 49
M  V30 53 1 26 50
M  V30 54 1 27 51
M  V30 55 1 27 52
M  V30 56 1 28 53
M  V30 END BOND
M  V30 END CTAB
M  END
>  <Dataset>  (198) 
ChEMBL_Kinases

>  <Ligand_Instance>  (198) 
nan

>  <PDB_ID>  (198) 
nan

>  <Standardized_SMILES>  (198) 
CC(C)[C@](C)(O)[C@H]1CN(c2ccc(F)c(-c3n[nH]c4ncccc34)n2)CCN1

>  <Name>  (198) 
nan

>  <Pocket>  (198) 
nan

>  <ATP_Site>  (198) 
nan

>  <Peripheral>  (198) 
nan

>  <Num_H_Atoms_ProtBoundConf>  (198) 
nan

>  <Num_Resolved_Atoms>  (198) 
nan

>  <Num_Not_Resolved_Atoms>  (198) 
nan

$$$$
CHEMBL2326006
     RDKit          3D

  0  0  0  0  0  0  0  0  0  0999 V3000
M  V30 BEGIN CTAB
M  V30 COUNTS 44 47 0 0 0
M  V30 BEGIN ATOM
M  V30 1 C -1.032194 -5.118331 1.677369 0
M  V30 2 O -0.498916 -4.016621 2.328399 0
M  V30 3 C -0.534451 -2.886850 1.523903 0
M  V30 4 C 0.236942 -3.041729 0.257041 0 CFG=1
M  V30 5 C 0.218959 -1.788541 -0.589336 0
M  V30 6 N 1.545189 -1.234472 -0.774400 0
M  V30 7 C 1.975089 0.059214 -0.373265 0
M  V30 8 C 3.253204 0.529607 -0.588965 0
M  V30 9 C 3.633871 1.791422 -0.184729 0
M  V30 10 C 2.649338 2.527195 0.440024 0
M  V30 11 F 2.985770 3.773224 0.851967 0
M  V30 12 C 1.360553 2.082893 0.670088 0
M  V30 13 C 0.422808 2.971844 1.344212 0
M  V30 14 N 0.695425 4.236329 1.783856 0
M  V30 15 N -0.394077 4.732948 2.343475 0
M  V30 16 C -1.416836 3.859535 2.309643 0
M  V30 17 N -2.681816 3.971204 2.765332 0
M  V30 18 C -3.510522 2.901091 2.586705 0
M  V30 19 C -3.040347 1.763435 1.959842 0
M  V30 20 C -1.737740 1.685367 1.505988 0
M  V30 21 C -0.896305 2.746363 1.676676 0
M  V30 22 N 1.069412 0.840407 0.245087 0
M  V30 23 C 2.341094 -2.231056 -1.434986 0
M  V30 24 C 2.361207 -3.532074 -0.641132 0
M  V30 25 N 1.620862 -3.317146 0.588624 0
M  V30 26 H -2.101237 -4.912540 1.395551 0
M  V30 27 H -0.425876 -5.468227 0.824647 0
M  V30 28 H -1.100179 -5.992941 2.385585 0
M  V30 29 H -0.083809 -2.042333 2.111228 0
M  V30 30 H -1.585137 -2.574941 1.343458 0
M  V30 31 H -0.228888 -3.832627 -0.353946 0
M  V30 32 H -0.186154 -1.973567 -1.625758 0
M  V30 33 H -0.496128 -1.083554 -0.132435 0
M  V30 34 H 3.993399 -0.080970 -1.082753 0
M  V30 35 H 4.632585 2.157411 -0.353925 0
M  V30 36 H -0.331001 5.702867 2.727936 0
M  V30 37 H -4.522452 2.985877 2.949384 0
M  V30 38 H -3.664812 0.911986 1.806428 0
M  V30 39 H -1.375457 0.806978 1.022330 0
M  V30 40 H 1.851668 -2.421748 -2.435983 0
M  V30 41 H 3.379644 -1.929454 -1.611336 0
M  V30 42 H 1.921549 -4.336916 -1.264055 0
M  V30 43 H 3.407312 -3.793902 -0.352741 0
M  V30 44 H 1.686340 -4.097475 1.252556 0
M  V30 END ATOM
M  V30 BEGIN BOND
M  V30 1 1 1 2
M  V30 2 1 2 3
M  V30 3 1 3 4
M  V30 4 1 4 5
M  V30 5 1 5 6
M  V30 6 1 6 7
M  V30 7 2 7 8
M  V30 8 1 8 9
M  V30 9 2 9 10
M  V30 10 1 10 11
M  V30 11 1 10 12
M  V30 12 1 12 13
M  V30 13 2 13 14
M  V30 14 1 14 15
M  V30 15 1 15 16
M  V30 16 2 16 17
M  V30 17 1 17 18
M  V30 18 2 18 19
M  V30 19 1 19 20
M  V30 20 2 20 21
M  V30 21 2 12 22
M  V30 22 1 6 23
M  V30 23 1 23 24
M  V30 24 1 24 25
M  V30 25 1 25 4
M  V30 26 1 22 7
M  V30 27 1 21 13
M  V30 28 1 21 16
M  V30 29 1 1 26
M  V30 30 1 1 27
M  V30 31 1 1 28
M  V30 32 1 3 29
M  V30 33 1 3 30
M  V30 34 1 4 31 CFG=3
M  V30 35 1 5 32
M  V30 36 1 5 33
M  V30 37 1 8 34
M  V30 38 1 9 35
M  V30 39 1 15 36
M  V30 40 1 18 37
M  V30 41 1 19 38
M  V30 42 1 20 39
M  V30 43 1 23 40
M  V30 44 1 23 41
M  V30 45 1 24 42
M  V30 46 1 24 43
M  V30 47 1 25 44
M  V30 END BOND
M  V30 END CTAB
M  END
>  <Dataset>  (199) 
ChEMBL_Kinases

>  <Ligand_Instance>  (199) 
nan

>  <PDB_ID>  (199) 
nan

>  <Standardized_SMILES>  (199) 
COC[C@H]1CN(c2ccc(F)c(-c3n[nH]c4ncccc34)n2)CCN1

>  <Name>  (199) 
nan

>  <Pocket>  (199) 
nan

>  <ATP_Site>  (199) 
nan

>  <Peripheral>  (199) 
nan

>  <Num_H_Atoms_ProtBoundConf>  (199) 
nan

>  <Num_Resolved_Atoms>  (199) 
nan

>  <Num_Not_Resolved_Atoms>  (199) 
nan

$$$$
CHEMBL2322680
     RDKit          3D

  0  0  0  0  0  0  0  0  0  0999 V3000
M  V30 BEGIN CTAB
M  V30 COUNTS 42 45 0 0 0
M  V30 BEGIN ATOM
M  V30 1 C 2.924552 -2.980218 4.128474 0
M  V30 2 C 2.313425 -2.426138 2.870324 0
M  V30 3 C 2.880433 -1.395737 2.151008 0
M  V30 4 C 2.268251 -0.947225 1.018341 0
M  V30 5 C 2.836231 0.139005 0.227946 0
M  V30 6 C 4.201950 0.151010 -0.054439 0
M  V30 7 N 4.514969 1.233135 -0.791134 0
M  V30 8 C 3.391016 1.944848 -1.008113 0
M  V30 9 N 3.035118 3.082409 -1.645324 0
M  V30 10 C 1.748673 3.505144 -1.650309 0
M  V30 11 C 0.686113 2.843820 -1.025109 0
M  V30 12 C 1.038089 1.681749 -0.371455 0
M  V30 13 C 2.356592 1.278115 -0.384659 0
M  V30 14 C 1.094505 -1.587051 0.682156 0
M  V30 15 C 0.508894 -2.615797 1.382556 0
M  V30 16 N -0.700768 -3.255709 1.039136 0
M  V30 17 C -1.695894 -3.013534 0.018945 0
M  V30 18 C -2.425467 -1.737781 0.279450 0
M  V30 19 C -2.257954 -0.446741 -0.164622 0
M  V30 20 C -3.105219 0.540287 0.282044 0
M  V30 21 C -4.127682 0.342060 1.152928 0
M  V30 22 C -4.327800 -0.937616 1.619504 0
M  V30 23 C -3.475349 -1.950092 1.175438 0
M  V30 24 N 1.165943 -2.996405 2.473960 0
M  V30 25 H 2.347515 -2.594385 5.007045 0
M  V30 26 H 2.914105 -4.070711 4.152688 0
M  V30 27 H 3.945283 -2.604201 4.247539 0
M  V30 28 H 3.796108 -0.982100 2.519343 0
M  V30 29 H 4.965969 -0.572396 0.242451 0
M  V30 30 H 5.443276 1.528403 -1.162221 0
M  V30 31 H 1.572147 4.442938 -2.199150 0
M  V30 32 H -0.285065 3.274990 -1.099726 0
M  V30 33 H 0.249313 1.143217 0.124430 0
M  V30 34 H 0.620805 -1.231724 -0.219941 0
M  V30 35 H -0.967636 -4.099405 1.637294 0
M  V30 36 H -1.167465 -2.927659 -0.981992 0
M  V30 37 H -2.405704 -3.845625 -0.099447 0
M  V30 38 H -1.446718 -0.361663 -0.851015 0
M  V30 39 H -2.889881 1.528175 -0.125301 0
M  V30 40 H -4.782871 1.136558 1.489960 0
M  V30 41 H -5.140852 -1.093798 2.311905 0
M  V30 42 H -3.752056 -2.914696 1.630805 0
M  V30 END ATOM
M  V30 BEGIN BOND
M  V30 1 1 1 2
M  V30 2 2 2 3
M  V30 3 1 3 4
M  V30 4 1 4 5
M  V30 5 2 5 6
M  V30 6 1 6 7
M  V30 7 1 7 8
M  V30 8 2 8 9
M  V30 9 1 9 10
M  V30 10 2 10 11
M  V30 11 1 11 12
M  V30 12 2 12 13
M  V30 13 2 4 14
M  V30 14 1 14 15
M  V30 15 1 15 16
M  V30 16 1 16 17
M  V30 17 1 17 18
M  V30 18 2 18 19
M  V30 19 1 19 20
M  V30 20 2 20 21
M  V30 21 1 21 22
M  V30 22 2 22 23
M  V30 23 2 15 24
M  V30 24 1 24 2
M  V30 25 1 13 5
M  V30 26 1 23 18
M  V30 27 1 13 8
M  V30 28 1 1 25
M  V30 29 1 1 26
M  V30 30 1 1 27
M  V30 31 1 3 28
M  V30 32 1 6 29
M  V30 33 1 7 30
M  V30 34 1 10 31
M  V30 35 1 11 32
M  V30 36 1 12 33
M  V30 37 1 14 34
M  V30 38 1 16 35
M  V30 39 1 17 36
M  V30 40 1 17 37
M  V30 41 1 19 38
M  V30 42 1 20 39
M  V30 43 1 21 40
M  V30 44 1 22 41
M  V30 45 1 23 42
M  V30 END BOND
M  V30 END CTAB
M  END
>  <Dataset>  (200) 
ChEMBL_Kinases

>  <Ligand_Instance>  (200) 
nan

>  <PDB_ID>  (200) 
nan

>  <Standardized_SMILES>  (200) 
Cc1cc(-c2c[nH]c3ncccc23)cc(NCc2ccccc2)n1

>  <Name>  (200) 
nan

>  <Pocket>  (200) 
nan

>  <ATP_Site>  (200) 
nan

>  <Peripheral>  (200) 
nan

>  <Num_H_Atoms_ProtBoundConf>  (200) 
nan

>  <Num_Resolved_Atoms>  (200) 
nan

>  <Num_Not_Resolved_Atoms>  (200) 
nan

$$$$
CHEMBL2322681
     RDKit          3D

  0  0  0  0  0  0  0  0  0  0999 V3000
M  V30 BEGIN CTAB
M  V30 COUNTS 46 49 0 0 0
M  V30 BEGIN ATOM
M  V30 1 C 1.199564 -4.132112 2.198164 0
M  V30 2 C 1.132648 -2.850165 1.442432 0
M  V30 3 C 2.181563 -2.445881 0.624604 0
M  V30 4 C 2.086189 -1.249520 -0.062979 0
M  V30 5 C 3.210137 -0.863337 -0.910306 0
M  V30 6 C 4.575866 -0.903539 -0.640005 0
M  V30 7 N 5.262556 -0.445313 -1.725116 0
M  V30 8 C 4.394345 -0.104771 -2.700847 0
M  V30 9 N 4.584831 0.392659 -3.946965 0
M  V30 10 C 3.513114 0.647791 -4.729681 0
M  V30 11 C 2.210520 0.425855 -4.323189 0
M  V30 12 C 2.059333 -0.080493 -3.049490 0
M  V30 13 C 3.119916 -0.357877 -2.211373 0
M  V30 14 C 0.937047 -0.521353 0.109401 0
M  V30 15 C -0.109659 -0.893865 0.906388 0
M  V30 16 N -1.280650 -0.100266 1.050168 0
M  V30 17 C -2.342613 -0.599577 1.933612 0 CFG=1
M  V30 18 C -1.871977 -0.780918 3.341321 0
M  V30 19 C -2.712752 -0.023157 4.344508 0
M  V30 20 C -2.962844 1.382877 3.915613 0 CFG=2
M  V30 21 O -3.808889 1.955072 4.877071 0
M  V30 22 C -3.550645 1.509789 2.551406 0
M  V30 23 C -3.598655 0.198565 1.807042 0
M  V30 24 N 0.036443 -2.066853 1.552046 0
M  V30 25 H 0.606758 -4.083598 3.138813 0
M  V30 26 H 0.817070 -4.999921 1.629944 0
M  V30 27 H 2.253968 -4.353333 2.515185 0
M  V30 28 H 3.061298 -3.099033 0.551780 0
M  V30 29 H 4.983872 -1.249004 0.291751 0
M  V30 30 H 6.313546 -0.362980 -1.806201 0
M  V30 31 H 3.659324 1.051496 -5.742189 0
M  V30 32 H 1.359266 0.639042 -4.971703 0
M  V30 33 H 1.037841 -0.257649 -2.722722 0
M  V30 34 H 0.858395 0.414509 -0.426227 0
M  V30 35 H -1.325329 0.797622 0.519690 0
M  V30 36 H -2.592313 -1.624835 1.532795 0
M  V30 37 H -0.824209 -0.422480 3.404914 0
M  V30 38 H -1.868928 -1.844439 3.656562 0
M  V30 39 H -2.169280 -0.008934 5.310986 0
M  V30 40 H -3.674095 -0.560643 4.535432 0
M  V30 41 H -1.963598 1.905925 3.935243 0
M  V30 42 H -4.133255 2.836218 4.616969 0
M  V30 43 H -2.961808 2.217100 1.909944 0
M  V30 44 H -4.577358 1.920190 2.637861 0
M  V30 45 H -3.826127 0.338779 0.745417 0
M  V30 46 H -4.412130 -0.394108 2.269831 0
M  V30 END ATOM
M  V30 BEGIN BOND
M  V30 1 1 1 2
M  V30 2 2 2 3
M  V30 3 1 3 4
M  V30 4 1 4 5
M  V30 5 2 5 6
M  V30 6 1 6 7
M  V30 7 1 7 8
M  V30 8 2 8 9
M  V30 9 1 9 10
M  V30 10 2 10 11
M  V30 11 1 11 12
M  V30 12 2 12 13
M  V30 13 2 4 14
M  V30 14 1 14 15
M  V30 15 1 15 16
M  V30 16 1 16 17
M  V30 17 1 17 18
M  V30 18 1 18 19
M  V30 19 1 19 20
M  V30 20 1 20 21
M  V30 21 1 20 22
M  V30 22 1 22 23
M  V30 23 2 15 24
M  V30 24 1 24 2
M  V30 25 1 13 5
M  V30 26 1 23 17
M  V30 27 1 13 8
M  V30 28 1 1 25
M  V30 29 1 1 26
M  V30 30 1 1 27
M  V30 31 1 3 28
M  V30 32 1 6 29
M  V30 33 1 7 30
M  V30 34 1 10 31
M  V30 35 1 11 32
M  V30 36 1 12 33
M  V30 37 1 14 34
M  V30 38 1 16 35
M  V30 39 1 17 36 CFG=3
M  V30 40 1 18 37
M  V30 41 1 18 38
M  V30 42 1 19 39
M  V30 43 1 19 40
M  V30 44 1 20 41 CFG=3
M  V30 45 1 21 42
M  V30 46 1 22 43
M  V30 47 1 22 44
M  V30 48 1 23 45
M  V30 49 1 23 46
M  V30 END BOND
M  V30 END CTAB
M  END
>  <Dataset>  (201) 
ChEMBL_Kinases

>  <Ligand_Instance>  (201) 
nan

>  <PDB_ID>  (201) 
nan

>  <Standardized_SMILES>  (201) 
Cc1cc(-c2c[nH]c3ncccc23)cc(N[C@H]2CC[C@H](O)CC2)n1

>  <Name>  (201) 
nan

>  <Pocket>  (201) 
nan

>  <ATP_Site>  (201) 
nan

>  <Peripheral>  (201) 
nan

>  <Num_H_Atoms_ProtBoundConf>  (201) 
nan

>  <Num_Resolved_Atoms>  (201) 
nan

>  <Num_Not_Resolved_Atoms>  (201) 
nan

$$$$
CHEMBL2322682
     RDKit          3D

  0  0  0  0  0  0  0  0  0  0999 V3000
M  V30 BEGIN CTAB
M  V30 COUNTS 42 45 0 0 0
M  V30 BEGIN ATOM
M  V30 1 F 2.927733 -4.172460 3.271771 0
M  V30 2 C 2.317238 -3.200458 2.528560 0
M  V30 3 C 2.609903 -3.238841 1.166934 0
M  V30 4 C 1.996256 -2.258229 0.411096 0
M  V30 5 C 2.251670 -2.233393 -1.026657 0
M  V30 6 C 2.206236 -3.424439 -1.756949 0
M  V30 7 N 2.473933 -3.117047 -3.038541 0
M  V30 8 C 2.688552 -1.795254 -3.169874 0
M  V30 9 N 2.989254 -0.957216 -4.198641 0
M  V30 10 C 3.142055 0.378203 -3.964868 0
M  V30 11 C 3.009269 0.961777 -2.716069 0
M  V30 12 C 2.702229 0.138105 -1.638104 0
M  V30 13 C 2.555166 -1.202928 -1.911462 0
M  V30 14 C 1.162996 -1.334784 1.021051 0
M  V30 15 C 0.910996 -1.347234 2.374857 0
M  V30 16 N 0.055905 -0.416532 3.017673 0
M  V30 17 C -0.681080 0.652684 2.345674 0
M  V30 18 C -1.692084 0.142219 1.390249 0
M  V30 19 C -3.128832 0.262734 1.809976 0
M  V30 20 C -3.342880 0.546941 3.259817 0
M  V30 21 C -2.506092 1.676724 3.782482 0
M  V30 22 C -1.120020 1.719810 3.282759 0
M  V30 23 N 1.505270 -2.298271 3.113013 0
M  V30 24 H 3.265945 -3.980302 0.742871 0
M  V30 25 H 2.011773 -4.454232 -1.496806 0
M  V30 26 H 2.535959 -3.702502 -3.885676 0
M  V30 27 H 3.379754 1.061963 -4.764146 0
M  V30 28 H 3.136657 2.004984 -2.577108 0
M  V30 29 H 2.584480 0.524018 -0.639179 0
M  V30 30 H 0.717611 -0.590738 0.375508 0
M  V30 31 H -0.091449 -0.457391 4.048530 0
M  V30 32 H 0.128266 1.143036 1.714694 0
M  V30 33 H -1.467842 -0.939568 1.212835 0
M  V30 34 H -1.545130 0.619054 0.401376 0
M  V30 35 H -3.687890 -0.688117 1.573212 0
M  V30 36 H -3.603022 1.041394 1.180292 0
M  V30 37 H -3.203150 -0.362370 3.904089 0
M  V30 38 H -4.407909 0.826650 3.400205 0
M  V30 39 H -2.491719 1.583672 4.900228 0
M  V30 40 H -3.085184 2.629614 3.607321 0
M  V30 41 H -0.376947 1.715587 4.135178 0
M  V30 42 H -0.968984 2.750590 2.843542 0
M  V30 END ATOM
M  V30 BEGIN BOND
M  V30 1 1 1 2
M  V30 2 2 2 3
M  V30 3 1 3 4
M  V30 4 1 4 5
M  V30 5 2 5 6
M  V30 6 1 6 7
M  V30 7 1 7 8
M  V30 8 2 8 9
M  V30 9 1 9 10
M  V30 10 2 10 11
M  V30 11 1 11 12
M  V30 12 2 12 13
M  V30 13 2 4 14
M  V30 14 1 14 15
M  V30 15 1 15 16
M  V30 16 1 16 17
M  V30 17 1 17 18
M  V30 18 1 18 19
M  V30 19 1 19 20
M  V30 20 1 20 21
M  V30 21 1 21 22
M  V30 22 2 15 23
M  V30 23 1 23 2
M  V30 24 1 13 5
M  V30 25 1 22 17
M  V30 26 1 13 8
M  V30 27 1 3 24
M  V30 28 1 6 25
M  V30 29 1 7 26
M  V30 30 1 10 27
M  V30 31 1 11 28
M  V30 32 1 12 29
M  V30 33 1 14 30
M  V30 34 1 16 31
M  V30 35 1 17 32
M  V30 36 1 18 33
M  V30 37 1 18 34
M  V30 38 1 19 35
M  V30 39 1 19 36
M  V30 40 1 20 37
M  V30 41 1 20 38
M  V30 42 1 21 39
M  V30 43 1 21 40
M  V30 44 1 22 41
M  V30 45 1 22 42
M  V30 END BOND
M  V30 END CTAB
M  END
>  <Dataset>  (202) 
ChEMBL_Kinases

>  <Ligand_Instance>  (202) 
nan

>  <PDB_ID>  (202) 
nan

>  <Standardized_SMILES>  (202) 
Fc1cc(-c2c[nH]c3ncccc23)cc(NC2CCCCC2)n1

>  <Name>  (202) 
nan

>  <Pocket>  (202) 
nan

>  <ATP_Site>  (202) 
nan

>  <Peripheral>  (202) 
nan

>  <Num_H_Atoms_ProtBoundConf>  (202) 
nan

>  <Num_Resolved_Atoms>  (202) 
nan

>  <Num_Not_Resolved_Atoms>  (202) 
nan

$$$$
CHEMBL2322683
     RDKit          3D

  0  0  0  0  0  0  0  0  0  0999 V3000
M  V30 BEGIN CTAB
M  V30 COUNTS 43 46 0 0 0
M  V30 BEGIN ATOM
M  V30 1 O 0.223318 -4.406990 4.291911 0
M  V30 2 C -0.081784 -3.738971 3.080441 0 CFG=1
M  V30 3 C 1.130805 -2.938693 2.745269 0
M  V30 4 C 1.281554 -2.591083 1.287819 0
M  V30 5 C 0.067080 -2.938809 0.468899 0 CFG=2
M  V30 6 N -1.126571 -2.243671 0.812309 0
M  V30 7 C -1.430780 -0.866219 0.691158 0
M  V30 8 C -0.593190 0.083694 0.161984 0
M  V30 9 C -0.854299 1.430613 0.039017 0
M  V30 10 C 0.098082 2.372951 -0.537797 0
M  V30 11 C -0.224568 3.364465 -1.470632 0
M  V30 12 N 0.883478 4.059433 -1.796843 0
M  V30 13 C 1.944378 3.570209 -1.115134 0
M  V30 14 N 3.246764 3.906701 -1.084887 0
M  V30 15 C 4.149172 3.256252 -0.303152 0
M  V30 16 C 3.655013 2.209419 0.476765 0
M  V30 17 C 2.314788 1.834184 0.470571 0
M  V30 18 C 1.454064 2.537004 -0.346027 0
M  V30 19 C -2.078813 1.874370 0.491046 0
M  V30 20 C -2.933471 0.934769 1.025393 0
M  V30 21 F -4.155981 1.333597 1.484196 0
M  V30 22 N -2.602137 -0.362474 1.109475 0
M  V30 23 C -0.129963 -4.433179 0.650839 0
M  V30 24 C -0.473414 -4.768234 2.076865 0
M  V30 25 H 0.240530 -3.800940 5.064049 0
M  V30 26 H -0.934023 -3.060396 3.383870 0
M  V30 27 H 2.045085 -3.405813 3.166189 0
M  V30 28 H 1.031610 -1.960835 3.286090 0
M  V30 29 H 1.698045 -1.593974 1.119973 0
M  V30 30 H 2.089088 -3.294391 0.911425 0
M  V30 31 H 0.344693 -2.815025 -0.610224 0
M  V30 32 H -1.919648 -2.827817 1.220145 0
M  V30 33 H 0.375971 -0.203774 -0.217317 0
M  V30 34 H -1.224809 3.537967 -1.865617 0
M  V30 35 H 0.865900 4.848776 -2.480696 0
M  V30 36 H 5.201924 3.498194 -0.252841 0
M  V30 37 H 4.385183 1.683985 1.108557 0
M  V30 38 H 1.972834 1.031907 1.077531 0
M  V30 39 H -2.325673 2.924023 0.413960 0
M  V30 40 H -0.914269 -4.816756 -0.061844 0
M  V30 41 H 0.861045 -4.891142 0.412019 0
M  V30 42 H -1.583866 -4.962710 2.134610 0
M  V30 43 H 0.001823 -5.749996 2.369430 0
M  V30 END ATOM
M  V30 BEGIN BOND
M  V30 1 1 1 2
M  V30 2 1 2 3
M  V30 3 1 3 4
M  V30 4 1 4 5
M  V30 5 1 5 6
M  V30 6 1 6 7
M  V30 7 2 7 8
M  V30 8 1 8 9
M  V30 9 1 9 10
M  V30 10 2 10 11
M  V30 11 1 11 12
M  V30 12 1 12 13
M  V30 13 2 13 14
M  V30 14 1 14 15
M  V30 15 2 15 16
M  V30 16 1 16 17
M  V30 17 2 17 18
M  V30 18 2 9 19
M  V30 19 1 19 20
M  V30 20 1 20 21
M  V30 21 2 20 22
M  V30 22 1 5 23
M  V30 23 1 23 24
M  V30 24 1 24 2
M  V30 25 1 22 7
M  V30 26 1 18 10
M  V30 27 1 18 13
M  V30 28 1 1 25
M  V30 29 1 2 26 CFG=1
M  V30 30 1 3 27
M  V30 31 1 3 28
M  V30 32 1 4 29
M  V30 33 1 4 30
M  V30 34 1 5 31 CFG=3
M  V30 35 1 6 32
M  V30 36 1 8 33
M  V30 37 1 11 34
M  V30 38 1 12 35
M  V30 39 1 15 36
M  V30 40 1 16 37
M  V30 41 1 17 38
M  V30 42 1 19 39
M  V30 43 1 23 40
M  V30 44 1 23 41
M  V30 45 1 24 42
M  V30 46 1 24 43
M  V30 END BOND
M  V30 END CTAB
M  END
>  <Dataset>  (203) 
ChEMBL_Kinases

>  <Ligand_Instance>  (203) 
nan

>  <PDB_ID>  (203) 
nan

>  <Standardized_SMILES>  (203) 
O[C@H]1CC[C@H](Nc2cc(-c3c[nH]c4ncccc34)cc(F)n2)CC1

>  <Name>  (203) 
nan

>  <Pocket>  (203) 
nan

>  <ATP_Site>  (203) 
nan

>  <Peripheral>  (203) 
nan

>  <Num_H_Atoms_ProtBoundConf>  (203) 
nan

>  <Num_Resolved_Atoms>  (203) 
nan

>  <Num_Not_Resolved_Atoms>  (203) 
nan

$$$$
CHEMBL2322684
     RDKit          3D

  0  0  0  0  0  0  0  0  0  0999 V3000
M  V30 BEGIN CTAB
M  V30 COUNTS 44 47 0 0 0
M  V30 BEGIN ATOM
M  V30 1 N -0.611588 -3.108288 3.210116 0
M  V30 2 C 0.058587 -4.035978 2.350961 0 CFG=1
M  V30 3 C -0.897172 -4.683943 1.355599 0
M  V30 4 C -1.619623 -3.674626 0.504496 0
M  V30 5 C -0.810910 -2.383262 0.367359 0 CFG=2
M  V30 6 N -1.182767 -1.772742 -0.877362 0
M  V30 7 C -0.718776 -0.480130 -1.306366 0
M  V30 8 C 0.098481 0.308364 -0.560948 0
M  V30 9 C 0.558918 1.545324 -0.959366 0
M  V30 10 C 1.436984 2.378470 -0.144624 0
M  V30 11 C 2.548916 3.014081 -0.707053 0
M  V30 12 N 3.186139 3.716551 0.256093 0
M  V30 13 C 2.506583 3.539761 1.404294 0
M  V30 14 N 2.678947 3.991792 2.660657 0
M  V30 15 C 1.820253 3.643461 3.636674 0
M  V30 16 C 0.718875 2.811339 3.423961 0
M  V30 17 C 0.507421 2.325704 2.144569 0
M  V30 18 C 1.420472 2.717627 1.188640 0
M  V30 19 C 0.178565 2.041595 -2.196751 0
M  V30 20 C -0.651077 1.223384 -2.934440 0
M  V30 21 F -1.058937 1.663584 -4.166069 0
M  V30 22 N -1.072848 0.023566 -2.500926 0
M  V30 23 C 0.641063 -2.855424 0.238331 0
M  V30 24 C 1.155058 -3.324494 1.560083 0
M  V30 25 H -0.401002 -3.275859 4.216324 0
M  V30 26 H -1.643836 -3.242563 3.086176 0
M  V30 27 H 0.495204 -4.861446 2.942075 0
M  V30 28 H -0.295864 -5.403824 0.753183 0
M  V30 29 H -1.628186 -5.276184 1.944952 0
M  V30 30 H -1.753176 -4.121157 -0.502149 0
M  V30 31 H -2.588998 -3.370246 0.922793 0
M  V30 32 H -0.930885 -1.702042 1.208274 0
M  V30 33 H -1.837521 -2.268613 -1.553890 0
M  V30 34 H 0.435114 0.016567 0.398471 0
M  V30 35 H 2.934106 3.019667 -1.717516 0
M  V30 36 H 4.061219 4.306201 0.153370 0
M  V30 37 H 2.035930 4.056164 4.627549 0
M  V30 38 H 0.049227 2.556693 4.249709 0
M  V30 39 H -0.319580 1.690185 1.944214 0
M  V30 40 H 0.473395 2.993868 -2.617213 0
M  V30 41 H 1.266323 -2.102288 -0.217254 0
M  V30 42 H 0.617764 -3.714019 -0.491633 0
M  V30 43 H 1.974138 -4.077015 1.407148 0
M  V30 44 H 1.562948 -2.520628 2.175077 0
M  V30 END ATOM
M  V30 BEGIN BOND
M  V30 1 1 1 2
M  V30 2 1 2 3
M  V30 3 1 3 4
M  V30 4 1 4 5
M  V30 5 1 5 6
M  V30 6 1 6 7
M  V30 7 2 7 8
M  V30 8 1 8 9
M  V30 9 1 9 10
M  V30 10 2 10 11
M  V30 11 1 11 12
M  V30 12 1 12 13
M  V30 13 2 13 14
M  V30 14 1 14 15
M  V30 15 2 15 16
M  V30 16 1 16 17
M  V30 17 2 17 18
M  V30 18 2 9 19
M  V30 19 1 19 20
M  V30 20 1 20 21
M  V30 21 2 20 22
M  V30 22 1 5 23
M  V30 23 1 23 24
M  V30 24 1 24 2
M  V30 25 1 22 7
M  V30 26 1 18 10
M  V30 27 1 18 13
M  V30 28 1 1 25
M  V30 29 1 1 26
M  V30 30 1 2 27 CFG=1
M  V30 31 1 3 28
M  V30 32 1 3 29
M  V30 33 1 4 30
M  V30 34 1 4 31
M  V30 35 1 5 32 CFG=1
M  V30 36 1 6 33
M  V30 37 1 8 34
M  V30 38 1 11 35
M  V30 39 1 12 36
M  V30 40 1 15 37
M  V30 41 1 16 38
M  V30 42 1 17 39
M  V30 43 1 19 40
M  V30 44 1 23 41
M  V30 45 1 23 42
M  V30 46 1 24 43
M  V30 47 1 24 44
M  V30 END BOND
M  V30 END CTAB
M  END
>  <Dataset>  (204) 
ChEMBL_Kinases

>  <Ligand_Instance>  (204) 
nan

>  <PDB_ID>  (204) 
nan

>  <Standardized_SMILES>  (204) 
N[C@H]1CC[C@H](Nc2cc(-c3c[nH]c4ncccc34)cc(F)n2)CC1

>  <Name>  (204) 
nan

>  <Pocket>  (204) 
nan

>  <ATP_Site>  (204) 
nan

>  <Peripheral>  (204) 
nan

>  <Num_H_Atoms_ProtBoundConf>  (204) 
nan

>  <Num_Resolved_Atoms>  (204) 
nan

>  <Num_Not_Resolved_Atoms>  (204) 
nan

$$$$
CHEMBL232349
     RDKit          3D

  0  0  0  0  0  0  0  0  0  0999 V3000
M  V30 BEGIN CTAB
M  V30 COUNTS 30 32 0 0 0
M  V30 BEGIN ATOM
M  V30 1 C -1.562340 -3.824936 3.496840 0
M  V30 2 O -0.308795 -4.363407 3.050807 0
M  V30 3 C 0.490079 -3.647202 2.177353 0
M  V30 4 C 1.701318 -4.079753 1.691059 0
M  V30 5 C 2.496600 -3.370825 0.821177 0
M  V30 6 C 2.031587 -2.134207 0.414976 0
M  V30 7 C 0.819286 -1.624579 0.860036 0
M  V30 8 C 0.087894 -2.403186 1.729650 0
M  V30 9 C 0.555782 -0.316882 0.284722 0
M  V30 10 C -0.443662 0.522330 0.466818 0
M  V30 11 C -0.574253 1.812090 -0.196341 0
M  V30 12 C -0.517526 2.267298 -1.475054 0
M  V30 13 C -0.692569 3.660400 -1.424242 0
M  V30 14 C -0.853062 4.005995 -0.099473 0
M  V30 15 N -0.777828 2.861916 0.642106 0
M  V30 16 C 1.719271 -0.077725 -0.553013 0
M  V30 17 O 1.974825 0.916510 -1.265044 0
M  V30 18 N 2.603729 -1.169762 -0.473223 0
M  V30 19 H -2.140044 -3.681812 2.542321 0
M  V30 20 H -2.076925 -4.550787 4.128447 0
M  V30 21 H -1.392522 -2.830699 3.949753 0
M  V30 22 H 2.072213 -5.036957 2.000243 0
M  V30 23 H 3.448567 -3.724332 0.446062 0
M  V30 24 H -0.860334 -2.024237 2.089239 0
M  V30 25 H -1.197382 0.159427 1.185553 0
M  V30 26 H -0.376695 1.609855 -2.297091 0
M  V30 27 H -0.668070 4.165137 -2.387808 0
M  V30 28 H -0.995357 5.062619 0.071477 0
M  V30 29 H -0.896155 3.096986 1.669365 0
M  V30 30 H 3.535243 -1.296417 -0.963815 0
M  V30 END ATOM
M  V30 BEGIN BOND
M  V30 1 1 1 2
M  V30 2 1 2 3
M  V30 3 2 3 4
M  V30 4 1 4 5
M  V30 5 2 5 6
M  V30 6 1 6 7
M  V30 7 2 7 8
M  V30 8 1 7 9
M  V30 9 2 9 10
M  V30 10 1 10 11
M  V30 11 2 11 12
M  V30 12 1 12 13
M  V30 13 2 13 14
M  V30 14 1 14 15
M  V30 15 1 9 16
M  V30 16 2 16 17
M  V30 17 1 16 18
M  V30 18 1 8 3
M  V30 19 1 15 11
M  V30 20 1 18 6
M  V30 21 1 1 19
M  V30 22 1 1 20
M  V30 23 1 1 21
M  V30 24 1 4 22
M  V30 25 1 5 23
M  V30 26 1 8 24
M  V30 27 1 10 25
M  V30 28 1 12 26
M  V30 29 1 13 27
M  V30 30 1 14 28
M  V30 31 1 15 29
M  V30 32 1 18 30
M  V30 END BOND
M  V30 END CTAB
M  END
>  <Dataset>  (205) 
ChEMBL_Kinases

>  <Ligand_Instance>  (205) 
nan

>  <PDB_ID>  (205) 
nan

>  <Standardized_SMILES>  (205) 
COc1ccc2c(c1)/C(=C/c1ccc[nH]1)C(=O)N2

>  <Name>  (205) 
nan

>  <Pocket>  (205) 
nan

>  <ATP_Site>  (205) 
nan

>  <Peripheral>  (205) 
nan

>  <Num_H_Atoms_ProtBoundConf>  (205) 
nan

>  <Num_Resolved_Atoms>  (205) 
nan

>  <Num_Not_Resolved_Atoms>  (205) 
nan

$$$$
CHEMBL232360
     RDKit          3D

  0  0  0  0  0  0  0  0  0  0999 V3000
M  V30 BEGIN CTAB
M  V30 COUNTS 34 36 0 0 0
M  V30 BEGIN ATOM
M  V30 1 C 0.996641 -1.953542 4.262427 0
M  V30 2 S 2.190937 -3.029938 3.533976 0
M  V30 3 O 2.454390 -4.157789 4.465781 0
M  V30 4 O 3.506446 -2.286235 3.381806 0
M  V30 5 N 1.731621 -3.653429 2.014839 0
M  V30 6 C 1.456106 -2.958023 0.807947 0
M  V30 7 C 1.939043 -3.395565 -0.426905 0
M  V30 8 C 1.671879 -2.726330 -1.606559 0
M  V30 9 C 0.900955 -1.575621 -1.605544 0
M  V30 10 C 0.435515 -1.163580 -0.373666 0
M  V30 11 C 0.687123 -1.813844 0.822194 0
M  V30 12 C -0.347095 0.061782 -0.607052 0
M  V30 13 C -1.007220 0.813236 0.228060 0
M  V30 14 C -1.774307 2.022638 -0.004319 0
M  V30 15 C -3.057305 2.132608 0.548847 0
M  V30 16 C -3.617385 3.353908 0.247405 0
M  V30 17 C -2.669006 4.011549 -0.503006 0
M  V30 18 N -1.607167 3.200611 -0.627169 0
M  V30 19 C -0.312455 0.338338 -2.035965 0
M  V30 20 O -0.847425 1.280425 -2.667728 0
M  V30 21 N 0.467945 -0.691760 -2.631944 0
M  V30 22 H 1.282705 -0.884388 4.111420 0
M  V30 23 H -0.052685 -2.174352 3.959901 0
M  V30 24 H 0.996231 -2.082767 5.385368 0
M  V30 25 H 1.610780 -4.687654 1.858191 0
M  V30 26 H 2.543349 -4.291876 -0.453434 0
M  V30 27 H 2.072747 -3.108714 -2.551177 0
M  V30 28 H 0.282666 -1.416167 1.721018 0
M  V30 29 H -0.955694 0.451681 1.262783 0
M  V30 30 H -3.631598 1.427387 1.145920 0
M  V30 31 H -4.589540 3.747915 0.522822 0
M  V30 32 H -2.711322 5.005637 -0.942649 0
M  V30 33 H -0.725424 3.430982 -1.132361 0
M  V30 34 H 0.676942 -0.770608 -3.652986 0
M  V30 END ATOM
M  V30 BEGIN BOND
M  V30 1 1 1 2
M  V30 2 2 2 3
M  V30 3 2 2 4
M  V30 4 1 2 5
M  V30 5 1 5 6
M  V30 6 2 6 7
M  V30 7 1 7 8
M  V30 8 2 8 9
M  V30 9 1 9 10
M  V30 10 2 10 11
M  V30 11 1 10 12
M  V30 12 2 12 13
M  V30 13 1 13 14
M  V30 14 2 14 15
M  V30 15 1 15 16
M  V30 16 2 16 17
M  V30 17 1 17 18
M  V30 18 1 12 19
M  V30 19 2 19 20
M  V30 20 1 19 21
M  V30 21 1 11 6
M  V30 22 1 18 14
M  V30 23 1 21 9
M  V30 24 1 1 22
M  V30 25 1 1 23
M  V30 26 1 1 24
M  V30 27 1 5 25
M  V30 28 1 7 26
M  V30 29 1 8 27
M  V30 30 1 11 28
M  V30 31 1 13 29
M  V30 32 1 15 30
M  V30 33 1 16 31
M  V30 34 1 17 32
M  V30 35 1 18 33
M  V30 36 1 21 34
M  V30 END BOND
M  V30 END CTAB
M  END
>  <Dataset>  (206) 
ChEMBL_Kinases

>  <Ligand_Instance>  (206) 
nan

>  <PDB_ID>  (206) 
nan

>  <Standardized_SMILES>  (206) 
CS(=O)(=O)Nc1ccc2c(c1)/C(=C/c1ccc[nH]1)C(=O)N2

>  <Name>  (206) 
nan

>  <Pocket>  (206) 
nan

>  <ATP_Site>  (206) 
nan

>  <Peripheral>  (206) 
nan

>  <Num_H_Atoms_ProtBoundConf>  (206) 
nan

>  <Num_Resolved_Atoms>  (206) 
nan

>  <Num_Not_Resolved_Atoms>  (206) 
nan

$$$$
CHEMBL232365
     RDKit          3D

  0  0  0  0  0  0  0  0  0  0999 V3000
M  V30 BEGIN CTAB
M  V30 COUNTS 34 36 0 0 0
M  V30 BEGIN ATOM
M  V30 1 N 2.863054 -2.317913 4.566318 0
M  V30 2 S 3.523705 -1.964343 2.994000 0
M  V30 3 O 4.051027 -0.558309 2.973181 0
M  V30 4 O 4.623383 -2.956236 2.717430 0
M  V30 5 C 2.240276 -2.173603 1.836252 0
M  V30 6 C 2.097454 -3.462676 1.303502 0
M  V30 7 C 1.111814 -3.713604 0.381097 0
M  V30 8 C 0.281157 -2.709844 -0.009338 0
M  V30 9 C 0.376328 -1.429250 0.479599 0
M  V30 10 C 1.363058 -1.213400 1.392140 0
M  V30 11 C -0.637909 -0.589339 -0.118106 0
M  V30 12 C -0.824846 0.691994 0.057293 0
M  V30 13 C -0.012548 1.551214 0.911806 0
M  V30 14 O 0.862111 1.952485 1.707083 0
M  V30 15 O -0.163372 2.903398 1.110456 0
M  V30 16 C -1.996589 1.292536 -0.580604 0
M  V30 17 C -3.344508 1.060236 -0.635395 0
M  V30 18 C -3.871353 2.029105 -1.485574 0
M  V30 19 C -2.842739 2.834728 -1.934298 0
M  V30 20 N -1.724512 2.355174 -1.362879 0
M  V30 21 C -1.351202 -1.485531 -1.011803 0
M  V30 22 O -2.301263 -1.169367 -1.725068 0
M  V30 23 N -0.782197 -2.781156 -0.938344 0
M  V30 24 H 2.737334 -3.363925 4.600609 0
M  V30 25 H 1.905372 -1.909026 4.586123 0
M  V30 26 H 2.743331 -4.261872 1.600345 0
M  V30 27 H 1.025368 -4.713364 -0.011176 0
M  V30 28 H 1.561237 -0.300202 1.864176 0
M  V30 29 H 0.329818 3.680154 0.633006 0
M  V30 30 H -3.788582 0.255998 -0.066025 0
M  V30 31 H -4.960042 1.988708 -1.646643 0
M  V30 32 H -3.120546 3.632517 -2.607265 0
M  V30 33 H -0.859881 2.906442 -1.639768 0
M  V30 34 H -1.115341 -3.605215 -1.483886 0
M  V30 END ATOM
M  V30 BEGIN BOND
M  V30 1 1 1 2
M  V30 2 2 2 3
M  V30 3 2 2 4
M  V30 4 1 2 5
M  V30 5 2 5 6
M  V30 6 1 6 7
M  V30 7 2 7 8
M  V30 8 1 8 9
M  V30 9 2 9 10
M  V30 10 1 9 11
M  V30 11 2 11 12
M  V30 12 1 12 13
M  V30 13 2 13 14
M  V30 14 1 13 15
M  V30 15 1 12 16
M  V30 16 2 16 17
M  V30 17 1 17 18
M  V30 18 2 18 19
M  V30 19 1 19 20
M  V30 20 1 11 21
M  V30 21 2 21 22
M  V30 22 1 21 23
M  V30 23 1 10 5
M  V30 24 1 20 16
M  V30 25 1 23 8
M  V30 26 1 1 24
M  V30 27 1 1 25
M  V30 28 1 6 26
M  V30 29 1 7 27
M  V30 30 1 10 28
M  V30 31 1 15 29
M  V30 32 1 17 30
M  V30 33 1 18 31
M  V30 34 1 19 32
M  V30 35 1 20 33
M  V30 36 1 23 34
M  V30 END BOND
M  V30 END CTAB
M  END
>  <Dataset>  (207) 
ChEMBL_Kinases

>  <Ligand_Instance>  (207) 
nan

>  <PDB_ID>  (207) 
nan

>  <Standardized_SMILES>  (207) 
NS(=O)(=O)c1ccc2c(c1)/C(=C(\C(=O)O)c1ccc[nH]1)C(=O)N2

>  <Name>  (207) 
nan

>  <Pocket>  (207) 
nan

>  <ATP_Site>  (207) 
nan

>  <Peripheral>  (207) 
nan

>  <Num_H_Atoms_ProtBoundConf>  (207) 
nan

>  <Num_Resolved_Atoms>  (207) 
nan

>  <Num_Not_Resolved_Atoms>  (207) 
nan

$$$$
CHEMBL232600
     RDKit          3D

  0  0  0  0  0  0  0  0  0  0999 V3000
M  V30 BEGIN CTAB
M  V30 COUNTS 52 55 0 0 0
M  V30 BEGIN ATOM
M  V30 1 C 2.091571 2.153664 7.037778 0
M  V30 2 N 2.738803 1.047052 6.338143 0
M  V30 3 C 2.060763 -0.154644 6.708971 0
M  V30 4 C 2.621931 1.350890 4.925178 0
M  V30 5 C 3.255721 0.277177 4.090757 0
M  V30 6 O 3.839597 -0.784636 4.431310 0
M  V30 7 N 3.216481 0.439098 2.678617 0
M  V30 8 C 3.823260 -0.588528 1.831596 0
M  V30 9 C 3.423188 -0.457993 0.386123 0
M  V30 10 C 1.968354 -0.188162 0.252292 0
M  V30 11 C 1.577045 0.868170 1.064023 0
M  V30 12 S -0.218666 1.035164 0.766982 0
M  V30 13 C -0.289078 -0.345886 -0.436611 0
M  V30 14 N -1.448387 -0.747789 -1.065308 0
M  V30 15 C -2.000088 -0.300761 -2.293503 0
M  V30 16 O -1.320264 0.595818 -2.888039 0
M  V30 17 C -3.241164 -0.790225 -2.878775 0
M  V30 18 C -4.378544 -0.019032 -3.146102 0
M  V30 19 C -5.500695 -0.590726 -3.703573 0
M  V30 20 C -5.582161 -1.930801 -4.030269 0
M  V30 21 C -4.470209 -2.709385 -3.774349 0
M  V30 22 C -4.562873 -4.045374 -4.104244 0
M  V30 23 C -3.449450 -4.854214 -3.854306 0
M  V30 24 C -2.304856 -4.308488 -3.294035 0
M  V30 25 C -2.297709 -2.975703 -2.997736 0
M  V30 26 C -3.357928 -2.119430 -3.216736 0
M  V30 27 C 1.020134 -0.807523 -0.512428 0
M  V30 28 C 1.298237 -1.911066 -1.392202 0
M  V30 29 N 1.525638 -2.814731 -2.116009 0
M  V30 30 C 2.619592 1.547846 1.910887 0
M  V30 31 H 1.360339 2.677869 6.389564 0
M  V30 32 H 1.525114 1.772971 7.916585 0
M  V30 33 H 2.840469 2.858994 7.471222 0
M  V30 34 H 2.669931 -1.079689 6.656946 0
M  V30 35 H 1.643940 -0.145991 7.742978 0
M  V30 36 H 1.162829 -0.255202 6.031080 0
M  V30 37 H 3.163932 2.283145 4.672554 0
M  V30 38 H 1.572201 1.526496 4.700060 0
M  V30 39 H 3.566155 -1.573292 2.270089 0
M  V30 40 H 4.913593 -0.478525 1.960970 0
M  V30 41 H 4.042861 0.319667 -0.104375 0
M  V30 42 H 3.701270 -1.430266 -0.098048 0
M  V30 43 H -1.990124 -1.484809 -0.559413 0
M  V30 44 H -4.305223 1.037866 -2.884735 0
M  V30 45 H -6.335494 0.091003 -3.874001 0
M  V30 46 H -6.517088 -2.246398 -4.459118 0
M  V30 47 H -5.476205 -4.449561 -4.543732 0
M  V30 48 H -3.574619 -5.904336 -4.134363 0
M  V30 49 H -1.468214 -4.973694 -3.119101 0
M  V30 50 H -1.349409 -2.642780 -2.560054 0
M  V30 51 H 3.376986 2.015334 1.250012 0
M  V30 52 H 2.182855 2.314869 2.540139 0
M  V30 END ATOM
M  V30 BEGIN BOND
M  V30 1 1 1 2
M  V30 2 1 2 3
M  V30 3 1 2 4
M  V30 4 1 4 5
M  V30 5 2 5 6
M  V30 6 1 5 7
M  V30 7 1 7 8
M  V30 8 1 8 9
M  V30 9 1 9 10
M  V30 10 2 10 11
M  V30 11 1 11 12
M  V30 12 1 12 13
M  V30 13 1 13 14
M  V30 14 1 14 15
M  V30 15 2 15 16
M  V30 16 1 15 17
M  V30 17 2 17 18
M  V30 18 1 18 19
M  V30 19 2 19 20
M  V30 20 1 20 21
M  V30 21 2 21 22
M  V30 22 1 22 23
M  V30 23 2 23 24
M  V30 24 1 24 25
M  V30 25 2 25 26
M  V30 26 2 13 27
M  V30 27 1 27 28
M  V30 28 3 28 29
M  V30 29 1 11 30
M  V30 30 1 30 7
M  V30 31 1 27 10
M  V30 32 1 26 17
M  V30 33 1 26 21
M  V30 34 1 1 31
M  V30 35 1 1 32
M  V30 36 1 1 33
M  V30 37 1 3 34
M  V30 38 1 3 35
M  V30 39 1 3 36
M  V30 40 1 4 37
M  V30 41 1 4 38
M  V30 42 1 8 39
M  V30 43 1 8 40
M  V30 44 1 9 41
M  V30 45 1 9 42
M  V30 46 1 14 43
M  V30 47 1 18 44
M  V30 48 1 19 45
M  V30 49 1 20 46
M  V30 50 1 22 47
M  V30 51 1 23 48
M  V30 52 1 24 49
M  V30 53 1 25 50
M  V30 54 1 30 51
M  V30 55 1 30 52
M  V30 END BOND
M  V30 END CTAB
M  END
>  <Dataset>  (208) 
ChEMBL_Kinases

>  <Ligand_Instance>  (208) 
nan

>  <PDB_ID>  (208) 
nan

>  <Standardized_SMILES>  (208) 
CN(C)CC(=O)N1CCc2c(sc(NC(=O)c3cccc4ccccc34)c2C#N)C1

>  <Name>  (208) 
nan

>  <Pocket>  (208) 
nan

>  <ATP_Site>  (208) 
nan

>  <Peripheral>  (208) 
nan

>  <Num_H_Atoms_ProtBoundConf>  (208) 
nan

>  <Num_Resolved_Atoms>  (208) 
nan

>  <Num_Not_Resolved_Atoms>  (208) 
nan

$$$$
CHEMBL232391
     RDKit          3D

  0  0  0  0  0  0  0  0  0  0999 V3000
M  V30 BEGIN CTAB
M  V30 COUNTS 48 52 0 0 0
M  V30 BEGIN ATOM
M  V30 1 C 4.234264 -3.584368 2.552260 0
M  V30 2 C 4.330395 -2.134861 2.356913 0
M  V30 3 O 4.199084 -1.482243 3.436083 0
M  V30 4 N 4.543480 -1.458781 1.139826 0
M  V30 5 C 4.621491 -0.020745 1.058656 0
M  V30 6 C 5.821468 0.645642 1.193220 0
M  V30 7 C 5.887520 2.015130 1.113804 0
M  V30 8 C 4.741621 2.774711 0.894203 0
M  V30 9 C 3.536339 2.117094 0.758107 0
M  V30 10 C 3.482153 0.739186 0.839934 0
M  V30 11 C 2.094158 0.254016 0.666197 0
M  V30 12 C 1.286861 1.479463 0.464499 0
M  V30 13 C 0.000389 1.935074 0.242213 0
M  V30 14 C -1.185403 1.084135 0.120305 0
M  V30 15 C -1.328494 0.070737 1.049053 0
M  V30 16 C -2.419284 -0.780741 1.006901 0
M  V30 17 C -3.413758 -0.655875 0.034822 0
M  V30 18 C -4.530674 -1.592646 0.056942 0
M  V30 19 C -4.211799 -2.872792 0.527483 0
M  V30 20 C -5.196642 -3.829751 0.587671 0
M  V30 21 C -6.504951 -3.620583 0.211407 0
M  V30 22 O -7.474158 -4.607402 0.284721 0
M  V30 23 C -6.794349 -2.341914 -0.251786 0
M  V30 24 C -5.833757 -1.354934 -0.326892 0
M  V30 25 C -3.242115 0.365484 -0.878198 0
M  V30 26 C -2.160444 1.221936 -0.848746 0
M  V30 27 N 0.110080 3.287393 0.169630 0
M  V30 28 N 1.383244 3.636447 0.337144 0
M  V30 29 C 2.159600 2.546958 0.524919 0
M  V30 30 H 3.308929 -3.856824 3.136980 0
M  V30 31 H 4.159323 -4.152319 1.591712 0
M  V30 32 H 5.092421 -3.958096 3.154026 0
M  V30 33 H 4.633640 -2.114614 0.332716 0
M  V30 34 H 6.728568 0.113480 1.362736 0
M  V30 35 H 6.820809 2.571589 1.215801 0
M  V30 36 H 4.751536 3.855407 0.825750 0
M  V30 37 H 2.118892 -0.396800 -0.252054 0
M  V30 38 H 1.758024 -0.392749 1.476622 0
M  V30 39 H -0.592665 -0.079448 1.829299 0
M  V30 40 H -2.475638 -1.564830 1.772219 0
M  V30 41 H -3.241058 -3.223848 0.867682 0
M  V30 42 H -5.002729 -4.851484 0.948144 0
M  V30 43 H -7.294892 -5.575604 0.031106 0
M  V30 44 H -7.805643 -2.135765 -0.556175 0
M  V30 45 H -6.026572 -0.361632 -0.678891 0
M  V30 46 H -4.007250 0.472664 -1.638253 0
M  V30 47 H -2.041583 2.015351 -1.568132 0
M  V30 48 H 1.723589 4.632540 0.322147 0
M  V30 END ATOM
M  V30 BEGIN BOND
M  V30 1 1 1 2
M  V30 2 2 2 3
M  V30 3 1 2 4
M  V30 4 1 4 5
M  V30 5 2 5 6
M  V30 6 1 6 7
M  V30 7 2 7 8
M  V30 8 1 8 9
M  V30 9 2 9 10
M  V30 10 1 10 11
M  V30 11 1 11 12
M  V30 12 1 12 13
M  V30 13 1 13 14
M  V30 14 2 14 15
M  V30 15 1 15 16
M  V30 16 2 16 17
M  V30 17 1 17 18
M  V30 18 2 18 19
M  V30 19 1 19 20
M  V30 20 2 20 21
M  V30 21 1 21 22
M  V30 22 1 21 23
M  V30 23 2 23 24
M  V30 24 1 17 25
M  V30 25 2 25 26
M  V30 26 2 13 27
M  V30 27 1 27 28
M  V30 28 1 28 29
M  V30 29 1 10 5
M  V30 30 2 29 12
M  V30 31 1 29 9
M  V30 32 1 26 14
M  V30 33 1 24 18
M  V30 34 1 1 30
M  V30 35 1 1 31
M  V30 36 1 1 32
M  V30 37 1 4 33
M  V30 38 1 6 34
M  V30 39 1 7 35
M  V30 40 1 8 36
M  V30 41 1 11 37
M  V30 42 1 11 38
M  V30 43 1 15 39
M  V30 44 1 16 40
M  V30 45 1 19 41
M  V30 46 1 20 42
M  V30 47 1 22 43
M  V30 48 1 23 44
M  V30 49 1 24 45
M  V30 50 1 25 46
M  V30 51 1 26 47
M  V30 52 1 28 48
M  V30 END BOND
M  V30 END CTAB
M  END
>  <Dataset>  (209) 
ChEMBL_Kinases

>  <Ligand_Instance>  (209) 
nan

>  <PDB_ID>  (209) 
nan

>  <Standardized_SMILES>  (209) 
CC(=O)Nc1cccc2c1Cc1c(-c3ccc(-c4ccc(O)cc4)cc3)n[nH]c1-2

>  <Name>  (209) 
nan

>  <Pocket>  (209) 
nan

>  <ATP_Site>  (209) 
nan

>  <Peripheral>  (209) 
nan

>  <Num_H_Atoms_ProtBoundConf>  (209) 
nan

>  <Num_Resolved_Atoms>  (209) 
nan

>  <Num_Not_Resolved_Atoms>  (209) 
nan

$$$$
CHEMBL232392
     RDKit          3D

  0  0  0  0  0  0  0  0  0  0999 V3000
M  V30 BEGIN CTAB
M  V30 COUNTS 45 49 0 0 0
M  V30 BEGIN ATOM
M  V30 1 O -1.565959 -5.357265 0.283610 0
M  V30 2 C -0.335880 -5.517442 -0.300991 0
M  V30 3 C -0.181771 -4.846516 -1.597574 0
M  V30 4 C -0.221067 -5.619295 -2.764347 0
M  V30 5 C -0.076298 -5.007859 -4.005968 0
M  V30 6 C 0.109743 -3.630865 -4.142950 0
M  V30 7 C 0.149469 -2.854772 -2.983023 0
M  V30 8 C 0.002248 -3.500611 -1.772999 0
M  V30 9 C 0.073615 -2.501216 -0.651170 0
M  V30 10 C 0.276291 -1.220140 -1.365313 0
M  V30 11 C 0.446721 0.156230 -1.222448 0
M  V30 12 C 0.464123 0.830066 0.077812 0
M  V30 13 C 1.221901 0.226686 1.065809 0
M  V30 14 C 1.252106 0.854854 2.321215 0
M  V30 15 C 0.541528 2.025367 2.521833 0
M  V30 16 C 0.540963 2.712174 3.810008 0
M  V30 17 C -0.559628 3.427003 4.215188 0
M  V30 18 C -0.509453 4.063441 5.455211 0
M  V30 19 C 0.566590 4.033324 6.317553 0
M  V30 20 O 0.593635 4.672332 7.543281 0
M  V30 21 C 1.632587 3.285023 5.819619 0
M  V30 22 C 1.661790 2.629125 4.610364 0
M  V30 23 C -0.215061 2.609998 1.501656 0
M  V30 24 C -0.255960 2.000506 0.251690 0
M  V30 25 N 0.583063 0.708790 -2.456923 0
M  V30 26 N 0.509503 -0.235112 -3.381820 0
M  V30 27 C 0.322218 -1.424702 -2.742984 0
M  V30 28 H -1.502790 -4.629624 0.951210 0
M  V30 29 H -0.130389 -6.598840 -0.407443 0
M  V30 30 H 0.452534 -5.132214 0.382321 0
M  V30 31 H -0.363533 -6.696516 -2.720752 0
M  V30 32 H -0.098805 -5.560282 -4.934438 0
M  V30 33 H 0.224631 -3.131658 -5.076197 0
M  V30 34 H -0.874803 -2.496202 -0.077610 0
M  V30 35 H 0.911675 -2.779565 -0.004933 0
M  V30 36 H 1.772795 -0.689864 0.891653 0
M  V30 37 H 1.822560 0.440286 3.138037 0
M  V30 38 H -1.433752 3.501295 3.607593 0
M  V30 39 H -1.394478 4.613399 5.734625 0
M  V30 40 H 0.357848 4.215362 8.413935 0
M  V30 41 H 2.529914 3.211953 6.448700 0
M  V30 42 H 2.551636 2.078126 4.331771 0
M  V30 43 H -0.776085 3.528495 1.648103 0
M  V30 44 H -0.820472 2.396763 -0.581358 0
M  V30 45 H 0.573330 -0.163043 -4.431413 0
M  V30 END ATOM
M  V30 BEGIN BOND
M  V30 1 1 1 2
M  V30 2 1 2 3
M  V30 3 2 3 4
M  V30 4 1 4 5
M  V30 5 2 5 6
M  V30 6 1 6 7
M  V30 7 2 7 8
M  V30 8 1 8 9
M  V30 9 1 9 10
M  V30 10 1 10 11
M  V30 11 1 11 12
M  V30 12 2 12 13
M  V30 13 1 13 14
M  V30 14 2 14 15
M  V30 15 1 15 16
M  V30 16 2 16 17
M  V30 17 1 17 18
M  V30 18 2 18 19
M  V30 19 1 19 20
M  V30 20 1 19 21
M  V30 21 2 21 22
M  V30 22 1 15 23
M  V30 23 2 23 24
M  V30 24 2 11 25
M  V30 25 1 25 26
M  V30 26 1 26 27
M  V30 27 1 8 3
M  V30 28 2 27 10
M  V30 29 1 27 7
M  V30 30 1 24 12
M  V30 31 1 22 16
M  V30 32 1 1 28
M  V30 33 1 2 29
M  V30 34 1 2 30
M  V30 35 1 4 31
M  V30 36 1 5 32
M  V30 37 1 6 33
M  V30 38 1 9 34
M  V30 39 1 9 35
M  V30 40 1 13 36
M  V30 41 1 14 37
M  V30 42 1 17 38
M  V30 43 1 18 39
M  V30 44 1 20 40
M  V30 45 1 21 41
M  V30 46 1 22 42
M  V30 47 1 23 43
M  V30 48 1 24 44
M  V30 49 1 26 45
M  V30 END BOND
M  V30 END CTAB
M  END
>  <Dataset>  (210) 
ChEMBL_Kinases

>  <Ligand_Instance>  (210) 
nan

>  <PDB_ID>  (210) 
nan

>  <Standardized_SMILES>  (210) 
OCc1cccc2c1Cc1c(-c3ccc(-c4ccc(O)cc4)cc3)n[nH]c1-2

>  <Name>  (210) 
nan

>  <Pocket>  (210) 
nan

>  <ATP_Site>  (210) 
nan

>  <Peripheral>  (210) 
nan

>  <Num_H_Atoms_ProtBoundConf>  (210) 
nan

>  <Num_Resolved_Atoms>  (210) 
nan

>  <Num_Not_Resolved_Atoms>  (210) 
nan

$$$$
CHEMBL2324828
     RDKit          3D

  0  0  0  0  0  0  0  0  0  0999 V3000
M  V30 BEGIN CTAB
M  V30 COUNTS 49 52 0 0 0
M  V30 BEGIN ATOM
M  V30 1 C 0.696288 -6.332447 1.719687 0
M  V30 2 C 0.741257 -4.969110 2.340807 0
M  V30 3 C 0.336052 -4.907987 3.657674 0
M  V30 4 C 0.351637 -3.673637 4.306002 0
M  V30 5 C 0.776710 -2.597076 3.569237 0
M  V30 6 C 1.184237 -2.647921 2.251191 0
M  V30 7 N 1.637364 -1.573696 1.440236 0
M  V30 8 N 2.937205 -1.354545 1.598245 0
M  V30 9 N 3.305123 -0.347725 0.818963 0
M  V30 10 C 2.224407 0.124448 0.117734 0
M  V30 11 C 2.286366 1.252319 -0.805799 0
M  V30 12 C 2.004234 2.621055 -0.297072 0
M  V30 13 C 0.725692 2.956098 0.334933 0
M  V30 14 C 0.776132 4.474892 0.683513 0
M  V30 15 C 0.401094 2.296054 1.639270 0
M  V30 16 C 1.186980 -0.679715 0.539505 0
M  V30 17 C -0.186283 -0.738648 0.177681 0
M  V30 18 C -1.251068 -0.844398 1.052747 0
M  V30 19 C -2.599298 -0.922024 0.786365 0
M  V30 20 C -2.942709 -0.889023 -0.568589 0
M  V30 21 N -4.244028 -0.962178 -0.870466 0
M  V30 22 C -4.605914 -0.931869 -2.185717 0
M  V30 23 C -3.622138 -0.827630 -3.147566 0
M  V30 24 N -2.317378 -0.755019 -2.825698 0
M  V30 25 C -1.960538 -0.784561 -1.541869 0
M  V30 26 C -0.633464 -0.714204 -1.137584 0
M  V30 27 N 1.149180 -3.880092 1.665516 0
M  V30 28 H 1.587740 -6.436263 1.065423 0
M  V30 29 H -0.254508 -6.439050 1.178244 0
M  V30 30 H 0.832245 -7.126517 2.508247 0
M  V30 31 H -0.003451 -5.746061 4.258342 0
M  V30 32 H 0.058179 -3.489569 5.338021 0
M  V30 33 H 0.826793 -1.577640 3.986223 0
M  V30 34 H 1.589888 1.136880 -1.679626 0
M  V30 35 H 3.348996 1.234535 -1.228482 0
M  V30 36 H 2.879480 2.933606 0.376965 0
M  V30 37 H 2.141905 3.366247 -1.153324 0
M  V30 38 H -0.147120 2.854129 -0.332787 0
M  V30 39 H 1.226144 4.562649 1.692086 0
M  V30 40 H 1.387891 4.998249 -0.067545 0
M  V30 41 H -0.224195 4.906390 0.707789 0
M  V30 42 H 0.286976 3.119430 2.413030 0
M  V30 43 H -0.600562 1.826937 1.655974 0
M  V30 44 H 1.215356 1.689432 2.076609 0
M  V30 45 H -1.024128 -0.870373 2.131883 0
M  V30 46 H -3.340622 -1.002630 1.550254 0
M  V30 47 H -5.683860 -0.994045 -2.393266 0
M  V30 48 H -3.926860 -0.804252 -4.192903 0
M  V30 49 H 0.059472 -0.640895 -1.964504 0
M  V30 END ATOM
M  V30 BEGIN BOND
M  V30 1 1 1 2
M  V30 2 2 2 3
M  V30 3 1 3 4
M  V30 4 2 4 5
M  V30 5 1 5 6
M  V30 6 1 6 7
M  V30 7 1 7 8
M  V30 8 2 8 9
M  V30 9 1 9 10
M  V30 10 1 10 11
M  V30 11 1 11 12
M  V30 12 1 12 13
M  V30 13 1 13 14
M  V30 14 1 13 15
M  V30 15 2 10 16
M  V30 16 1 16 17
M  V30 17 2 17 18
M  V30 18 1 18 19
M  V30 19 2 19 20
M  V30 20 1 20 21
M  V30 21 2 21 22
M  V30 22 1 22 23
M  V30 23 2 23 24
M  V30 24 1 24 25
M  V30 25 2 25 26
M  V30 26 2 6 27
M  V30 27 1 27 2
M  V30 28 1 16 7
M  V30 29 1 26 17
M  V30 30 1 25 20
M  V30 31 1 1 28
M  V30 32 1 1 29
M  V30 33 1 1 30
M  V30 34 1 3 31
M  V30 35 1 4 32
M  V30 36 1 5 33
M  V30 37 1 11 34
M  V30 38 1 11 35
M  V30 39 1 12 36
M  V30 40 1 12 37
M  V30 41 1 13 38
M  V30 42 1 14 39
M  V30 43 1 14 40
M  V30 44 1 14 41
M  V30 45 1 15 42
M  V30 46 1 15 43
M  V30 47 1 15 44
M  V30 48 1 18 45
M  V30 49 1 19 46
M  V30 50 1 22 47
M  V30 51 1 23 48
M  V30 52 1 26 49
M  V30 END BOND
M  V30 END CTAB
M  END
>  <Dataset>  (211) 
ChEMBL_Kinases

>  <Ligand_Instance>  (211) 
nan

>  <PDB_ID>  (211) 
nan

>  <Standardized_SMILES>  (211) 
Cc1cccc(-n2nnc(CCC(C)C)c2-c2ccc3nccnc3c2)n1

>  <Name>  (211) 
nan

>  <Pocket>  (211) 
nan

>  <ATP_Site>  (211) 
nan

>  <Peripheral>  (211) 
nan

>  <Num_H_Atoms_ProtBoundConf>  (211) 
nan

>  <Num_Resolved_Atoms>  (211) 
nan

>  <Num_Not_Resolved_Atoms>  (211) 
nan

$$$$
CHEMBL2324923
     RDKit          3D

  0  0  0  0  0  0  0  0  0  0999 V3000
M  V30 BEGIN CTAB
M  V30 COUNTS 65 69 0 0 0
M  V30 BEGIN ATOM
M  V30 1 C 3.626804 1.913805 6.765752 0
M  V30 2 N 3.186894 0.671220 6.195961 0
M  V30 3 C 4.318794 -0.085919 5.754349 0
M  V30 4 C 4.970469 0.500066 4.522611 0
M  V30 5 N 4.021962 0.680632 3.447571 0
M  V30 6 C 4.089468 2.003139 2.870132 0
M  V30 7 C 3.099827 2.117879 1.770313 0
M  V30 8 C 1.924426 2.826777 2.044080 0
M  V30 9 C 0.928680 2.989126 1.079366 0
M  V30 10 C 1.138143 2.425700 -0.163632 0
M  V30 11 N 0.080244 2.630299 -1.090744 0
M  V30 12 C -0.996379 1.683947 -1.206008 0
M  V30 13 O -0.898026 0.693571 -0.427864 0
M  V30 14 N -2.094074 1.797515 -2.091408 0
M  V30 15 C -3.069191 0.751448 -2.060793 0
M  V30 16 C -3.047188 -0.387367 -2.814762 0
M  V30 17 C -4.152624 -1.153513 -2.510147 0
M  V30 18 C -4.516025 -2.423181 -3.070759 0
M  V30 19 C -4.831591 -3.505815 -3.528482 0
M  V30 20 C -5.229347 -4.793555 -4.062147 0
M  V30 21 C -6.371748 -4.913457 -4.838494 0
M  V30 22 N -6.774581 -6.101710 -5.354249 0
M  V30 23 C -6.018248 -7.181968 -5.085078 0
M  V30 24 C -4.886915 -7.050917 -4.313722 0
M  V30 25 N -4.001874 -7.991920 -3.930776 0
M  V30 26 C -3.058364 -7.415672 -3.188910 0
M  V30 27 C -3.329122 -6.057058 -3.079879 0
M  V30 28 N -4.461267 -5.872795 -3.785133 0
M  V30 29 N -4.834837 -0.459931 -1.566208 0
M  V30 30 C -6.080167 -0.832128 -0.906216 0
M  V30 31 N -4.193471 0.681549 -1.291249 0
M  V30 32 C 2.297170 1.727966 -0.430514 0
M  V30 33 C 3.293995 1.561045 0.523776 0
M  V30 34 C 4.536145 0.812271 0.235290 0
M  V30 35 F 4.456474 0.369021 -1.080838 0
M  V30 36 F 4.687722 -0.308286 1.022675 0
M  V30 37 F 5.673234 1.621667 0.271284 0
M  V30 38 C 2.683000 0.305362 3.824116 0
M  V30 39 C 2.255813 0.921785 5.133838 0
M  V30 40 H 2.838078 2.287157 7.448575 0
M  V30 41 H 3.768894 2.685385 5.992382 0
M  V30 42 H 4.563521 1.735750 7.328970 0
M  V30 43 H 4.012692 -1.122748 5.475493 0
M  V30 44 H 5.057558 -0.147780 6.563454 0
M  V30 45 H 5.607455 1.373824 4.718606 0
M  V30 46 H 5.675242 -0.302073 4.155903 0
M  V30 47 H 3.967686 2.824865 3.604087 0
M  V30 48 H 5.099125 2.126354 2.433501 0
M  V30 49 H 1.728407 3.286507 3.022367 0
M  V30 50 H 0.038476 3.541559 1.330662 0
M  V30 51 H -0.007485 3.458824 -1.749774 0
M  V30 52 H -2.131194 2.619360 -2.704733 0
M  V30 53 H -2.264222 -0.619108 -3.532125 0
M  V30 54 H -6.940266 -3.994886 -5.018228 0
M  V30 55 H -6.330567 -8.132557 -5.491186 0
M  V30 56 H -2.203337 -7.875997 -2.724489 0
M  V30 57 H -2.806244 -5.251028 -2.565822 0
M  V30 58 H -6.179179 -1.930100 -0.991450 0
M  V30 59 H -6.935614 -0.368719 -1.446998 0
M  V30 60 H -6.065941 -0.537613 0.169950 0
M  V30 61 H 2.414900 1.303325 -1.425077 0
M  V30 62 H 2.651978 -0.797014 3.945417 0
M  V30 63 H 1.974717 0.586375 3.050187 0
M  V30 64 H 2.082484 2.017885 5.028483 0
M  V30 65 H 1.277546 0.474050 5.403536 0
M  V30 END ATOM
M  V30 BEGIN BOND
M  V30 1 1 1 2
M  V30 2 1 2 3
M  V30 3 1 3 4
M  V30 4 1 4 5
M  V30 5 1 5 6
M  V30 6 1 6 7
M  V30 7 2 7 8
M  V30 8 1 8 9
M  V30 9 2 9 10
M  V30 10 1 10 11
M  V30 11 1 11 12
M  V30 12 2 12 13
M  V30 13 1 12 14
M  V30 14 1 14 15
M  V30 15 1 15 16
M  V30 16 2 16 17
M  V30 17 1 17 18
M  V30 18 3 18 19
M  V30 19 1 19 20
M  V30 20 2 20 21
M  V30 21 1 21 22
M  V30 22 2 22 23
M  V30 23 1 23 24
M  V30 24 2 24 25
M  V30 25 1 25 26
M  V30 26 2 26 27
M  V30 27 1 27 28
M  V30 28 1 17 29
M  V30 29 1 29 30
M  V30 30 1 29 31
M  V30 31 1 10 32
M  V30 32 2 32 33
M  V30 33 1 33 34
M  V30 34 1 34 35
M  V30 35 1 34 36
M  V30 36 1 34 37
M  V30 37 1 5 38
M  V30 38 1 38 39
M  V30 39 1 39 2
M  V30 40 1 33 7
M  V30 41 2 31 15
M  V30 42 1 28 20
M  V30 43 1 28 24
M  V30 44 1 1 40
M  V30 45 1 1 41
M  V30 46 1 1 42
M  V30 47 1 3 43
M  V30 48 1 3 44
M  V30 49 1 4 45
M  V30 50 1 4 46
M  V30 51 1 6 47
M  V30 52 1 6 48
M  V30 53 1 8 49
M  V30 54 1 9 50
M  V30 55 1 11 51
M  V30 56 1 14 52
M  V30 57 1 16 53
M  V30 58 1 21 54
M  V30 59 1 23 55
M  V30 60 1 26 56
M  V30 61 1 27 57
M  V30 62 1 30 58
M  V30 63 1 30 59
M  V30 64 1 30 60
M  V30 65 1 32 61
M  V30 66 1 38 62
M  V30 67 1 38 63
M  V30 68 1 39 64
M  V30 69 1 39 65
M  V30 END BOND
M  V30 END CTAB
M  END
>  <Dataset>  (212) 
ChEMBL_Kinases

>  <Ligand_Instance>  (212) 
nan

>  <PDB_ID>  (212) 
nan

>  <Standardized_SMILES>  (212) 
CN1CCN(Cc2ccc(NC(=O)Nc3cc(C#Cc4cncc5nccn45)n(C)n3)cc2C(F)(F)F)CC1

>  <Name>  (212) 
nan

>  <Pocket>  (212) 
nan

>  <ATP_Site>  (212) 
nan

>  <Peripheral>  (212) 
nan

>  <Num_H_Atoms_ProtBoundConf>  (212) 
nan

>  <Num_Resolved_Atoms>  (212) 
nan

>  <Num_Not_Resolved_Atoms>  (212) 
nan

$$$$
CHEMBL2324924
     RDKit          3D

  0  0  0  0  0  0  0  0  0  0999 V3000
M  V30 BEGIN CTAB
M  V30 COUNTS 66 70 0 0 0
M  V30 BEGIN ATOM
M  V30 1 C 3.878012 -0.886554 5.952320 0
M  V30 2 C 2.764577 -0.957409 4.980264 0
M  V30 3 C 1.458439 -1.079195 5.463424 0
M  V30 4 C 0.414041 -1.145868 4.553006 0
M  V30 5 C 0.642244 -1.094386 3.191626 0
M  V30 6 C -0.409321 -1.157175 2.182887 0
M  V30 7 O -0.179355 -1.121753 0.925634 0
M  V30 8 N -1.800837 -1.263574 2.457163 0
M  V30 9 C -2.660966 -1.310791 1.324851 0
M  V30 10 C -3.123825 -0.104971 0.843135 0
M  V30 11 C -3.951624 -0.103281 -0.240203 0
M  V30 12 C -4.386030 -1.244751 -0.926252 0
M  V30 13 C -5.297319 -1.188591 -2.094126 0
M  V30 14 N -4.574428 -1.436103 -3.289347 0
M  V30 15 C -5.356552 -1.423366 -4.483051 0
M  V30 16 C -5.808021 0.001753 -4.726549 0
M  V30 17 N -4.696439 0.915302 -4.774985 0
M  V30 18 C -4.885391 2.165615 -4.132454 0
M  V30 19 C -3.427366 0.281137 -4.582200 0
M  V30 20 C -3.370874 -0.714540 -3.462771 0
M  V30 21 C -3.899325 -2.447665 -0.412999 0
M  V30 22 C -4.288701 -3.731360 -1.054991 0
M  V30 23 F -3.902260 -3.802603 -2.370684 0
M  V30 24 F -3.662097 -4.776763 -0.405659 0
M  V30 25 F -5.646113 -3.968093 -0.931216 0
M  V30 26 C -3.048336 -2.473903 0.698109 0
M  V30 27 C 1.932894 -0.974096 2.717922 0
M  V30 28 C 2.965726 -0.907932 3.611738 0
M  V30 29 C 4.336363 -0.780920 3.193587 0
M  V30 30 C 5.506675 -0.655593 2.849432 0
M  V30 31 C 6.876703 -0.503002 2.421444 0
M  V30 32 C 7.340794 -1.293572 1.389947 0
M  V30 33 N 8.612613 -1.171419 0.971722 0
M  V30 34 C 9.411107 -0.272251 1.574602 0
M  V30 35 C 8.892929 0.497427 2.607429 0
M  V30 36 N 9.497274 1.456271 3.356274 0
M  V30 37 C 8.603705 1.923779 4.232428 0
M  V30 38 C 7.402927 1.266060 4.056840 0
M  V30 39 N 7.638137 0.402580 3.047178 0
M  V30 40 H 3.735237 -0.039958 6.678376 0
M  V30 41 H 4.794755 -0.669979 5.370657 0
M  V30 42 H 3.964538 -1.815027 6.544522 0
M  V30 43 H 1.200391 -1.125402 6.515355 0
M  V30 44 H -0.610476 -1.240922 4.898134 0
M  V30 45 H -2.089520 -1.299117 3.478173 0
M  V30 46 H -2.862105 0.848183 1.284054 0
M  V30 47 H -4.333543 0.847312 -0.642913 0
M  V30 48 H -6.160662 -1.887537 -1.956910 0
M  V30 49 H -5.722113 -0.146393 -2.080881 0
M  V30 50 H -4.854738 -1.834413 -5.362409 0
M  V30 51 H -6.267410 -2.049692 -4.331713 0
M  V30 52 H -6.370479 0.075374 -5.669724 0
M  V30 53 H -6.500956 0.292673 -3.911676 0
M  V30 54 H -4.650149 2.959427 -4.902680 0
M  V30 55 H -5.955002 2.330890 -3.892874 0
M  V30 56 H -4.219322 2.378865 -3.272643 0
M  V30 57 H -2.676025 1.078172 -4.392533 0
M  V30 58 H -3.142267 -0.228816 -5.530437 0
M  V30 59 H -3.087384 -0.205848 -2.510231 0
M  V30 60 H -2.509416 -1.430063 -3.635114 0
M  V30 61 H -2.660913 -3.393117 1.110540 0
M  V30 62 H 2.206828 -0.926514 1.677620 0
M  V30 63 H 6.701647 -2.004606 0.916242 0
M  V30 64 H 10.454680 -0.125310 1.280405 0
M  V30 65 H 8.870280 2.693902 4.928516 0
M  V30 66 H 6.500926 1.425171 4.611910 0
M  V30 END ATOM
M  V30 BEGIN BOND
M  V30 1 1 1 2
M  V30 2 2 2 3
M  V30 3 1 3 4
M  V30 4 2 4 5
M  V30 5 1 5 6
M  V30 6 2 6 7
M  V30 7 1 6 8
M  V30 8 1 8 9
M  V30 9 2 9 10
M  V30 10 1 10 11
M  V30 11 2 11 12
M  V30 12 1 12 13
M  V30 13 1 13 14
M  V30 14 1 14 15
M  V30 15 1 15 16
M  V30 16 1 16 17
M  V30 17 1 17 18
M  V30 18 1 17 19
M  V30 19 1 19 20
M  V30 20 1 12 21
M  V30 21 1 21 22
M  V30 22 1 22 23
M  V30 23 1 22 24
M  V30 24 1 22 25
M  V30 25 2 21 26
M  V30 26 1 5 27
M  V30 27 2 27 28
M  V30 28 1 28 29
M  V30 29 3 29 30
M  V30 30 1 30 31
M  V30 31 2 31 32
M  V30 32 1 32 33
M  V30 33 2 33 34
M  V30 34 1 34 35
M  V30 35 2 35 36
M  V30 36 1 36 37
M  V30 37 2 37 38
M  V30 38 1 38 39
M  V30 39 1 28 2
M  V30 40 1 39 31
M  V30 41 1 26 9
M  V30 42 1 39 35
M  V30 43 1 20 14
M  V30 44 1 1 40
M  V30 45 1 1 41
M  V30 46 1 1 42
M  V30 47 1 3 43
M  V30 48 1 4 44
M  V30 49 1 8 45
M  V30 50 1 10 46
M  V30 51 1 11 47
M  V30 52 1 13 48
M  V30 53 1 13 49
M  V30 54 1 15 50
M  V30 55 1 15 51
M  V30 56 1 16 52
M  V30 57 1 16 53
M  V30 58 1 18 54
M  V30 59 1 18 55
M  V30 60 1 18 56
M  V30 61 1 19 57
M  V30 62 1 19 58
M  V30 63 1 20 59
M  V30 64 1 20 60
M  V30 65 1 26 61
M  V30 66 1 27 62
M  V30 67 1 32 63
M  V30 68 1 34 64
M  V30 69 1 37 65
M  V30 70 1 38 66
M  V30 END BOND
M  V30 END CTAB
M  END
>  <Dataset>  (213) 
ChEMBL_Kinases

>  <Ligand_Instance>  (213) 
nan

>  <PDB_ID>  (213) 
nan

>  <Standardized_SMILES>  (213) 
Cc1ccc(C(=O)Nc2ccc(CN3CCN(C)CC3)c(C(F)(F)F)c2)cc1C#Cc1cncc2nccn12

>  <Name>  (213) 
nan

>  <Pocket>  (213) 
nan

>  <ATP_Site>  (213) 
nan

>  <Peripheral>  (213) 
nan

>  <Num_H_Atoms_ProtBoundConf>  (213) 
nan

>  <Num_Resolved_Atoms>  (213) 
nan

>  <Num_Not_Resolved_Atoms>  (213) 
nan

$$$$
CHEMBL2324925
     RDKit          3D

  0  0  0  0  0  0  0  0  0  0999 V3000
M  V30 BEGIN CTAB
M  V30 COUNTS 65 69 0 0 0
M  V30 BEGIN ATOM
M  V30 1 C 3.186303 3.344647 6.469631 0
M  V30 2 N 2.937473 1.981112 6.064106 0
M  V30 3 C 4.140923 1.211096 5.899533 0
M  V30 4 C 4.930310 1.620213 4.658669 0
M  V30 5 N 4.126120 1.550327 3.484792 0
M  V30 6 C 4.240799 2.682882 2.594664 0
M  V30 7 C 3.370843 2.514099 1.410279 0
M  V30 8 C 2.181700 3.236441 1.348136 0
M  V30 9 C 1.337591 3.110395 0.264865 0
M  V30 10 C 1.682135 2.257663 -0.763104 0
M  V30 11 N 0.859702 2.058592 -1.934499 0
M  V30 12 C -0.068454 0.979904 -1.725534 0
M  V30 13 O -0.035546 0.398949 -0.626532 0
M  V30 14 N -1.022319 0.531102 -2.689383 0
M  V30 15 C -1.902557 -0.547011 -2.392976 0
M  V30 16 C -2.870765 -1.087639 -3.209121 0
M  V30 17 C -3.429419 -2.097184 -2.445028 0
M  V30 18 C -4.501007 -2.991365 -2.821920 0
M  V30 19 C -5.397780 -3.745516 -3.116827 0
M  V30 20 C -6.463254 -4.650718 -3.483546 0
M  V30 21 C -7.698514 -4.270845 -3.960607 0
M  V30 22 N -8.426911 -5.372717 -4.193718 0
M  V30 23 C -7.647935 -6.424864 -3.863478 0
M  V30 24 C -7.941778 -7.781309 -3.924130 0
M  V30 25 N -6.987885 -8.625888 -3.535520 0
M  V30 26 C -5.785406 -8.220720 -3.099553 0
M  V30 27 C -5.501827 -6.863020 -3.042668 0
M  V30 28 N -6.457968 -5.979529 -3.433304 0
M  V30 29 N -2.838889 -2.163300 -1.246897 0
M  V30 30 C -3.038181 -3.022016 -0.093438 0
M  V30 31 N -1.925787 -1.229735 -1.227276 0
M  V30 32 C 2.871694 1.569996 -0.644028 0
M  V30 33 C 3.766499 1.645384 0.408924 0
M  V30 34 C 5.018549 0.861887 0.434633 0
M  V30 35 F 5.060806 0.105885 -0.744134 0
M  V30 36 F 5.084548 -0.049049 1.466673 0
M  V30 37 F 6.148888 1.684489 0.385950 0
M  V30 38 C 2.757993 1.188308 3.758965 0
M  V30 39 C 2.131522 1.994904 4.868932 0
M  V30 40 H 4.301481 3.488649 6.443692 0
M  V30 41 H 2.788492 4.075416 5.714344 0
M  V30 42 H 2.741297 3.630081 7.433134 0
M  V30 43 H 4.763155 1.314882 6.792190 0
M  V30 44 H 3.854071 0.151889 5.786812 0
M  V30 45 H 5.461060 2.581601 4.818052 0
M  V30 46 H 5.758301 0.856485 4.587200 0
M  V30 47 H 4.030245 3.650443 3.049910 0
M  V30 48 H 5.289301 2.708941 2.243614 0
M  V30 49 H 1.887938 3.912762 2.145322 0
M  V30 50 H 0.418319 3.657270 0.196663 0
M  V30 51 H 0.825549 2.541407 -2.862428 0
M  V30 52 H -1.046027 1.014825 -3.598507 0
M  V30 53 H -3.140197 -0.803800 -4.205715 0
M  V30 54 H -7.982292 -3.227474 -4.105391 0
M  V30 55 H -8.898849 -8.145835 -4.269528 0
M  V30 56 H -5.021343 -8.926122 -2.787199 0
M  V30 57 H -4.535670 -6.525679 -2.692577 0
M  V30 58 H -2.060302 -3.554710 0.090043 0
M  V30 59 H -3.783558 -3.784484 -0.390939 0
M  V30 60 H -3.281292 -2.479212 0.823804 0
M  V30 61 H 3.126973 0.900307 -1.466992 0
M  V30 62 H 2.732280 0.122143 4.070745 0
M  V30 63 H 2.155732 1.283987 2.847658 0
M  V30 64 H 1.893824 3.034485 4.553080 0
M  V30 65 H 1.148231 1.508089 5.086270 0
M  V30 END ATOM
M  V30 BEGIN BOND
M  V30 1 1 1 2
M  V30 2 1 2 3
M  V30 3 1 3 4
M  V30 4 1 4 5
M  V30 5 1 5 6
M  V30 6 1 6 7
M  V30 7 2 7 8
M  V30 8 1 8 9
M  V30 9 2 9 10
M  V30 10 1 10 11
M  V30 11 1 11 12
M  V30 12 2 12 13
M  V30 13 1 12 14
M  V30 14 1 14 15
M  V30 15 1 15 16
M  V30 16 2 16 17
M  V30 17 1 17 18
M  V30 18 3 18 19
M  V30 19 1 19 20
M  V30 20 2 20 21
M  V30 21 1 21 22
M  V30 22 2 22 23
M  V30 23 1 23 24
M  V30 24 2 24 25
M  V30 25 1 25 26
M  V30 26 2 26 27
M  V30 27 1 27 28
M  V30 28 1 17 29
M  V30 29 1 29 30
M  V30 30 1 29 31
M  V30 31 1 10 32
M  V30 32 2 32 33
M  V30 33 1 33 34
M  V30 34 1 34 35
M  V30 35 1 34 36
M  V30 36 1 34 37
M  V30 37 1 5 38
M  V30 38 1 38 39
M  V30 39 1 39 2
M  V30 40 1 33 7
M  V30 41 2 31 15
M  V30 42 1 28 20
M  V30 43 1 28 23
M  V30 44 1 1 40
M  V30 45 1 1 41
M  V30 46 1 1 42
M  V30 47 1 3 43
M  V30 48 1 3 44
M  V30 49 1 4 45
M  V30 50 1 4 46
M  V30 51 1 6 47
M  V30 52 1 6 48
M  V30 53 1 8 49
M  V30 54 1 9 50
M  V30 55 1 11 51
M  V30 56 1 14 52
M  V30 57 1 16 53
M  V30 58 1 21 54
M  V30 59 1 24 55
M  V30 60 1 26 56
M  V30 61 1 27 57
M  V30 62 1 30 58
M  V30 63 1 30 59
M  V30 64 1 30 60
M  V30 65 1 32 61
M  V30 66 1 38 62
M  V30 67 1 38 63
M  V30 68 1 39 64
M  V30 69 1 39 65
M  V30 END BOND
M  V30 END CTAB
M  END
>  <Dataset>  (214) 
ChEMBL_Kinases

>  <Ligand_Instance>  (214) 
nan

>  <PDB_ID>  (214) 
nan

>  <Standardized_SMILES>  (214) 
CN1CCN(Cc2ccc(NC(=O)Nc3cc(C#Cc4cnc5cnccn45)n(C)n3)cc2C(F)(F)F)CC1

>  <Name>  (214) 
nan

>  <Pocket>  (214) 
nan

>  <ATP_Site>  (214) 
nan

>  <Peripheral>  (214) 
nan

>  <Num_H_Atoms_ProtBoundConf>  (214) 
nan

>  <Num_Resolved_Atoms>  (214) 
nan

>  <Num_Not_Resolved_Atoms>  (214) 
nan

$$$$
CHEMBL2324926
     RDKit          3D

  0  0  0  0  0  0  0  0  0  0999 V3000
M  V30 BEGIN CTAB
M  V30 COUNTS 65 69 0 0 0
M  V30 BEGIN ATOM
M  V30 1 C 4.013889 2.134653 5.824477 0
M  V30 2 N 3.296637 0.929537 5.467909 0
M  V30 3 C 4.200259 -0.094873 4.988736 0
M  V30 4 C 4.879871 0.285111 3.704538 0
M  V30 5 N 3.905341 0.673255 2.722991 0
M  V30 6 C 4.204863 1.882171 2.007091 0
M  V30 7 C 3.099219 2.124456 1.044728 0
M  V30 8 C 2.187343 3.112441 1.392869 0
M  V30 9 C 1.119453 3.417034 0.574646 0
M  V30 10 C 0.976409 2.714049 -0.604393 0
M  V30 11 N -0.051092 2.852573 -1.610494 0
M  V30 12 C -1.180452 2.011482 -1.389304 0
M  V30 13 O -1.110188 1.277434 -0.351985 0
M  V30 14 N -2.360932 1.907181 -2.193906 0
M  V30 15 C -3.391485 1.001894 -1.807852 0
M  V30 16 C -3.334293 -0.306659 -2.293549 0
M  V30 17 C -4.458163 -0.943019 -1.753112 0
M  V30 18 C -4.804947 -2.320156 -1.989927 0
M  V30 19 C -5.077040 -3.481509 -2.188098 0
M  V30 20 C -5.392659 -4.881420 -2.404045 0
M  V30 21 C -6.631016 -5.477882 -2.510687 0
M  V30 22 N -6.381420 -6.796027 -2.707071 0
M  V30 23 C -5.054305 -6.990165 -2.719091 0
M  V30 24 C -4.301973 -8.137264 -2.882965 0
M  V30 25 C -2.927993 -8.057935 -2.852854 0
M  V30 26 C -2.310129 -6.842119 -2.660565 0
M  V30 27 N -3.106451 -5.777758 -2.509759 0
M  V30 28 N -4.419626 -5.798521 -2.530214 0
M  V30 29 N -5.130190 -0.056807 -0.997097 0
M  V30 30 C -6.354052 -0.299204 -0.255755 0
M  V30 31 N -4.493218 1.103059 -1.030285 0
M  V30 32 C 1.904362 1.721395 -0.940509 0
M  V30 33 C 2.994981 1.398061 -0.122771 0
M  V30 34 C 3.962803 0.350059 -0.497228 0
M  V30 35 F 5.253533 0.788299 -0.635511 0
M  V30 36 F 3.595899 -0.167128 -1.733728 0
M  V30 37 F 3.956945 -0.711335 0.384370 0
M  V30 38 C 2.550006 0.554649 3.179897 0
M  V30 39 C 2.305111 1.259729 4.492191 0
M  V30 40 H 3.842818 2.442837 6.881750 0
M  V30 41 H 3.752067 3.003538 5.181459 0
M  V30 42 H 5.120150 1.979738 5.663919 0
M  V30 43 H 4.958579 -0.285593 5.785267 0
M  V30 44 H 3.637104 -1.020587 4.849163 0
M  V30 45 H 5.693223 1.027216 3.834963 0
M  V30 46 H 5.383295 -0.645372 3.323874 0
M  V30 47 H 4.366862 2.754079 2.673037 0
M  V30 48 H 5.136373 1.729888 1.437468 0
M  V30 49 H 2.237681 3.701853 2.299563 0
M  V30 50 H 0.351946 4.151296 0.727704 0
M  V30 51 H -0.133814 3.452812 -2.478265 0
M  V30 52 H -2.329112 2.535004 -3.007844 0
M  V30 53 H -2.625988 -0.794136 -2.937593 0
M  V30 54 H -7.571392 -4.970782 -2.446333 0
M  V30 55 H -4.714555 -9.122092 -3.037787 0
M  V30 56 H -2.252123 -8.909633 -2.972900 0
M  V30 57 H -1.240957 -6.640107 -2.616000 0
M  V30 58 H -6.135850 -0.789766 0.713690 0
M  V30 59 H -7.015577 -1.022671 -0.813863 0
M  V30 60 H -6.905773 0.643631 -0.053902 0
M  V30 61 H 1.853715 1.123606 -1.859795 0
M  V30 62 H 2.345542 -0.527888 3.348074 0
M  V30 63 H 1.869766 0.884772 2.398597 0
M  V30 64 H 2.286198 2.342697 4.277447 0
M  V30 65 H 1.273458 0.989110 4.821411 0
M  V30 END ATOM
M  V30 BEGIN BOND
M  V30 1 1 1 2
M  V30 2 1 2 3
M  V30 3 1 3 4
M  V30 4 1 4 5
M  V30 5 1 5 6
M  V30 6 1 6 7
M  V30 7 2 7 8
M  V30 8 1 8 9
M  V30 9 2 9 10
M  V30 10 1 10 11
M  V30 11 1 11 12
M  V30 12 2 12 13
M  V30 13 1 12 14
M  V30 14 1 14 15
M  V30 15 1 15 16
M  V30 16 2 16 17
M  V30 17 1 17 18
M  V30 18 3 18 19
M  V30 19 1 19 20
M  V30 20 2 20 21
M  V30 21 1 21 22
M  V30 22 2 22 23
M  V30 23 1 23 24
M  V30 24 2 24 25
M  V30 25 1 25 26
M  V30 26 2 26 27
M  V30 27 1 27 28
M  V30 28 1 17 29
M  V30 29 1 29 30
M  V30 30 1 29 31
M  V30 31 1 10 32
M  V30 32 2 32 33
M  V30 33 1 33 34
M  V30 34 1 34 35
M  V30 35 1 34 36
M  V30 36 1 34 37
M  V30 37 1 5 38
M  V30 38 1 38 39
M  V30 39 1 39 2
M  V30 40 1 33 7
M  V30 41 2 31 15
M  V30 42 1 28 20
M  V30 43 1 28 23
M  V30 44 1 1 40
M  V30 45 1 1 41
M  V30 46 1 1 42
M  V30 47 1 3 43
M  V30 48 1 3 44
M  V30 49 1 4 45
M  V30 50 1 4 46
M  V30 51 1 6 47
M  V30 52 1 6 48
M  V30 53 1 8 49
M  V30 54 1 9 50
M  V30 55 1 11 51
M  V30 56 1 14 52
M  V30 57 1 16 53
M  V30 58 1 21 54
M  V30 59 1 24 55
M  V30 60 1 25 56
M  V30 61 1 26 57
M  V30 62 1 30 58
M  V30 63 1 30 59
M  V30 64 1 30 60
M  V30 65 1 32 61
M  V30 66 1 38 62
M  V30 67 1 38 63
M  V30 68 1 39 64
M  V30 69 1 39 65
M  V30 END BOND
M  V30 END CTAB
M  END
>  <Dataset>  (215) 
ChEMBL_Kinases

>  <Ligand_Instance>  (215) 
nan

>  <PDB_ID>  (215) 
nan

>  <Standardized_SMILES>  (215) 
CN1CCN(Cc2ccc(NC(=O)Nc3cc(C#Cc4cnc5cccnn45)n(C)n3)cc2C(F)(F)F)CC1

>  <Name>  (215) 
nan

>  <Pocket>  (215) 
nan

>  <ATP_Site>  (215) 
nan

>  <Peripheral>  (215) 
nan

>  <Num_H_Atoms_ProtBoundConf>  (215) 
nan

>  <Num_Resolved_Atoms>  (215) 
nan

>  <Num_Not_Resolved_Atoms>  (215) 
nan

$$$$
CHEMBL2325040
     RDKit          3D

  0  0  0  0  0  0  0  0  0  0999 V3000
M  V30 BEGIN CTAB
M  V30 COUNTS 47 51 0 0 0
M  V30 BEGIN ATOM
M  V30 1 C -1.139908 1.925383 5.095601 0
M  V30 2 C -1.022200 0.496331 4.702554 0
M  V30 3 C -1.799124 -0.487584 5.325861 0
M  V30 4 C -1.715539 -1.819104 4.991987 0
M  V30 5 C -0.837459 -2.198854 4.009938 0
M  V30 6 C -0.052035 -1.236141 3.373247 0
M  V30 7 N 0.921742 -1.364772 2.342248 0
M  V30 8 N 2.157119 -1.628104 2.800993 0
M  V30 9 N 2.984356 -1.722683 1.770127 0
M  V30 10 C 2.288325 -1.519343 0.610466 0
M  V30 11 C 2.924637 -1.568234 -0.715624 0
M  V30 12 C 3.238360 -0.268510 -1.333935 0
M  V30 13 C 2.641332 0.467159 -2.331597 0
M  V30 14 C 3.109352 1.687839 -2.763653 0
M  V30 15 C 4.229911 2.243188 -2.199157 0
M  V30 16 C 4.846935 1.538897 -1.206095 0
M  V30 17 C 4.384103 0.316438 -0.768215 0
M  V30 18 C 0.988876 -1.294193 0.977001 0
M  V30 19 C -0.194372 -0.999713 0.247969 0
M  V30 20 C -0.537276 -0.070179 -0.679608 0
M  V30 21 C -1.745281 0.054586 -1.324098 0
M  V30 22 C -2.752594 -0.836011 -1.032141 0
M  V30 23 N -3.931769 -0.740378 -1.638389 0
M  V30 24 C -4.962767 -1.593595 -1.386918 0
M  V30 25 C -4.686059 -2.567477 -0.451327 0
M  V30 26 N -3.494398 -2.684776 0.178519 0
M  V30 27 C -2.510645 -1.821543 -0.102205 0
M  V30 28 C -1.269530 -1.872681 0.494807 0
M  V30 29 N -0.178300 0.049364 3.743108 0
M  V30 30 H -0.369115 2.205435 5.850657 0
M  V30 31 H -0.946253 2.611594 4.229765 0
M  V30 32 H -2.152557 2.131837 5.444690 0
M  V30 33 H -2.484822 -0.174897 6.096061 0
M  V30 34 H -2.292359 -2.607553 5.445130 0
M  V30 35 H -0.636025 -3.189623 3.617423 0
M  V30 36 H 2.314278 -2.212973 -1.403780 0
M  V30 37 H 3.890293 -2.141928 -0.623674 0
M  V30 38 H 1.763030 -0.058737 -2.713312 0
M  V30 39 H 2.487883 2.070489 -3.544857 0
M  V30 40 H 4.507661 3.196202 -2.613125 0
M  V30 41 H 5.742704 2.014435 -0.776126 0
M  V30 42 H 4.989793 -0.125589 0.036678 0
M  V30 43 H 0.254715 0.630008 -0.885290 0
M  V30 44 H -1.852415 0.854971 -2.039437 0
M  V30 45 H -5.945566 -1.588609 -1.830119 0
M  V30 46 H -5.376207 -3.344469 -0.111776 0
M  V30 47 H -1.190744 -2.700172 1.211227 0
M  V30 END ATOM
M  V30 BEGIN BOND
M  V30 1 1 1 2
M  V30 2 2 2 3
M  V30 3 1 3 4
M  V30 4 2 4 5
M  V30 5 1 5 6
M  V30 6 1 6 7
M  V30 7 1 7 8
M  V30 8 2 8 9
M  V30 9 1 9 10
M  V30 10 1 10 11
M  V30 11 1 11 12
M  V30 12 2 12 13
M  V30 13 1 13 14
M  V30 14 2 14 15
M  V30 15 1 15 16
M  V30 16 2 16 17
M  V30 17 2 10 18
M  V30 18 1 18 19
M  V30 19 2 19 20
M  V30 20 1 20 21
M  V30 21 2 21 22
M  V30 22 1 22 23
M  V30 23 2 23 24
M  V30 24 1 24 25
M  V30 25 2 25 26
M  V30 26 1 26 27
M  V30 27 2 27 28
M  V30 28 2 6 29
M  V30 29 1 29 2
M  V30 30 1 18 7
M  V30 31 1 28 19
M  V30 32 1 17 12
M  V30 33 1 27 22
M  V30 34 1 1 30
M  V30 35 1 1 31
M  V30 36 1 1 32
M  V30 37 1 3 33
M  V30 38 1 4 34
M  V30 39 1 5 35
M  V30 40 1 11 36
M  V30 41 1 11 37
M  V30 42 1 13 38
M  V30 43 1 14 39
M  V30 44 1 15 40
M  V30 45 1 16 41
M  V30 46 1 17 42
M  V30 47 1 20 43
M  V30 48 1 21 44
M  V30 49 1 24 45
M  V30 50 1 25 46
M  V30 51 1 28 47
M  V30 END BOND
M  V30 END CTAB
M  END
>  <Dataset>  (216) 
ChEMBL_Kinases

>  <Ligand_Instance>  (216) 
nan

>  <PDB_ID>  (216) 
nan

>  <Standardized_SMILES>  (216) 
Cc1cccc(-n2nnc(Cc3ccccc3)c2-c2ccc3nccnc3c2)n1

>  <Name>  (216) 
nan

>  <Pocket>  (216) 
nan

>  <ATP_Site>  (216) 
nan

>  <Peripheral>  (216) 
nan

>  <Num_H_Atoms_ProtBoundConf>  (216) 
nan

>  <Num_Resolved_Atoms>  (216) 
nan

>  <Num_Not_Resolved_Atoms>  (216) 
nan

$$$$
CHEMBL232380
     RDKit          3D

  0  0  0  0  0  0  0  0  0  0999 V3000
M  V30 BEGIN CTAB
M  V30 COUNTS 26 27 0 0 0
M  V30 BEGIN ATOM
M  V30 1 C -1.010660 -3.477016 0.079010 0
M  V30 2 O -1.043261 -3.098253 1.430359 0
M  V30 3 C -0.728010 -1.816122 1.830826 0
M  V30 4 C -0.343597 -0.759239 0.988408 0
M  V30 5 C -0.079602 0.435601 1.632945 0
M  V30 6 C 0.317709 1.475357 0.666829 0
M  V30 7 C 1.141164 1.240143 -0.297460 0
M  V30 8 S 2.057134 -0.202374 -0.855558 0
M  V30 9 C 2.315784 0.442392 -2.538839 0
M  V30 10 O 2.583004 -0.537050 -3.232193 0
M  V30 11 N 2.112642 1.845312 -2.425916 0
M  V30 12 C 1.489230 2.317092 -1.245608 0
M  V30 13 O 1.328559 3.586294 -1.191076 0
M  V30 14 C -0.143650 0.727063 2.976018 0
M  V30 15 C -0.530468 -0.349342 3.788131 0
M  V30 16 C -0.808079 -1.579821 3.186950 0
M  V30 17 O -1.190442 -2.606573 4.075937 0
M  V30 18 H -0.033101 -3.920678 -0.235495 0
M  V30 19 H -1.757027 -4.308635 -0.096697 0
M  V30 20 H -1.249416 -2.658016 -0.624000 0
M  V30 21 H -0.289180 -0.959980 -0.045590 0
M  V30 22 H -0.159571 2.434147 0.870920 0
M  V30 23 H 2.482543 2.313114 -3.288646 0
M  V30 24 H 0.092832 1.714003 3.327364 0
M  V30 25 H -0.589742 -0.167816 4.848447 0
M  V30 26 H -2.188838 -2.826532 4.093079 0
M  V30 END ATOM
M  V30 BEGIN BOND
M  V30 1 1 1 2
M  V30 2 1 2 3
M  V30 3 2 3 4
M  V30 4 1 4 5
M  V30 5 1 5 6
M  V30 6 2 6 7
M  V30 7 1 7 8
M  V30 8 1 8 9
M  V30 9 2 9 10
M  V30 10 1 9 11
M  V30 11 1 11 12
M  V30 12 2 12 13
M  V30 13 2 5 14
M  V30 14 1 14 15
M  V30 15 2 15 16
M  V30 16 1 16 17
M  V30 17 1 16 3
M  V30 18 1 12 7
M  V30 19 1 1 18
M  V30 20 1 1 19
M  V30 21 1 1 20
M  V30 22 1 4 21
M  V30 23 1 6 22
M  V30 24 1 11 23
M  V30 25 1 14 24
M  V30 26 1 15 25
M  V30 27 1 17 26
M  V30 END BOND
M  V30 END CTAB
M  END
>  <Dataset>  (217) 
ChEMBL_Kinases

>  <Ligand_Instance>  (217) 
nan

>  <PDB_ID>  (217) 
nan

>  <Standardized_SMILES>  (217) 
COc1cc(/C=C2\SC(=O)NC2=O)ccc1O

>  <Name>  (217) 
nan

>  <Pocket>  (217) 
nan

>  <ATP_Site>  (217) 
nan

>  <Peripheral>  (217) 
nan

>  <Num_H_Atoms_ProtBoundConf>  (217) 
nan

>  <Num_Resolved_Atoms>  (217) 
nan

>  <Num_Not_Resolved_Atoms>  (217) 
nan

$$$$
CHEMBL2316203
     RDKit          3D

  0  0  0  0  0  0  0  0  0  0999 V3000
M  V30 BEGIN CTAB
M  V30 COUNTS 52 55 0 0 0
M  V30 BEGIN ATOM
M  V30 1 C 6.532039 -2.847452 5.505705 0
M  V30 2 C 6.905044 -1.399705 5.370027 0
M  V30 3 C 5.646857 -0.562337 5.241992 0
M  V30 4 O 4.949088 -0.993071 4.095768 0
M  V30 5 C 3.744551 -0.439313 3.676767 0
M  V30 6 O 3.292443 0.489492 4.386140 0
M  V30 7 C 3.063834 -0.933200 2.470205 0
M  V30 8 C 3.558612 -1.957193 1.683499 0
M  V30 9 C 2.880392 -2.382521 0.562493 0
M  V30 10 C 1.674790 -1.785260 0.197235 0
M  V30 11 C 1.199278 -0.756915 1.006458 0
M  V30 12 C 1.862900 -0.314197 2.135258 0
M  V30 13 C -0.025057 0.062700 0.892199 0
M  V30 14 O -0.252285 0.913440 1.790947 0
M  V30 15 C -0.981465 -0.082464 -0.231249 0
M  V30 16 C -2.179167 0.501887 0.137375 0
M  V30 17 C -3.245360 0.491285 -0.764197 0
M  V30 18 C -3.042034 -0.109323 -1.988297 0
M  V30 19 N -4.105243 -0.140259 -2.928979 0
M  V30 20 C -5.422587 0.357930 -2.745301 0
M  V30 21 C -6.076820 1.338627 -3.462875 0
M  V30 22 C -7.356586 1.716736 -3.171055 0
M  V30 23 C -8.036254 1.122768 -2.141218 0
M  V30 24 F -9.314120 1.544968 -1.898897 0
M  V30 25 C -7.419291 0.146906 -1.408420 0
M  V30 26 C -6.127600 -0.241732 -1.695287 0
M  V30 27 F -5.687754 -1.232368 -0.851099 0
M  V30 28 C -1.858334 -0.696421 -2.374915 0
M  V30 29 C -0.812713 -0.676740 -1.469373 0
M  V30 30 C 0.419793 -1.306419 -1.914306 0
M  V30 31 C 1.032055 -2.313601 -1.015854 0
M  V30 32 H 6.886609 -3.254905 6.486216 0
M  V30 33 H 6.939708 -3.490016 4.712451 0
M  V30 34 H 5.425049 -2.999223 5.513972 0
M  V30 35 H 7.566225 -1.032048 6.177787 0
M  V30 36 H 7.492660 -1.298684 4.421463 0
M  V30 37 H 5.930797 0.495977 5.235226 0
M  V30 38 H 5.071722 -0.765350 6.190102 0
M  V30 39 H 4.500334 -2.424613 1.967707 0
M  V30 40 H 3.249629 -3.182000 -0.066960 0
M  V30 41 H 1.480325 0.488880 2.756930 0
M  V30 42 H -2.284734 0.960807 1.113794 0
M  V30 43 H -4.169757 0.955758 -0.451273 0
M  V30 44 H -4.026045 -0.545511 -3.883803 0
M  V30 45 H -5.467525 1.750010 -4.252567 0
M  V30 46 H -7.808271 2.502779 -3.786468 0
M  V30 47 H -8.033889 -0.268124 -0.611383 0
M  V30 48 H -1.708986 -1.164325 -3.336260 0
M  V30 49 H 0.324187 -1.721776 -2.937490 0
M  V30 50 H 1.180218 -0.481907 -2.020658 0
M  V30 51 H 0.222700 -3.035565 -0.744242 0
M  V30 52 H 1.774377 -2.902960 -1.591603 0
M  V30 END ATOM
M  V30 BEGIN BOND
M  V30 1 1 1 2
M  V30 2 1 2 3
M  V30 3 1 3 4
M  V30 4 1 4 5
M  V30 5 2 5 6
M  V30 6 1 5 7
M  V30 7 2 7 8
M  V30 8 1 8 9
M  V30 9 2 9 10
M  V30 10 1 10 11
M  V30 11 2 11 12
M  V30 12 1 11 13
M  V30 13 2 13 14
M  V30 14 1 13 15
M  V30 15 2 15 16
M  V30 16 1 16 17
M  V30 17 2 17 18
M  V30 18 1 18 19
M  V30 19 1 19 20
M  V30 20 2 20 21
M  V30 21 1 21 22
M  V30 22 2 22 23
M  V30 23 1 23 24
M  V30 24 1 23 25
M  V30 25 2 25 26
M  V30 26 1 26 27
M  V30 27 1 18 28
M  V30 28 2 28 29
M  V30 29 1 29 30
M  V30 30 1 30 31
M  V30 31 1 12 7
M  V30 32 1 29 15
M  V30 33 1 31 10
M  V30 34 1 26 20
M  V30 35 1 1 32
M  V30 36 1 1 33
M  V30 37 1 1 34
M  V30 38 1 2 35
M  V30 39 1 2 36
M  V30 40 1 3 37
M  V30 41 1 3 38
M  V30 42 1 8 39
M  V30 43 1 9 40
M  V30 44 1 12 41
M  V30 45 1 16 42
M  V30 46 1 17 43
M  V30 47 1 19 44
M  V30 48 1 21 45
M  V30 49 1 22 46
M  V30 50 1 25 47
M  V30 51 1 28 48
M  V30 52 1 30 49
M  V30 53 1 30 50
M  V30 54 1 31 51
M  V30 55 1 31 52
M  V30 END BOND
M  V30 END CTAB
M  END
>  <Dataset>  (218) 
ChEMBL_Kinases

>  <Ligand_Instance>  (218) 
nan

>  <PDB_ID>  (218) 
nan

>  <Standardized_SMILES>  (218) 
CCCOC(=O)c1ccc2c(c1)C(=O)c1ccc(Nc3ccc(F)cc3F)cc1CC2

>  <Name>  (218) 
nan

>  <Pocket>  (218) 
nan

>  <ATP_Site>  (218) 
nan

>  <Peripheral>  (218) 
nan

>  <Num_H_Atoms_ProtBoundConf>  (218) 
nan

>  <Num_Resolved_Atoms>  (218) 
nan

>  <Num_Not_Resolved_Atoms>  (218) 
nan

$$$$
CHEMBL2316202
     RDKit          3D

  0  0  0  0  0  0  0  0  0  0999 V3000
M  V30 BEGIN CTAB
M  V30 COUNTS 49 52 0 0 0
M  V30 BEGIN ATOM
M  V30 1 C 3.803218 1.450078 7.580124 0
M  V30 2 C 3.928317 2.396463 6.418164 0
M  V30 3 O 3.259274 1.779702 5.310578 0
M  V30 4 C 3.200499 2.422826 4.070373 0
M  V30 5 O 3.766854 3.538836 4.035869 0
M  V30 6 C 2.547727 1.885238 2.882699 0
M  V30 7 C 2.598660 2.667365 1.766289 0
M  V30 8 C 2.009952 2.242537 0.593174 0
M  V30 9 C 1.382152 1.012802 0.611106 0
M  V30 10 C 1.323534 0.201545 1.750760 0
M  V30 11 C 1.927096 0.654532 2.925087 0
M  V30 12 C 0.702155 -1.109874 1.922150 0
M  V30 13 O 0.902580 -1.703459 3.013451 0
M  V30 14 C -0.129268 -1.776581 0.924462 0
M  V30 15 C -0.301382 -3.110478 1.227261 0
M  V30 16 C -1.063579 -3.894819 0.385786 0
M  V30 17 C -1.654348 -3.375206 -0.746880 0
M  V30 18 N -2.447828 -4.130276 -1.654938 0
M  V30 19 C -3.119962 -3.636916 -2.798614 0
M  V30 20 C -2.931055 -4.016224 -4.111831 0
M  V30 21 C -3.656876 -3.456440 -5.136599 0
M  V30 22 C -4.620928 -2.473832 -4.880312 0
M  V30 23 F -5.320534 -1.940400 -5.908838 0
M  V30 24 C -4.804998 -2.098591 -3.561790 0
M  V30 25 C -4.073019 -2.662011 -2.520409 0
M  V30 26 F -4.431141 -2.136835 -1.317798 0
M  V30 27 C -1.485499 -2.021065 -1.063324 0
M  V30 28 C -0.719712 -1.254252 -0.208687 0
M  V30 29 C -0.613086 0.163317 -0.647301 0
M  V30 30 C 0.787449 0.656833 -0.696914 0
M  V30 31 H 3.521230 2.041487 8.499359 0
M  V30 32 H 2.971502 0.713277 7.461185 0
M  V30 33 H 4.714592 0.844232 7.751179 0
M  V30 34 H 3.433328 3.351982 6.609060 0
M  V30 35 H 4.987711 2.609364 6.167378 0
M  V30 36 H 3.086327 3.634126 1.733897 0
M  V30 37 H 2.005583 2.799290 -0.330550 0
M  V30 38 H 1.890411 0.041783 3.809799 0
M  V30 39 H 0.156088 -3.515462 2.104974 0
M  V30 40 H -1.237970 -4.930167 0.558071 0
M  V30 41 H -2.523804 -5.163256 -1.424481 0
M  V30 42 H -2.177940 -4.776078 -4.258112 0
M  V30 43 H -3.483495 -3.774916 -6.142725 0
M  V30 44 H -5.571816 -1.330353 -3.447876 0
M  V30 45 H -1.888642 -1.489069 -1.914172 0
M  V30 46 H -1.069210 0.334724 -1.626703 0
M  V30 47 H -1.191914 0.768294 0.094681 0
M  V30 48 H 0.796236 1.569394 -1.329057 0
M  V30 49 H 1.408432 -0.110918 -1.233407 0
M  V30 END ATOM
M  V30 BEGIN BOND
M  V30 1 1 1 2
M  V30 2 1 2 3
M  V30 3 1 3 4
M  V30 4 2 4 5
M  V30 5 1 4 6
M  V30 6 2 6 7
M  V30 7 1 7 8
M  V30 8 2 8 9
M  V30 9 1 9 10
M  V30 10 2 10 11
M  V30 11 1 10 12
M  V30 12 2 12 13
M  V30 13 1 12 14
M  V30 14 2 14 15
M  V30 15 1 15 16
M  V30 16 2 16 17
M  V30 17 1 17 18
M  V30 18 1 18 19
M  V30 19 2 19 20
M  V30 20 1 20 21
M  V30 21 2 21 22
M  V30 22 1 22 23
M  V30 23 1 22 24
M  V30 24 2 24 25
M  V30 25 1 25 26
M  V30 26 1 17 27
M  V30 27 2 27 28
M  V30 28 1 28 29
M  V30 29 1 29 30
M  V30 30 1 11 6
M  V30 31 1 28 14
M  V30 32 1 30 9
M  V30 33 1 25 19
M  V30 34 1 1 31
M  V30 35 1 1 32
M  V30 36 1 1 33
M  V30 37 1 2 34
M  V30 38 1 2 35
M  V30 39 1 7 36
M  V30 40 1 8 37
M  V30 41 1 11 38
M  V30 42 1 15 39
M  V30 43 1 16 40
M  V30 44 1 18 41
M  V30 45 1 20 42
M  V30 46 1 21 43
M  V30 47 1 24 44
M  V30 48 1 27 45
M  V30 49 1 29 46
M  V30 50 1 29 47
M  V30 51 1 30 48
M  V30 52 1 30 49
M  V30 END BOND
M  V30 END CTAB
M  END
>  <Dataset>  (219) 
ChEMBL_Kinases

>  <Ligand_Instance>  (219) 
nan

>  <PDB_ID>  (219) 
nan

>  <Standardized_SMILES>  (219) 
CCOC(=O)c1ccc2c(c1)C(=O)c1ccc(Nc3ccc(F)cc3F)cc1CC2

>  <Name>  (219) 
nan

>  <Pocket>  (219) 
nan

>  <ATP_Site>  (219) 
nan

>  <Peripheral>  (219) 
nan

>  <Num_H_Atoms_ProtBoundConf>  (219) 
nan

>  <Num_Resolved_Atoms>  (219) 
nan

>  <Num_Not_Resolved_Atoms>  (219) 
nan

$$$$
CHEMBL2316201
     RDKit          3D

  0  0  0  0  0  0  0  0  0  0999 V3000
M  V30 BEGIN CTAB
M  V30 COUNTS 46 49 0 0 0
M  V30 BEGIN ATOM
M  V30 1 C 5.806461 -4.230455 -3.631427 0
M  V30 2 O 4.847491 -3.456531 -2.920761 0
M  V30 3 C 3.970297 -2.665047 -3.648472 0
M  V30 4 O 4.133343 -2.728231 -4.897268 0
M  V30 5 C 2.939522 -1.820555 -3.092691 0
M  V30 6 C 2.166159 -1.108192 -3.974794 0
M  V30 7 C 1.165383 -0.284371 -3.499135 0
M  V30 8 C 0.942991 -0.178533 -2.119167 0
M  V30 9 C 1.763595 -0.928776 -1.276171 0
M  V30 10 C 2.774603 -1.763774 -1.711318 0
M  V30 11 C 1.723340 -0.984233 0.204802 0
M  V30 12 O 2.596889 -1.660642 0.812152 0
M  V30 13 C 0.735735 -0.307086 1.043665 0
M  V30 14 C 0.649318 -0.884543 2.292861 0
M  V30 15 C -0.249803 -0.337055 3.183500 0
M  V30 16 C -1.075700 0.739686 2.940052 0
M  V30 17 N -2.014742 1.295205 3.815087 0
M  V30 18 C -2.871774 0.771178 4.798718 0
M  V30 19 C -3.029073 -0.552819 5.134132 0
M  V30 20 C -3.862608 -1.052428 6.110299 0
M  V30 21 C -4.618576 -0.150886 6.828293 0
M  V30 22 F -5.455403 -0.585435 7.800059 0
M  V30 23 C -4.501507 1.186342 6.534649 0
M  V30 24 C -3.648339 1.618663 5.545582 0
M  V30 25 F -3.614865 2.977699 5.340894 0
M  V30 26 C -0.914067 1.255375 1.647171 0
M  V30 27 C -0.044173 0.776303 0.692748 0
M  V30 28 C -0.087785 1.504997 -0.559737 0
M  V30 29 C -0.139797 0.725466 -1.813579 0
M  V30 30 H 5.395869 -5.249124 -3.867048 0
M  V30 31 H 6.044886 -3.791984 -4.624897 0
M  V30 32 H 6.712618 -4.363977 -3.015129 0
M  V30 33 H 2.317600 -1.173359 -5.028201 0
M  V30 34 H 0.567105 0.268573 -4.212429 0
M  V30 35 H 3.378672 -2.321130 -1.007172 0
M  V30 36 H 1.269757 -1.719963 2.523378 0
M  V30 37 H -0.263224 -0.811797 4.130785 0
M  V30 38 H -2.058454 2.350888 3.678315 0
M  V30 39 H -2.474075 -1.299930 4.600208 0
M  V30 40 H -3.943569 -2.094565 6.327848 0
M  V30 41 H -5.098218 1.890246 7.102065 0
M  V30 42 H -1.509286 2.103158 1.340994 0
M  V30 43 H 0.773873 2.228150 -0.587639 0
M  V30 44 H -0.986037 2.157578 -0.545849 0
M  V30 45 H -1.108902 0.155175 -1.858966 0
M  V30 46 H -0.217234 1.454271 -2.648509 0
M  V30 END ATOM
M  V30 BEGIN BOND
M  V30 1 1 1 2
M  V30 2 1 2 3
M  V30 3 2 3 4
M  V30 4 1 3 5
M  V30 5 2 5 6
M  V30 6 1 6 7
M  V30 7 2 7 8
M  V30 8 1 8 9
M  V30 9 2 9 10
M  V30 10 1 9 11
M  V30 11 2 11 12
M  V30 12 1 11 13
M  V30 13 2 13 14
M  V30 14 1 14 15
M  V30 15 2 15 16
M  V30 16 1 16 17
M  V30 17 1 17 18
M  V30 18 2 18 19
M  V30 19 1 19 20
M  V30 20 2 20 21
M  V30 21 1 21 22
M  V30 22 1 21 23
M  V30 23 2 23 24
M  V30 24 1 24 25
M  V30 25 1 16 26
M  V30 26 2 26 27
M  V30 27 1 27 28
M  V30 28 1 28 29
M  V30 29 1 10 5
M  V30 30 1 27 13
M  V30 31 1 29 8
M  V30 32 1 24 18
M  V30 33 1 1 30
M  V30 34 1 1 31
M  V30 35 1 1 32
M  V30 36 1 6 33
M  V30 37 1 7 34
M  V30 38 1 10 35
M  V30 39 1 14 36
M  V30 40 1 15 37
M  V30 41 1 17 38
M  V30 42 1 19 39
M  V30 43 1 20 40
M  V30 44 1 23 41
M  V30 45 1 26 42
M  V30 46 1 28 43
M  V30 47 1 28 44
M  V30 48 1 29 45
M  V30 49 1 29 46
M  V30 END BOND
M  V30 END CTAB
M  END
>  <Dataset>  (220) 
ChEMBL_Kinases

>  <Ligand_Instance>  (220) 
nan

>  <PDB_ID>  (220) 
nan

>  <Standardized_SMILES>  (220) 
COC(=O)c1ccc2c(c1)C(=O)c1ccc(Nc3ccc(F)cc3F)cc1CC2

>  <Name>  (220) 
nan

>  <Pocket>  (220) 
nan

>  <ATP_Site>  (220) 
nan

>  <Peripheral>  (220) 
nan

>  <Num_H_Atoms_ProtBoundConf>  (220) 
nan

>  <Num_Resolved_Atoms>  (220) 
nan

>  <Num_Not_Resolved_Atoms>  (220) 
nan

$$$$
CHEMBL2316200
     RDKit          3D

  0  0  0  0  0  0  0  0  0  0999 V3000
M  V30 BEGIN CTAB
M  V30 COUNTS 62 65 0 0 0
M  V30 BEGIN ATOM
M  V30 1 C 5.492664 1.988819 5.960226 0
M  V30 2 C 4.598428 0.792042 5.834718 0
M  V30 3 C 5.370957 -0.510327 5.906139 0
M  V30 4 C 3.673354 0.845970 4.660359 0
M  V30 5 C 4.326008 0.936523 3.323743 0 CFG=2
M  V30 6 N 3.302569 0.981436 2.278420 0
M  V30 7 C 2.996801 1.985575 1.328385 0
M  V30 8 O 3.618332 3.072774 1.243914 0
M  V30 9 C 1.901147 1.749853 0.394533 0
M  V30 10 C 1.641704 2.746681 -0.526681 0
M  V30 11 C 0.611141 2.625764 -1.466954 0
M  V30 12 C -0.186064 1.497149 -1.504561 0
M  V30 13 C 0.108057 0.529209 -0.568392 0
M  V30 14 C 1.115831 0.618972 0.369868 0
M  V30 15 C -0.568499 -0.776642 -0.364733 0
M  V30 16 O -0.099694 -1.647441 0.414459 0
M  V30 17 C -1.823807 -1.168916 -1.039433 0
M  V30 18 C -2.521372 -2.112148 -0.315407 0
M  V30 19 C -3.714709 -2.562074 -0.835643 0
M  V30 20 C -4.266905 -2.143246 -2.025468 0
M  V30 21 N -5.470130 -2.603994 -2.598244 0
M  V30 22 C -6.106208 -3.862489 -2.627648 0
M  V30 23 C -5.658103 -5.049254 -2.099877 0
M  V30 24 C -6.326962 -6.252045 -2.142248 0
M  V30 25 C -7.543215 -6.288563 -2.758829 0
M  V30 26 F -8.261461 -7.431933 -2.841163 0
M  V30 27 C -8.040113 -5.142070 -3.302281 0
M  V30 28 C -7.338062 -3.963767 -3.236474 0
M  V30 29 F -7.933654 -2.870776 -3.817336 0
M  V30 30 C -3.485389 -1.186040 -2.685148 0
M  V30 31 C -2.283124 -0.673409 -2.250288 0
M  V30 32 C -1.691425 0.311087 -3.146323 0
M  V30 33 C -1.192716 1.565349 -2.543320 0
M  V30 34 C 5.334558 -0.092126 3.067521 0
M  V30 35 O 4.660688 -0.336923 2.010530 0
M  V30 36 O 6.308153 -1.062180 2.850373 0
M  V30 37 H 5.589978 2.583591 5.047270 0
M  V30 38 H 5.152989 2.706374 6.756366 0
M  V30 39 H 6.480331 1.620435 6.352091 0
M  V30 40 H 3.928933 0.806244 6.741109 0
M  V30 41 H 6.461379 -0.376562 5.719797 0
M  V30 42 H 5.307551 -0.966374 6.918589 0
M  V30 43 H 4.925857 -1.266426 5.215469 0
M  V30 44 H 3.017859 -0.046824 4.715094 0
M  V30 45 H 3.006064 1.713723 4.799599 0
M  V30 46 H 4.850278 1.922825 3.265882 0
M  V30 47 H 2.822857 0.063782 2.394057 0
M  V30 48 H 2.208747 3.674077 -0.583127 0
M  V30 49 H 0.418936 3.417676 -2.184916 0
M  V30 50 H 1.305918 -0.167491 1.081258 0
M  V30 51 H -2.107599 -2.450968 0.612283 0
M  V30 52 H -4.219124 -3.277484 -0.232063 0
M  V30 53 H -5.952522 -1.814632 -3.084912 0
M  V30 54 H -4.696780 -5.065006 -1.615119 0
M  V30 55 H -5.911122 -7.134738 -1.706604 0
M  V30 56 H -9.008974 -5.178768 -3.792007 0
M  V30 57 H -3.844998 -0.799749 -3.630940 0
M  V30 58 H -2.425436 0.562024 -3.935443 0
M  V30 59 H -0.839185 -0.176867 -3.661141 0
M  V30 60 H -2.080526 2.104990 -2.099504 0
M  V30 61 H -0.868437 2.262982 -3.365882 0
M  V30 62 H 6.127064 -2.049917 3.009765 0
M  V30 END ATOM
M  V30 BEGIN BOND
M  V30 1 1 1 2
M  V30 2 1 2 3
M  V30 3 1 2 4
M  V30 4 1 4 5
M  V30 5 1 5 6
M  V30 6 1 6 7
M  V30 7 2 7 8
M  V30 8 1 7 9
M  V30 9 2 9 10
M  V30 10 1 10 11
M  V30 11 2 11 12
M  V30 12 1 12 13
M  V30 13 2 13 14
M  V30 14 1 13 15
M  V30 15 2 15 16
M  V30 16 1 15 17
M  V30 17 2 17 18
M  V30 18 1 18 19
M  V30 19 2 19 20
M  V30 20 1 20 21
M  V30 21 1 21 22
M  V30 22 2 22 23
M  V30 23 1 23 24
M  V30 24 2 24 25
M  V30 25 1 25 26
M  V30 26 1 25 27
M  V30 27 2 27 28
M  V30 28 1 28 29
M  V30 29 1 20 30
M  V30 30 2 30 31
M  V30 31 1 31 32
M  V30 32 1 32 33
M  V30 33 1 5 34
M  V30 34 2 34 35
M  V30 35 1 34 36
M  V30 36 1 14 9
M  V30 37 1 31 17
M  V30 38 1 33 12
M  V30 39 1 28 22
M  V30 40 1 1 37
M  V30 41 1 1 38
M  V30 42 1 1 39
M  V30 43 1 2 40
M  V30 44 1 3 41
M  V30 45 1 3 42
M  V30 46 1 3 43
M  V30 47 1 4 44
M  V30 48 1 4 45
M  V30 49 1 5 46 CFG=1
M  V30 50 1 6 47
M  V30 51 1 10 48
M  V30 52 1 11 49
M  V30 53 1 14 50
M  V30 54 1 18 51
M  V30 55 1 19 52
M  V30 56 1 21 53
M  V30 57 1 23 54
M  V30 58 1 24 55
M  V30 59 1 27 56
M  V30 60 1 30 57
M  V30 61 1 32 58
M  V30 62 1 32 59
M  V30 63 1 33 60
M  V30 64 1 33 61
M  V30 65 1 36 62
M  V30 END BOND
M  V30 END CTAB
M  END
>  <Dataset>  (221) 
ChEMBL_Kinases

>  <Ligand_Instance>  (221) 
nan

>  <PDB_ID>  (221) 
nan

>  <Standardized_SMILES>  (221) 
CC(C)C[C@H](NC(=O)c1ccc2c(c1)C(=O)c1ccc(Nc3ccc(F)cc3F)cc1CC2)C(=O)O

>  <Name>  (221) 
nan

>  <Pocket>  (221) 
nan

>  <ATP_Site>  (221) 
nan

>  <Peripheral>  (221) 
nan

>  <Num_H_Atoms_ProtBoundConf>  (221) 
nan

>  <Num_Resolved_Atoms>  (221) 
nan

>  <Num_Not_Resolved_Atoms>  (221) 
nan

$$$$
CHEMBL2316199
     RDKit          3D

  0  0  0  0  0  0  0  0  0  0999 V3000
M  V30 BEGIN CTAB
M  V30 COUNTS 65 68 0 0 0
M  V30 BEGIN ATOM
M  V30 1 C 5.266855 1.870197 3.705952 0
M  V30 2 O 4.896065 1.555024 2.379683 0
M  V30 3 C 5.788832 1.622070 1.316179 0
M  V30 4 O 6.924976 1.996931 1.734246 0
M  V30 5 C 5.381161 1.282471 -0.093305 0 CFG=2
M  V30 6 C 5.746524 2.432360 -0.981252 0
M  V30 7 C 5.396643 2.219035 -2.412316 0
M  V30 8 C 6.057560 1.045160 -3.067508 0
M  V30 9 C 5.763263 3.464475 -3.213067 0
M  V30 10 N 4.008251 0.903379 -0.150702 0
M  V30 11 C 3.101753 -0.162123 -0.384972 0
M  V30 12 O 3.711146 -1.251274 -0.656104 0
M  V30 13 C 1.659659 0.036338 -0.306832 0
M  V30 14 C 0.955307 1.218469 -0.174175 0
M  V30 15 C -0.404377 1.224371 -0.103792 0
M  V30 16 C -1.192015 0.065982 -0.156848 0
M  V30 17 C -0.429412 -1.078793 -0.287891 0
M  V30 18 C 0.963828 -1.155350 -0.367158 0
M  V30 19 C -1.019618 -2.438520 -0.342040 0
M  V30 20 O -0.353043 -3.289512 -1.011772 0
M  V30 21 C -2.276583 -2.849264 0.303113 0
M  V30 22 C -2.347521 -4.222230 0.355813 0
M  V30 23 C -3.454375 -4.809383 0.930762 0
M  V30 24 C -4.437189 -3.976299 1.424502 0
M  V30 25 N -5.586712 -4.534275 2.041584 0
M  V30 26 C -6.863012 -3.987336 2.345457 0
M  V30 27 C -7.405536 -3.885654 3.609731 0
M  V30 28 C -8.651316 -3.349978 3.865432 0
M  V30 29 C -9.387566 -2.893548 2.791777 0
M  V30 30 F -10.610872 -2.355473 2.966478 0
M  V30 31 C -8.915397 -2.960238 1.498561 0
M  V30 32 C -7.663909 -3.504939 1.301567 0
M  V30 33 F -7.179073 -3.584957 0.060752 0
M  V30 34 C -4.363242 -2.589848 1.369785 0
M  V30 35 C -3.252914 -1.989860 0.793507 0
M  V30 36 C -3.409049 -0.522344 0.872077 0
M  V30 37 C -2.634168 0.298313 -0.078416 0
M  V30 38 H 4.563911 1.300382 4.373572 0
M  V30 39 H 6.319374 1.543735 3.834667 0
M  V30 40 H 5.139945 2.944545 3.946870 0
M  V30 41 H 6.017471 0.417869 -0.361712 0
M  V30 42 H 5.311267 3.392944 -0.636933 0
M  V30 43 H 6.854112 2.554813 -0.902154 0
M  V30 44 H 4.271688 2.141597 -2.492095 0
M  V30 45 H 5.762494 0.064273 -2.674876 0
M  V30 46 H 5.713361 1.071768 -4.141540 0
M  V30 47 H 7.143460 1.226591 -3.075572 0
M  V30 48 H 5.679093 4.376151 -2.583235 0
M  V30 49 H 5.113156 3.588667 -4.083380 0
M  V30 50 H 6.795941 3.303287 -3.583384 0
M  V30 51 H 3.558134 1.837198 0.092202 0
M  V30 52 H 1.572918 2.100939 -0.134162 0
M  V30 53 H -0.894381 2.179956 -0.000049 0
M  V30 54 H 1.413865 -2.135634 -0.470997 0
M  V30 55 H -1.535224 -4.818659 -0.054073 0
M  V30 56 H -3.501060 -5.888531 0.967489 0
M  V30 57 H -5.683184 -5.521231 2.403749 0
M  V30 58 H -6.815128 -4.245728 4.439766 0
M  V30 59 H -9.016977 -3.299935 4.884753 0
M  V30 60 H -9.455643 -2.617332 0.623468 0
M  V30 61 H -5.175913 -1.979966 1.776997 0
M  V30 62 H -3.202961 -0.133040 1.902346 0
M  V30 63 H -4.497082 -0.339847 0.621485 0
M  V30 64 H -2.836408 1.359741 0.156277 0
M  V30 65 H -3.082216 0.124262 -1.103501 0
M  V30 END ATOM
M  V30 BEGIN BOND
M  V30 1 1 1 2
M  V30 2 1 2 3
M  V30 3 2 3 4
M  V30 4 1 3 5
M  V30 5 1 5 6
M  V30 6 1 6 7
M  V30 7 1 7 8
M  V30 8 1 7 9
M  V30 9 1 5 10
M  V30 10 1 10 11
M  V30 11 2 11 12
M  V30 12 1 11 13
M  V30 13 2 13 14
M  V30 14 1 14 15
M  V30 15 2 15 16
M  V30 16 1 16 17
M  V30 17 2 17 18
M  V30 18 1 17 19
M  V30 19 2 19 20
M  V30 20 1 19 21
M  V30 21 2 21 22
M  V30 22 1 22 23
M  V30 23 2 23 24
M  V30 24 1 24 25
M  V30 25 1 25 26
M  V30 26 2 26 27
M  V30 27 1 27 28
M  V30 28 2 28 29
M  V30 29 1 29 30
M  V30 30 1 29 31
M  V30 31 2 31 32
M  V30 32 1 32 33
M  V30 33 1 24 34
M  V30 34 2 34 35
M  V30 35 1 35 36
M  V30 36 1 36 37
M  V30 37 1 18 13
M  V30 38 1 35 21
M  V30 39 1 37 16
M  V30 40 1 32 26
M  V30 41 1 1 38
M  V30 42 1 1 39
M  V30 43 1 1 40
M  V30 44 1 5 41 CFG=3
M  V30 45 1 6 42
M  V30 46 1 6 43
M  V30 47 1 7 44
M  V30 48 1 8 45
M  V30 49 1 8 46
M  V30 50 1 8 47
M  V30 51 1 9 48
M  V30 52 1 9 49
M  V30 53 1 9 50
M  V30 54 1 10 51
M  V30 55 1 14 52
M  V30 56 1 15 53
M  V30 57 1 18 54
M  V30 58 1 22 55
M  V30 59 1 23 56
M  V30 60 1 25 57
M  V30 61 1 27 58
M  V30 62 1 28 59
M  V30 63 1 31 60
M  V30 64 1 34 61
M  V30 65 1 36 62
M  V30 66 1 36 63
M  V30 67 1 37 64
M  V30 68 1 37 65
M  V30 END BOND
M  V30 END CTAB
M  END
>  <Dataset>  (222) 
ChEMBL_Kinases

>  <Ligand_Instance>  (222) 
nan

>  <PDB_ID>  (222) 
nan

>  <Standardized_SMILES>  (222) 
COC(=O)[C@H](CC(C)C)NC(=O)c1ccc2c(c1)C(=O)c1ccc(Nc3ccc(F)cc3F)cc1CC2

>  <Name>  (222) 
nan

>  <Pocket>  (222) 
nan

>  <ATP_Site>  (222) 
nan

>  <Peripheral>  (222) 
nan

>  <Num_H_Atoms_ProtBoundConf>  (222) 
nan

>  <Num_Resolved_Atoms>  (222) 
nan

>  <Num_Not_Resolved_Atoms>  (222) 
nan

$$$$
CHEMBL2316198
     RDKit          3D

  0  0  0  0  0  0  0  0  0  0999 V3000
M  V30 BEGIN CTAB
M  V30 COUNTS 67 70 0 0 0
M  V30 BEGIN ATOM
M  V30 1 C 1.905733 -5.540074 5.257174 0
M  V30 2 N 2.190711 -4.359821 4.461198 0
M  V30 3 C 2.696109 -3.166316 5.067747 0
M  V30 4 O 2.853185 -3.267316 6.314763 0
M  V30 5 C 2.950266 -2.016664 4.140739 0
M  V30 6 C 3.480620 -0.819544 4.909929 0
M  V30 7 C 3.744742 0.353319 3.993639 0 CFG=2
M  V30 8 N 2.574730 0.798401 3.302845 0
M  V30 9 C 1.791846 1.982489 3.315119 0
M  V30 10 O 2.076113 2.947451 4.058258 0
M  V30 11 C 0.624453 2.096639 2.448571 0
M  V30 12 C -0.094482 3.270879 2.538153 0
M  V30 13 C -1.229226 3.461648 1.739086 0
M  V30 14 C -1.673775 2.501298 0.840513 0
M  V30 15 C -0.907852 1.337504 0.794279 0
M  V30 16 C 0.215475 1.115850 1.566810 0
M  V30 17 C -1.160297 0.180294 -0.063822 0
M  V30 18 O -0.532536 -0.885522 0.225643 0
M  V30 19 C -2.064428 0.127191 -1.223455 0
M  V30 20 C -2.092177 -1.164117 -1.692294 0
M  V30 21 C -2.888390 -1.448044 -2.792756 0
M  V30 22 C -3.607841 -0.413346 -3.353392 0
M  V30 23 N -4.434924 -0.659615 -4.483737 0
M  V30 24 C -4.524546 -1.922541 -5.133231 0
M  V30 25 C -5.685474 -2.661843 -5.255891 0
M  V30 26 C -5.629874 -3.889354 -5.924889 0
M  V30 27 C -4.455212 -4.374183 -6.459525 0
M  V30 28 F -4.557690 -5.571515 -7.075527 0
M  V30 29 C -3.295772 -3.612400 -6.324553 0
M  V30 30 C -3.337892 -2.393258 -5.663273 0
M  V30 31 F -2.119535 -1.809296 -5.640189 0
M  V30 32 C -3.553959 0.869958 -2.854102 0
M  V30 33 C -2.773290 1.192511 -1.760260 0
M  V30 34 C -2.842249 2.623447 -1.369762 0
M  V30 35 C -2.881071 2.887476 0.095893 0
M  V30 36 C 4.882495 0.057178 3.088961 0
M  V30 37 O 4.740040 0.215197 1.837795 0
M  V30 38 N 6.106085 -0.397871 3.653324 0
M  V30 39 C 7.144698 -0.652591 2.645549 0
M  V30 40 H 2.093676 -5.340981 6.345160 0
M  V30 41 H 0.801494 -5.747331 5.198032 0
M  V30 42 H 2.459337 -6.394903 4.862850 0
M  V30 43 H 1.980120 -4.520418 3.452364 0
M  V30 44 H 1.993831 -1.801916 3.625902 0
M  V30 45 H 3.665276 -2.382372 3.394833 0
M  V30 46 H 4.411057 -1.164843 5.402465 0
M  V30 47 H 2.784706 -0.550459 5.726175 0
M  V30 48 H 4.077804 1.183909 4.663750 0
M  V30 49 H 2.375637 -0.029312 2.700310 0
M  V30 50 H 0.141931 4.096502 3.194211 0
M  V30 51 H -1.802747 4.379750 1.800007 0
M  V30 52 H 0.764706 0.210181 1.493026 0
M  V30 53 H -1.515171 -1.952697 -1.228879 0
M  V30 54 H -2.904832 -2.462551 -3.151669 0
M  V30 55 H -5.030580 0.084560 -4.905555 0
M  V30 56 H -6.530215 -2.194838 -4.807824 0
M  V30 57 H -6.615854 -4.361378 -5.945612 0
M  V30 58 H -2.433133 -4.084640 -6.779638 0
M  V30 59 H -4.125331 1.685159 -3.300731 0
M  V30 60 H -3.793576 3.007387 -1.791623 0
M  V30 61 H -1.978566 3.200698 -1.784984 0
M  V30 62 H -3.746684 2.308638 0.516347 0
M  V30 63 H -3.080662 3.951344 0.241047 0
M  V30 64 H 6.218055 -0.525630 4.675551 0
M  V30 65 H 7.443752 0.351876 2.280400 0
M  V30 66 H 7.970621 -1.151003 3.184796 0
M  V30 67 H 6.751301 -1.288448 1.818734 0
M  V30 END ATOM
M  V30 BEGIN BOND
M  V30 1 1 1 2
M  V30 2 1 2 3
M  V30 3 2 3 4
M  V30 4 1 3 5
M  V30 5 1 5 6
M  V30 6 1 6 7
M  V30 7 1 7 8
M  V30 8 1 8 9
M  V30 9 2 9 10
M  V30 10 1 9 11
M  V30 11 2 11 12
M  V30 12 1 12 13
M  V30 13 2 13 14
M  V30 14 1 14 15
M  V30 15 2 15 16
M  V30 16 1 15 17
M  V30 17 2 17 18
M  V30 18 1 17 19
M  V30 19 2 19 20
M  V30 20 1 20 21
M  V30 21 2 21 22
M  V30 22 1 22 23
M  V30 23 1 23 24
M  V30 24 2 24 25
M  V30 25 1 25 26
M  V30 26 2 26 27
M  V30 27 1 27 28
M  V30 28 1 27 29
M  V30 29 2 29 30
M  V30 30 1 30 31
M  V30 31 1 22 32
M  V30 32 2 32 33
M  V30 33 1 33 34
M  V30 34 1 34 35
M  V30 35 1 7 36
M  V30 36 2 36 37
M  V30 37 1 36 38
M  V30 38 1 38 39
M  V30 39 1 16 11
M  V30 40 1 33 19
M  V30 41 1 35 14
M  V30 42 1 30 24
M  V30 43 1 1 40
M  V30 44 1 1 41
M  V30 45 1 1 42
M  V30 46 1 2 43
M  V30 47 1 5 44
M  V30 48 1 5 45
M  V30 49 1 6 46
M  V30 50 1 6 47
M  V30 51 1 7 48 CFG=1
M  V30 52 1 8 49
M  V30 53 1 12 50
M  V30 54 1 13 51
M  V30 55 1 16 52
M  V30 56 1 20 53
M  V30 57 1 21 54
M  V30 58 1 23 55
M  V30 59 1 25 56
M  V30 60 1 26 57
M  V30 61 1 29 58
M  V30 62 1 32 59
M  V30 63 1 34 60
M  V30 64 1 34 61
M  V30 65 1 35 62
M  V30 66 1 35 63
M  V30 67 1 38 64
M  V30 68 1 39 65
M  V30 69 1 39 66
M  V30 70 1 39 67
M  V30 END BOND
M  V30 END CTAB
M  END
>  <Dataset>  (223) 
ChEMBL_Kinases

>  <Ligand_Instance>  (223) 
nan

>  <PDB_ID>  (223) 
nan

>  <Standardized_SMILES>  (223) 
CNC(=O)CC[C@H](NC(=O)c1ccc2c(c1)C(=O)c1ccc(Nc3ccc(F)cc3F)cc1CC2)C(=O)NC

>  <Name>  (223) 
nan

>  <Pocket>  (223) 
nan

>  <ATP_Site>  (223) 
nan

>  <Peripheral>  (223) 
nan

>  <Num_H_Atoms_ProtBoundConf>  (223) 
nan

>  <Num_Resolved_Atoms>  (223) 
nan

>  <Num_Not_Resolved_Atoms>  (223) 
nan

$$$$
CHEMBL2316197
     RDKit          3D

  0  0  0  0  0  0  0  0  0  0999 V3000
M  V30 BEGIN CTAB
M  V30 COUNTS 65 68 0 0 0
M  V30 BEGIN ATOM
M  V30 1 C 5.089313 1.743259 6.881229 0
M  V30 2 O 5.010050 0.815019 5.841156 0
M  V30 3 C 5.094237 1.264087 4.531560 0
M  V30 4 O 5.239872 2.528296 4.415833 0
M  V30 5 C 5.060760 0.662757 3.175258 0
M  V30 6 C 4.897710 -0.854786 3.221637 0
M  V30 7 C 4.872635 -1.392368 1.805208 0 CFG=2
M  V30 8 N 3.794881 -0.851198 1.033085 0
M  V30 9 C 3.806207 -0.103811 -0.160165 0
M  V30 10 O 4.917062 0.168653 -0.686421 0
M  V30 11 C 2.592463 0.368036 -0.812194 0
M  V30 12 C 2.699412 1.113203 -1.970024 0
M  V30 13 C 1.567715 1.588106 -2.635394 0
M  V30 14 C 0.290703 1.329597 -2.158796 0
M  V30 15 C 0.246125 0.577150 -0.993896 0
M  V30 16 C 1.346481 0.082460 -0.295546 0
M  V30 17 C -0.986549 0.164351 -0.287681 0
M  V30 18 O -0.897372 -0.065448 0.956086 0
M  V30 19 C -2.307787 0.003759 -0.936691 0
M  V30 20 C -3.200691 -0.544004 -0.037102 0
M  V30 21 C -4.501429 -0.782627 -0.432242 0
M  V30 22 C -4.874384 -0.465612 -1.721587 0
M  V30 23 N -6.216122 -0.720520 -2.119270 0
M  V30 24 C -7.132277 -1.386952 -1.257442 0
M  V30 25 C -8.326210 -0.920872 -0.747577 0
M  V30 26 C -9.065896 -1.745430 0.075296 0
M  V30 27 C -8.633037 -3.015573 0.391898 0
M  V30 28 F -9.426690 -3.757200 1.209627 0
M  V30 29 C -7.441133 -3.488287 -0.113823 0
M  V30 30 C -6.673571 -2.672374 -0.949565 0
M  V30 31 F -5.518955 -3.233622 -1.396430 0
M  V30 32 C -3.986108 0.078305 -2.613196 0
M  V30 33 C -2.658739 0.335660 -2.251850 0
M  V30 34 C -1.872893 0.914666 -3.345010 0
M  V30 35 C -0.814504 1.884912 -2.948121 0
M  V30 36 C 4.696290 -2.866084 1.886529 0
M  V30 37 O 5.634909 -3.393796 2.566989 0
M  V30 38 O 3.623880 -3.498213 1.273678 0
M  V30 39 C 3.402238 -4.902962 1.317677 0
M  V30 40 H 5.363704 2.772777 6.545050 0
M  V30 41 H 5.749557 1.405849 7.714069 0
M  V30 42 H 4.079103 1.847308 7.331571 0
M  V30 43 H 4.207414 1.141260 2.633046 0
M  V30 44 H 5.997523 0.870691 2.611799 0
M  V30 45 H 5.785195 -1.251781 3.754804 0
M  V30 46 H 4.006992 -1.156655 3.795233 0
M  V30 47 H 5.864022 -1.174437 1.339793 0
M  V30 48 H 2.903413 -1.103966 1.511597 0
M  V30 49 H 3.653131 1.383969 -2.443888 0
M  V30 50 H 1.654734 2.170788 -3.540350 0
M  V30 51 H 1.198573 -0.491168 0.600213 0
M  V30 52 H -2.841809 -0.772532 0.969085 0
M  V30 53 H -5.125336 -1.203489 0.318755 0
M  V30 54 H -6.601050 -0.438929 -3.048104 0
M  V30 55 H -8.576442 0.080099 -1.052218 0
M  V30 56 H -10.000899 -1.349653 0.461042 0
M  V30 57 H -7.101590 -4.501664 0.142373 0
M  V30 58 H -4.349004 0.302062 -3.607604 0
M  V30 59 H -2.603018 1.496919 -3.975129 0
M  V30 60 H -1.454705 0.163474 -4.052145 0
M  V30 61 H -1.247921 2.718822 -2.351900 0
M  V30 62 H -0.397888 2.321422 -3.865899 0
M  V30 63 H 3.484386 -5.368629 0.328297 0
M  V30 64 H 2.331481 -5.024944 1.659157 0
M  V30 65 H 3.990772 -5.405934 2.113419 0
M  V30 END ATOM
M  V30 BEGIN BOND
M  V30 1 1 1 2
M  V30 2 1 2 3
M  V30 3 2 3 4
M  V30 4 1 3 5
M  V30 5 1 5 6
M  V30 6 1 6 7
M  V30 7 1 7 8
M  V30 8 1 8 9
M  V30 9 2 9 10
M  V30 10 1 9 11
M  V30 11 2 11 12
M  V30 12 1 12 13
M  V30 13 2 13 14
M  V30 14 1 14 15
M  V30 15 2 15 16
M  V30 16 1 15 17
M  V30 17 2 17 18
M  V30 18 1 17 19
M  V30 19 2 19 20
M  V30 20 1 20 21
M  V30 21 2 21 22
M  V30 22 1 22 23
M  V30 23 1 23 24
M  V30 24 2 24 25
M  V30 25 1 25 26
M  V30 26 2 26 27
M  V30 27 1 27 28
M  V30 28 1 27 29
M  V30 29 2 29 30
M  V30 30 1 30 31
M  V30 31 1 22 32
M  V30 32 2 32 33
M  V30 33 1 33 34
M  V30 34 1 34 35
M  V30 35 1 7 36
M  V30 36 2 36 37
M  V30 37 1 36 38
M  V30 38 1 38 39
M  V30 39 1 16 11
M  V30 40 1 33 19
M  V30 41 1 35 14
M  V30 42 1 30 24
M  V30 43 1 1 40
M  V30 44 1 1 41
M  V30 45 1 1 42
M  V30 46 1 5 43
M  V30 47 1 5 44
M  V30 48 1 6 45
M  V30 49 1 6 46
M  V30 50 1 7 47 CFG=3
M  V30 51 1 8 48
M  V30 52 1 12 49
M  V30 53 1 13 50
M  V30 54 1 16 51
M  V30 55 1 20 52
M  V30 56 1 21 53
M  V30 57 1 23 54
M  V30 58 1 25 55
M  V30 59 1 26 56
M  V30 60 1 29 57
M  V30 61 1 32 58
M  V30 62 1 34 59
M  V30 63 1 34 60
M  V30 64 1 35 61
M  V30 65 1 35 62
M  V30 66 1 39 63
M  V30 67 1 39 64
M  V30 68 1 39 65
M  V30 END BOND
M  V30 END CTAB
M  END
>  <Dataset>  (224) 
ChEMBL_Kinases

>  <Ligand_Instance>  (224) 
nan

>  <PDB_ID>  (224) 
nan

>  <Standardized_SMILES>  (224) 
COC(=O)CC[C@H](NC(=O)c1ccc2c(c1)C(=O)c1ccc(Nc3ccc(F)cc3F)cc1CC2)C(=O)OC

>  <Name>  (224) 
nan

>  <Pocket>  (224) 
nan

>  <ATP_Site>  (224) 
nan

>  <Peripheral>  (224) 
nan

>  <Num_H_Atoms_ProtBoundConf>  (224) 
nan

>  <Num_Resolved_Atoms>  (224) 
nan

>  <Num_Not_Resolved_Atoms>  (224) 
nan

$$$$
CHEMBL2316196
     RDKit          3D

  0  0  0  0  0  0  0  0  0  0999 V3000
M  V30 BEGIN CTAB
M  V30 COUNTS 56 59 0 0 0
M  V30 BEGIN ATOM
M  V30 1 C 6.174817 0.267648 5.611776 0
M  V30 2 C 4.702597 0.503951 5.267116 0
M  V30 3 O 4.581776 1.303361 4.106019 0
M  V30 4 C 5.116856 2.564780 4.094036 0
M  V30 5 O 5.682471 2.878882 5.175517 0
M  V30 6 C 5.028418 3.459860 2.911406 0
M  V30 7 N 4.321114 2.803933 1.841148 0
M  V30 8 C 2.977631 2.370464 2.020284 0
M  V30 9 O 2.495915 2.615198 3.173585 0
M  V30 10 C 2.211787 1.700643 0.971890 0
M  V30 11 C 2.689487 1.413023 -0.291401 0
M  V30 12 C 1.921378 0.776494 -1.246659 0
M  V30 13 C 0.625612 0.414465 -0.923884 0
M  V30 14 C 0.136670 0.696551 0.335735 0
M  V30 15 C 0.916688 1.333567 1.280318 0
M  V30 16 C -1.194888 0.391331 0.849139 0
M  V30 17 O -1.557398 0.985495 1.895053 0
M  V30 18 C -2.155662 -0.541747 0.265895 0
M  V30 19 C -3.374121 -0.547711 0.910632 0
M  V30 20 C -4.435451 -1.345218 0.540794 0
M  V30 21 C -4.246862 -2.180242 -0.541710 0
M  V30 22 N -5.298229 -3.031562 -0.980636 0
M  V30 23 C -5.340864 -3.970276 -2.048338 0
M  V30 24 C -6.182904 -3.969651 -3.131828 0
M  V30 25 C -6.122860 -4.940052 -4.100787 0
M  V30 26 C -5.194614 -5.951034 -3.995618 0
M  V30 27 F -5.180634 -6.880582 -4.979903 0
M  V30 28 C -4.326556 -5.984614 -2.914139 0
M  V30 29 C -4.399257 -4.991802 -1.937333 0
M  V30 30 F -3.474830 -5.194716 -0.965184 0
M  V30 31 C -3.030008 -2.179770 -1.192073 0
M  V30 32 C -1.953448 -1.380775 -0.828633 0
M  V30 33 C -0.756802 -1.541256 -1.657642 0
M  V30 34 C -0.078008 -0.253754 -2.029902 0
M  V30 35 H 6.508811 1.021681 6.368177 0
M  V30 36 H 6.818911 0.361089 4.711775 0
M  V30 37 H 6.236595 -0.747052 6.080989 0
M  V30 38 H 4.243831 -0.477325 5.040548 0
M  V30 39 H 4.174307 1.008862 6.096937 0
M  V30 40 H 4.595089 4.458826 3.172623 0
M  V30 41 H 6.064118 3.681493 2.591532 0
M  V30 42 H 4.791316 2.639971 0.918945 0
M  V30 43 H 3.698533 1.701454 -0.525241 0
M  V30 44 H 2.339848 0.572987 -2.221844 0
M  V30 45 H 0.464098 1.528325 2.265849 0
M  V30 46 H -3.481502 0.117776 1.750314 0
M  V30 47 H -5.392010 -1.361775 1.032900 0
M  V30 48 H -6.214119 -3.020089 -0.488650 0
M  V30 49 H -6.892590 -3.150370 -3.162270 0
M  V30 50 H -6.809422 -4.902940 -4.944828 0
M  V30 51 H -3.647321 -6.812653 -2.932315 0
M  V30 52 H -2.818914 -2.811687 -2.048262 0
M  V30 53 H -1.023927 -2.042768 -2.624812 0
M  V30 54 H -0.010452 -2.195725 -1.185897 0
M  V30 55 H -0.882516 0.443431 -2.359564 0
M  V30 56 H 0.581001 -0.414261 -2.898734 0
M  V30 END ATOM
M  V30 BEGIN BOND
M  V30 1 1 1 2
M  V30 2 1 2 3
M  V30 3 1 3 4
M  V30 4 2 4 5
M  V30 5 1 4 6
M  V30 6 1 6 7
M  V30 7 1 7 8
M  V30 8 2 8 9
M  V30 9 1 8 10
M  V30 10 2 10 11
M  V30 11 1 11 12
M  V30 12 2 12 13
M  V30 13 1 13 14
M  V30 14 2 14 15
M  V30 15 1 14 16
M  V30 16 2 16 17
M  V30 17 1 16 18
M  V30 18 2 18 19
M  V30 19 1 19 20
M  V30 20 2 20 21
M  V30 21 1 21 22
M  V30 22 1 22 23
M  V30 23 2 23 24
M  V30 24 1 24 25
M  V30 25 2 25 26
M  V30 26 1 26 27
M  V30 27 1 26 28
M  V30 28 2 28 29
M  V30 29 1 29 30
M  V30 30 1 21 31
M  V30 31 2 31 32
M  V30 32 1 32 33
M  V30 33 1 33 34
M  V30 34 1 15 10
M  V30 35 1 32 18
M  V30 36 1 34 13
M  V30 37 1 29 23
M  V30 38 1 1 35
M  V30 39 1 1 36
M  V30 40 1 1 37
M  V30 41 1 2 38
M  V30 42 1 2 39
M  V30 43 1 6 40
M  V30 44 1 6 41
M  V30 45 1 7 42
M  V30 46 1 11 43
M  V30 47 1 12 44
M  V30 48 1 15 45
M  V30 49 1 19 46
M  V30 50 1 20 47
M  V30 51 1 22 48
M  V30 52 1 24 49
M  V30 53 1 25 50
M  V30 54 1 28 51
M  V30 55 1 31 52
M  V30 56 1 33 53
M  V30 57 1 33 54
M  V30 58 1 34 55
M  V30 59 1 34 56
M  V30 END BOND
M  V30 END CTAB
M  END
>  <Dataset>  (225) 
ChEMBL_Kinases

>  <Ligand_Instance>  (225) 
nan

>  <PDB_ID>  (225) 
nan

>  <Standardized_SMILES>  (225) 
CCOC(=O)CNC(=O)c1ccc2c(c1)C(=O)c1ccc(Nc3ccc(F)cc3F)cc1CC2

>  <Name>  (225) 
nan

>  <Pocket>  (225) 
nan

>  <ATP_Site>  (225) 
nan

>  <Peripheral>  (225) 
nan

>  <Num_H_Atoms_ProtBoundConf>  (225) 
nan

>  <Num_Resolved_Atoms>  (225) 
nan

>  <Num_Not_Resolved_Atoms>  (225) 
nan

$$$$
CHEMBL2316195
     RDKit          3D

  0  0  0  0  0  0  0  0  0  0999 V3000
M  V30 BEGIN CTAB
M  V30 COUNTS 70 74 0 0 0
M  V30 BEGIN ATOM
M  V30 1 C 7.569384 -0.326348 2.713933 0
M  V30 2 N 7.693184 0.588688 1.600557 0
M  V30 3 C 8.719367 0.266618 0.666930 0
M  V30 4 C 8.285236 -0.667072 -0.422590 0
M  V30 5 N 6.830606 -0.757775 -0.509502 0
M  V30 6 C 6.406061 -1.450833 -1.684892 0
M  V30 7 C 4.905803 -1.599094 -1.787503 0
M  V30 8 C 4.456823 -2.368607 -0.568889 0
M  V30 9 N 3.049713 -2.604901 -0.497992 0
M  V30 10 C 2.064276 -1.581132 -0.458673 0
M  V30 11 O 2.555928 -0.407732 -0.492971 0
M  V30 12 C 0.629152 -1.834128 -0.386080 0
M  V30 13 C 0.043776 -3.057558 -0.343244 0
M  V30 14 C -1.318414 -3.264370 -0.274578 0
M  V30 15 C -2.123866 -2.160596 -0.248479 0
M  V30 16 C -1.563398 -0.900939 -0.290565 0
M  V30 17 C -0.195990 -0.721830 -0.359138 0
M  V30 18 C -2.286651 0.388649 -0.270578 0
M  V30 19 O -1.627632 1.410392 -0.535279 0
M  V30 20 C -3.710119 0.572214 0.032978 0
M  V30 21 C -4.155329 1.835272 -0.292958 0
M  V30 22 C -5.464855 2.212160 -0.086933 0
M  V30 23 C -6.313307 1.272335 0.459621 0
M  V30 24 N -7.679531 1.584596 0.701256 0
M  V30 25 C -8.725413 0.795937 1.255765 0
M  V30 26 C -9.822762 0.577026 0.439671 0
M  V30 27 C -10.905754 -0.180121 0.877556 0
M  V30 28 C -10.865447 -0.711180 2.146170 0
M  V30 29 F -11.961970 -1.431572 2.482521 0
M  V30 30 C -9.782174 -0.503814 2.972052 0
M  V30 31 C -8.712690 0.242946 2.541991 0
M  V30 32 F -7.639685 0.474557 3.302689 0
M  V30 33 C -5.877313 -0.002121 0.791941 0
M  V30 34 C -4.559836 -0.389464 0.587573 0
M  V30 35 C -4.258856 -1.785575 0.997799 0
M  V30 36 C -3.574148 -2.487591 -0.174630 0
M  V30 37 C 6.350450 0.600772 -0.400168 0
M  V30 38 C 6.441400 0.997892 1.058374 0
M  V30 39 H 7.766705 -1.357644 2.394626 0
M  V30 40 H 6.499988 -0.288002 3.050451 0
M  V30 41 H 8.188546 0.032622 3.550549 0
M  V30 42 H 9.153595 1.220252 0.263399 0
M  V30 43 H 9.555250 -0.206498 1.217888 0
M  V30 44 H 8.786073 -1.636462 -0.327600 0
M  V30 45 H 8.596969 -0.226889 -1.400447 0
M  V30 46 H 6.734864 -0.843464 -2.581296 0
M  V30 47 H 6.902188 -2.422738 -1.804605 0
M  V30 48 H 4.678883 -2.194728 -2.722387 0
M  V30 49 H 4.424074 -0.620289 -1.876080 0
M  V30 50 H 4.844263 -1.780301 0.305960 0
M  V30 51 H 4.997923 -3.315292 -0.541690 0
M  V30 52 H 2.673512 -3.598944 -0.470937 0
M  V30 53 H 0.666950 -3.926068 -0.363150 0
M  V30 54 H -1.732490 -4.263475 -0.242591 0
M  V30 55 H 0.202402 0.295956 -0.390482 0
M  V30 56 H -3.439804 2.516398 -0.715183 0
M  V30 57 H -5.814603 3.194007 -0.339151 0
M  V30 58 H -8.043808 2.540846 0.451571 0
M  V30 59 H -9.866374 0.990734 -0.562859 0
M  V30 60 H -11.739250 -0.313773 0.182771 0
M  V30 61 H -9.797394 -0.943650 3.964372 0
M  V30 62 H -6.480365 -0.790220 1.221839 0
M  V30 63 H -3.668146 -1.874737 1.907645 0
M  V30 64 H -5.254592 -2.291205 1.096536 0
M  V30 65 H -4.037717 -2.204178 -1.133751 0
M  V30 66 H -3.733129 -3.572083 -0.005868 0
M  V30 67 H 5.373509 0.794694 -0.833674 0
M  V30 68 H 7.063754 1.273678 -0.942122 0
M  V30 69 H 6.298681 2.103699 1.147837 0
M  V30 70 H 5.605293 0.447726 1.573197 0
M  V30 END ATOM
M  V30 BEGIN BOND
M  V30 1 1 1 2
M  V30 2 1 2 3
M  V30 3 1 3 4
M  V30 4 1 4 5
M  V30 5 1 5 6
M  V30 6 1 6 7
M  V30 7 1 7 8
M  V30 8 1 8 9
M  V30 9 1 9 10
M  V30 10 2 10 11
M  V30 11 1 10 12
M  V30 12 2 12 13
M  V30 13 1 13 14
M  V30 14 2 14 15
M  V30 15 1 15 16
M  V30 16 2 16 17
M  V30 17 1 16 18
M  V30 18 2 18 19
M  V30 19 1 18 20
M  V30 20 2 20 21
M  V30 21 1 21 22
M  V30 22 2 22 23
M  V30 23 1 23 24
M  V30 24 1 24 25
M  V30 25 2 25 26
M  V30 26 1 26 27
M  V30 27 2 27 28
M  V30 28 1 28 29
M  V30 29 1 28 30
M  V30 30 2 30 31
M  V30 31 1 31 32
M  V30 32 1 23 33
M  V30 33 2 33 34
M  V30 34 1 34 35
M  V30 35 1 35 36
M  V30 36 1 5 37
M  V30 37 1 37 38
M  V30 38 1 38 2
M  V30 39 1 17 12
M  V30 40 1 34 20
M  V30 41 1 36 15
M  V30 42 1 31 25
M  V30 43 1 1 39
M  V30 44 1 1 40
M  V30 45 1 1 41
M  V30 46 1 3 42
M  V30 47 1 3 43
M  V30 48 1 4 44
M  V30 49 1 4 45
M  V30 50 1 6 46
M  V30 51 1 6 47
M  V30 52 1 7 48
M  V30 53 1 7 49
M  V30 54 1 8 50
M  V30 55 1 8 51
M  V30 56 1 9 52
M  V30 57 1 13 53
M  V30 58 1 14 54
M  V30 59 1 17 55
M  V30 60 1 21 56
M  V30 61 1 22 57
M  V30 62 1 24 58
M  V30 63 1 26 59
M  V30 64 1 27 60
M  V30 65 1 30 61
M  V30 66 1 33 62
M  V30 67 1 35 63
M  V30 68 1 35 64
M  V30 69 1 36 65
M  V30 70 1 36 66
M  V30 71 1 37 67
M  V30 72 1 37 68
M  V30 73 1 38 69
M  V30 74 1 38 70
M  V30 END BOND
M  V30 END CTAB
M  END
>  <Dataset>  (226) 
ChEMBL_Kinases

>  <Ligand_Instance>  (226) 
nan

>  <PDB_ID>  (226) 
nan

>  <Standardized_SMILES>  (226) 
CN1CCN(CCCNC(=O)c2ccc3c(c2)C(=O)c2ccc(Nc4ccc(F)cc4F)cc2CC3)CC1

>  <Name>  (226) 
nan

>  <Pocket>  (226) 
nan

>  <ATP_Site>  (226) 
nan

>  <Peripheral>  (226) 
nan

>  <Num_H_Atoms_ProtBoundConf>  (226) 
nan

>  <Num_Resolved_Atoms>  (226) 
nan

>  <Num_Not_Resolved_Atoms>  (226) 
nan

$$$$
CHEMBL2316194
     RDKit          3D

  0  0  0  0  0  0  0  0  0  0999 V3000
M  V30 BEGIN CTAB
M  V30 COUNTS 67 71 0 0 0
M  V30 BEGIN ATOM
M  V30 1 C 6.812839 -0.393473 4.667483 0
M  V30 2 N 7.793648 -0.065234 3.679665 0
M  V30 3 C 7.792364 -0.862126 2.501238 0
M  V30 4 C 7.485778 -0.145325 1.222057 0
M  V30 5 N 6.680218 1.016024 1.326502 0
M  V30 6 C 5.355810 0.829566 0.799054 0
M  V30 7 C 4.517256 -0.114866 1.588581 0
M  V30 8 N 3.176617 -0.324668 1.096971 0
M  V30 9 C 2.259899 0.761704 1.000692 0
M  V30 10 O 2.700598 1.872509 1.365885 0
M  V30 11 C 0.883060 0.674698 0.520872 0
M  V30 12 C 0.174347 1.883599 0.553623 0
M  V30 13 C -1.152865 1.867221 0.109882 0
M  V30 14 C -1.722242 0.700508 -0.337811 0
M  V30 15 C -1.015844 -0.496346 -0.369139 0
M  V30 16 C 0.297725 -0.488691 0.068412 0
M  V30 17 C -1.411407 -1.837092 -0.798988 0
M  V30 18 O -0.532507 -2.727160 -0.905194 0
M  V30 19 C -2.798942 -2.178662 -1.110767 0
M  V30 20 C -2.865160 -3.381719 -1.780007 0
M  V30 21 C -4.096854 -3.872979 -2.157475 0
M  V30 22 C -5.283085 -3.190950 -1.884152 0
M  V30 23 N -6.579369 -3.656463 -2.258214 0
M  V30 24 C -7.781131 -2.986058 -1.872354 0
M  V30 25 C -8.780685 -2.412529 -2.623475 0
M  V30 26 C -9.844956 -1.829368 -1.985819 0
M  V30 27 C -9.946289 -1.798939 -0.608233 0
M  V30 28 F -11.047410 -1.192969 -0.064044 0
M  V30 29 C -8.954643 -2.368704 0.165937 0
M  V30 30 C -7.863219 -2.967094 -0.475439 0
M  V30 31 F -6.967906 -3.488508 0.411240 0
M  V30 32 C -5.229891 -1.983246 -1.213650 0
M  V30 33 C -3.982536 -1.514017 -0.846928 0
M  V30 34 C -4.027979 -0.204904 -0.132762 0
M  V30 35 C -3.149184 0.832446 -0.776387 0
M  V30 36 C 6.712028 1.726187 2.556294 0
M  V30 37 C 7.901930 1.325863 3.391544 0
M  V30 38 H 7.308774 -0.336060 5.675589 0
M  V30 39 H 6.505497 -1.444417 4.533851 0
M  V30 40 H 5.957860 0.310541 4.699530 0
M  V30 41 H 7.069106 -1.702058 2.638672 0
M  V30 42 H 8.781326 -1.363346 2.425769 0
M  V30 43 H 7.135579 -0.901022 0.514179 0
M  V30 44 H 8.485399 0.193875 0.819622 0
M  V30 45 H 5.510393 0.418807 -0.243552 0
M  V30 46 H 4.897487 1.822143 0.628333 0
M  V30 47 H 5.002579 -1.114784 1.561211 0
M  V30 48 H 4.543880 0.205392 2.649485 0
M  V30 49 H 2.791631 -1.265014 0.783566 0
M  V30 50 H 0.557642 2.828015 0.890454 0
M  V30 51 H -1.751122 2.761799 0.109235 0
M  V30 52 H 0.887018 -1.401504 0.061110 0
M  V30 53 H -1.960575 -3.932468 -2.005677 0
M  V30 54 H -4.214703 -4.809967 -2.685296 0
M  V30 55 H -6.571340 -4.525289 -2.835318 0
M  V30 56 H -8.580855 -2.503613 -3.673860 0
M  V30 57 H -10.598485 -1.394698 -2.660465 0
M  V30 58 H -9.072306 -2.323932 1.240532 0
M  V30 59 H -6.057708 -1.345136 -0.935232 0
M  V30 60 H -5.059367 0.198790 -0.137639 0
M  V30 61 H -3.754152 -0.397352 0.928302 0
M  V30 62 H -3.507153 1.829590 -0.424464 0
M  V30 63 H -3.285017 0.796967 -1.856764 0
M  V30 64 H 6.888954 2.811729 2.296801 0
M  V30 65 H 5.808649 1.705744 3.167024 0
M  V30 66 H 7.942371 1.901120 4.321092 0
M  V30 67 H 8.839384 1.467696 2.793587 0
M  V30 END ATOM
M  V30 BEGIN BOND
M  V30 1 1 1 2
M  V30 2 1 2 3
M  V30 3 1 3 4
M  V30 4 1 4 5
M  V30 5 1 5 6
M  V30 6 1 6 7
M  V30 7 1 7 8
M  V30 8 1 8 9
M  V30 9 2 9 10
M  V30 10 1 9 11
M  V30 11 2 11 12
M  V30 12 1 12 13
M  V30 13 2 13 14
M  V30 14 1 14 15
M  V30 15 2 15 16
M  V30 16 1 15 17
M  V30 17 2 17 18
M  V30 18 1 17 19
M  V30 19 2 19 20
M  V30 20 1 20 21
M  V30 21 2 21 22
M  V30 22 1 22 23
M  V30 23 1 23 24
M  V30 24 2 24 25
M  V30 25 1 25 26
M  V30 26 2 26 27
M  V30 27 1 27 28
M  V30 28 1 27 29
M  V30 29 2 29 30
M  V30 30 1 30 31
M  V30 31 1 22 32
M  V30 32 2 32 33
M  V30 33 1 33 34
M  V30 34 1 34 35
M  V30 35 1 5 36
M  V30 36 1 36 37
M  V30 37 1 37 2
M  V30 38 1 16 11
M  V30 39 1 33 19
M  V30 40 1 35 14
M  V30 41 1 30 24
M  V30 42 1 1 38
M  V30 43 1 1 39
M  V30 44 1 1 40
M  V30 45 1 3 41
M  V30 46 1 3 42
M  V30 47 1 4 43
M  V30 48 1 4 44
M  V30 49 1 6 45
M  V30 50 1 6 46
M  V30 51 1 7 47
M  V30 52 1 7 48
M  V30 53 1 8 49
M  V30 54 1 12 50
M  V30 55 1 13 51
M  V30 56 1 16 52
M  V30 57 1 20 53
M  V30 58 1 21 54
M  V30 59 1 23 55
M  V30 60 1 25 56
M  V30 61 1 26 57
M  V30 62 1 29 58
M  V30 63 1 32 59
M  V30 64 1 34 60
M  V30 65 1 34 61
M  V30 66 1 35 62
M  V30 67 1 35 63
M  V30 68 1 36 64
M  V30 69 1 36 65
M  V30 70 1 37 66
M  V30 71 1 37 67
M  V30 END BOND
M  V30 END CTAB
M  END
>  <Dataset>  (227) 
ChEMBL_Kinases

>  <Ligand_Instance>  (227) 
nan

>  <PDB_ID>  (227) 
nan

>  <Standardized_SMILES>  (227) 
CN1CCN(CCNC(=O)c2ccc3c(c2)C(=O)c2ccc(Nc4ccc(F)cc4F)cc2CC3)CC1

>  <Name>  (227) 
nan

>  <Pocket>  (227) 
nan

>  <ATP_Site>  (227) 
nan

>  <Peripheral>  (227) 
nan

>  <Num_H_Atoms_ProtBoundConf>  (227) 
nan

>  <Num_Resolved_Atoms>  (227) 
nan

>  <Num_Not_Resolved_Atoms>  (227) 
nan

$$$$
CHEMBL231591
     RDKit          3D

  0  0  0  0  0  0  0  0  0  0999 V3000
M  V30 BEGIN CTAB
M  V30 COUNTS 52 55 0 0 0
M  V30 BEGIN ATOM
M  V30 1 C -0.062501 -1.275440 5.442806 0
M  V30 2 C 0.946781 -2.038076 4.646636 0
M  V30 3 N 2.076126 -1.253599 4.175614 0
M  V30 4 C 3.049204 -0.808144 5.140093 0
M  V30 5 C 2.476264 0.244602 6.044300 0
M  V30 6 C 2.174610 -0.936134 2.796605 0
M  V30 7 C 3.188535 -0.220676 2.204170 0
M  V30 8 C 3.296829 0.107977 0.872810 0
M  V30 9 C 2.293704 -0.313237 0.011163 0
M  V30 10 N 2.337163 0.003998 -1.373059 0
M  V30 11 C 1.280938 -0.461254 -2.201136 0
M  V30 12 N 0.240958 0.373061 -2.176118 0
M  V30 13 C -0.893455 0.135514 -2.889554 0
M  V30 14 N -2.065873 0.958120 -2.944369 0
M  V30 15 C -3.009154 0.819329 -1.905077 0
M  V30 16 C -2.751210 -0.033592 -0.850768 0
M  V30 17 C -3.690324 -0.161149 0.173837 0
M  V30 18 C -4.877855 0.547309 0.159206 0
M  V30 19 C -5.169840 1.410291 -0.880283 0
M  V30 20 C -4.208295 1.502724 -1.871300 0
M  V30 21 N -1.021312 -0.970133 -3.667575 0
M  V30 22 N -1.920132 -1.516504 -4.467599 0
M  V30 23 C -1.465955 -2.669270 -4.989887 0
M  V30 24 C -0.199207 -2.897749 -4.510501 0
M  V30 25 C 0.686914 -3.991254 -4.786609 0
M  V30 26 N 1.419943 -4.889470 -4.998590 0
M  V30 27 C 0.051671 -1.816746 -3.684568 0
M  V30 28 N 1.161329 -1.557348 -2.968892 0
M  V30 29 C 1.222033 -1.050584 0.531951 0
M  V30 30 C 1.217978 -1.319999 1.882333 0
M  V30 31 H 0.222637 -1.113019 6.492810 0
M  V30 32 H -0.985480 -1.943016 5.462332 0
M  V30 33 H -0.429201 -0.343471 4.959095 0
M  V30 34 H 0.505033 -2.694230 3.889327 0
M  V30 35 H 1.397596 -2.781497 5.404797 0
M  V30 36 H 3.962265 -0.450062 4.622756 0
M  V30 37 H 3.326193 -1.671249 5.803274 0
M  V30 38 H 1.553762 0.695232 5.665667 0
M  V30 39 H 2.288303 -0.150924 7.072727 0
M  V30 40 H 3.220497 1.072878 6.226312 0
M  V30 41 H 4.002001 0.147356 2.775630 0
M  V30 42 H 4.104563 0.667770 0.446700 0
M  V30 43 H 3.109528 0.554778 -1.777579 0
M  V30 44 H -2.155812 1.605236 -3.742081 0
M  V30 45 H -1.810845 -0.604718 -0.821817 0
M  V30 46 H -3.430065 -0.854270 0.987301 0
M  V30 47 H -5.600379 0.431543 0.971192 0
M  V30 48 H -6.083426 1.992642 -0.949772 0
M  V30 49 H -4.427905 2.181983 -2.702533 0
M  V30 50 H -2.001144 -3.324362 -5.680727 0
M  V30 51 H 0.471916 -1.352744 -0.175973 0
M  V30 52 H 0.338437 -1.884966 2.138612 0
M  V30 END ATOM
M  V30 BEGIN BOND
M  V30 1 1 1 2
M  V30 2 1 2 3
M  V30 3 1 3 4
M  V30 4 1 4 5
M  V30 5 1 3 6
M  V30 6 2 6 7
M  V30 7 1 7 8
M  V30 8 2 8 9
M  V30 9 1 9 10
M  V30 10 1 10 11
M  V30 11 1 11 12
M  V30 12 2 12 13
M  V30 13 1 13 14
M  V30 14 1 14 15
M  V30 15 2 15 16
M  V30 16 1 16 17
M  V30 17 2 17 18
M  V30 18 1 18 19
M  V30 19 2 19 20
M  V30 20 1 13 21
M  V30 21 1 21 22
M  V30 22 2 22 23
M  V30 23 1 23 24
M  V30 24 1 24 25
M  V30 25 3 25 26
M  V30 26 2 24 27
M  V30 27 1 27 28
M  V30 28 1 9 29
M  V30 29 2 29 30
M  V30 30 1 30 6
M  V30 31 2 28 11
M  V30 32 1 20 15
M  V30 33 1 27 21
M  V30 34 1 1 31
M  V30 35 1 1 32
M  V30 36 1 1 33
M  V30 37 1 2 34
M  V30 38 1 2 35
M  V30 39 1 4 36
M  V30 40 1 4 37
M  V30 41 1 5 38
M  V30 42 1 5 39
M  V30 43 1 5 40
M  V30 44 1 7 41
M  V30 45 1 8 42
M  V30 46 1 10 43
M  V30 47 1 14 44
M  V30 48 1 16 45
M  V30 49 1 17 46
M  V30 50 1 18 47
M  V30 51 1 19 48
M  V30 52 1 20 49
M  V30 53 1 23 50
M  V30 54 1 29 51
M  V30 55 1 30 52
M  V30 END BOND
M  V30 END CTAB
M  END
>  <Dataset>  (228) 
ChEMBL_Kinases

>  <Ligand_Instance>  (228) 
nan

>  <PDB_ID>  (228) 
nan

>  <Standardized_SMILES>  (228) 
CCN(CC)c1ccc(Nc2nc(Nc3ccccc3)n3ncc(C#N)c3n2)cc1

>  <Name>  (228) 
nan

>  <Pocket>  (228) 
nan

>  <ATP_Site>  (228) 
nan

>  <Peripheral>  (228) 
nan

>  <Num_H_Atoms_ProtBoundConf>  (228) 
nan

>  <Num_Resolved_Atoms>  (228) 
nan

>  <Num_Not_Resolved_Atoms>  (228) 
nan

$$$$
CHEMBL231590
     RDKit          3D

  0  0  0  0  0  0  0  0  0  0999 V3000
M  V30 BEGIN CTAB
M  V30 COUNTS 46 49 0 0 0
M  V30 BEGIN ATOM
M  V30 1 C -1.250146 2.452953 5.839501 0
M  V30 2 O -1.538065 1.922839 4.577082 0
M  V30 3 C -0.904316 0.783030 4.122246 0
M  V30 4 C 0.032612 0.062799 4.803616 0
M  V30 5 C 0.653654 -1.067684 4.337609 0
M  V30 6 C 0.328866 -1.537355 3.089426 0
M  V30 7 N 0.759668 -2.690198 2.388941 0
M  V30 8 C 0.928798 -2.790061 0.982184 0
M  V30 9 N 0.886558 -1.763607 0.120818 0
M  V30 10 C 1.038165 -1.839345 -1.198976 0
M  V30 11 N 1.024088 -0.754418 -2.105615 0
M  V30 12 C 0.926341 0.636032 -1.876040 0
M  V30 13 C 0.851874 1.582181 -2.910950 0
M  V30 14 C 0.766807 2.919436 -2.629275 0
M  V30 15 C 0.747873 3.441007 -1.355102 0
M  V30 16 C 0.820939 2.524731 -0.293056 0
M  V30 17 C 0.903766 1.205015 -0.641390 0
M  V30 18 N 1.251799 -3.065890 -1.705388 0
M  V30 19 N 1.445936 -3.524511 -2.958175 0
M  V30 20 C 1.619300 -4.841549 -2.976179 0
M  V30 21 C 1.533220 -5.273110 -1.648692 0
M  V30 22 C 1.678323 -6.650896 -1.272981 0
M  V30 23 N 1.787560 -7.756730 -0.951918 0
M  V30 24 C 1.306955 -4.141413 -0.910038 0
M  V30 25 N 1.147011 -3.992057 0.412050 0
M  V30 26 C -0.618046 -0.833388 2.367123 0
M  V30 27 C -1.256440 0.321786 2.839307 0
M  V30 28 O -2.209974 1.038863 2.139305 0
M  V30 29 C -2.612551 0.616572 0.873826 0
M  V30 30 H -0.969222 1.713299 6.607337 0
M  V30 31 H -0.423908 3.220895 5.782684 0
M  V30 32 H -2.148722 2.992633 6.234569 0
M  V30 33 H 0.334153 0.386339 5.802934 0
M  V30 34 H 1.393938 -1.658631 4.843615 0
M  V30 35 H 0.946505 -3.528375 2.961165 0
M  V30 36 H 1.098213 -0.971386 -3.144509 0
M  V30 37 H 0.862940 1.214196 -3.945805 0
M  V30 38 H 0.714797 3.563325 -3.524388 0
M  V30 39 H 0.679797 4.494943 -1.193274 0
M  V30 40 H 0.802751 2.957309 0.691825 0
M  V30 41 H 0.958445 0.576791 0.264677 0
M  V30 42 H 1.786259 -5.362406 -3.911923 0
M  V30 43 H -0.980282 -1.077406 1.366984 0
M  V30 44 H -2.851259 -0.485695 0.919404 0
M  V30 45 H -3.549901 1.136304 0.536338 0
M  V30 46 H -1.816781 0.796366 0.137011 0
M  V30 END ATOM
M  V30 BEGIN BOND
M  V30 1 1 1 2
M  V30 2 1 2 3
M  V30 3 2 3 4
M  V30 4 1 4 5
M  V30 5 2 5 6
M  V30 6 1 6 7
M  V30 7 1 7 8
M  V30 8 1 8 9
M  V30 9 2 9 10
M  V30 10 1 10 11
M  V30 11 1 11 12
M  V30 12 2 12 13
M  V30 13 1 13 14
M  V30 14 2 14 15
M  V30 15 1 15 16
M  V30 16 2 16 17
M  V30 17 1 10 18
M  V30 18 1 18 19
M  V30 19 2 19 20
M  V30 20 1 20 21
M  V30 21 1 21 22
M  V30 22 3 22 23
M  V30 23 2 21 24
M  V30 24 1 24 25
M  V30 25 1 6 26
M  V30 26 2 26 27
M  V30 27 1 27 28
M  V30 28 1 28 29
M  V30 29 1 27 3
M  V30 30 2 25 8
M  V30 31 1 17 12
M  V30 32 1 24 18
M  V30 33 1 1 30
M  V30 34 1 1 31
M  V30 35 1 1 32
M  V30 36 1 4 33
M  V30 37 1 5 34
M  V30 38 1 7 35
M  V30 39 1 11 36
M  V30 40 1 13 37
M  V30 41 1 14 38
M  V30 42 1 15 39
M  V30 43 1 16 40
M  V30 44 1 17 41
M  V30 45 1 20 42
M  V30 46 1 26 43
M  V30 47 1 29 44
M  V30 48 1 29 45
M  V30 49 1 29 46
M  V30 END BOND
M  V30 END CTAB
M  END
>  <Dataset>  (229) 
ChEMBL_Kinases

>  <Ligand_Instance>  (229) 
nan

>  <PDB_ID>  (229) 
nan

>  <Standardized_SMILES>  (229) 
COc1ccc(Nc2nc(Nc3ccccc3)n3ncc(C#N)c3n2)cc1OC

>  <Name>  (229) 
nan

>  <Pocket>  (229) 
nan

>  <ATP_Site>  (229) 
nan

>  <Peripheral>  (229) 
nan

>  <Num_H_Atoms_ProtBoundConf>  (229) 
nan

>  <Num_Resolved_Atoms>  (229) 
nan

>  <Num_Not_Resolved_Atoms>  (229) 
nan

$$$$
CHEMBL231492
     RDKit          3D

  0  0  0  0  0  0  0  0  0  0999 V3000
M  V30 BEGIN CTAB
M  V30 COUNTS 41 44 0 0 0
M  V30 BEGIN ATOM
M  V30 1 C 0.736888 -6.933226 3.198544 0
M  V30 2 C 0.734818 -5.549115 2.718776 0
M  V30 3 C 1.852687 -4.781626 2.960077 0
M  V30 4 C 1.910575 -3.476159 2.534652 0
M  V30 5 C 0.880865 -2.831196 1.844635 0
M  V30 6 N 0.968928 -1.503167 1.425096 0
M  V30 7 C 0.037873 -0.725433 0.733448 0
M  V30 8 N 0.333046 0.545554 0.427532 0
M  V30 9 C -0.406464 1.423049 -0.211734 0
M  V30 10 N -0.048043 2.762069 -0.512486 0
M  V30 11 C 1.155514 3.442957 -0.201643 0
M  V30 12 C 1.360227 4.776129 -0.570966 0
M  V30 13 C 2.515597 5.461481 -0.283470 0
M  V30 14 C 3.541865 4.855750 0.393114 0
M  V30 15 C 3.393196 3.557736 0.775708 0
M  V30 16 C 2.233674 2.912955 0.472264 0
M  V30 17 N -1.609581 0.973340 -0.602056 0
M  V30 18 N -2.611200 1.569528 -1.262870 0
M  V30 19 C -3.630908 0.709303 -1.427882 0
M  V30 20 C -3.263361 -0.486069 -0.847420 0
M  V30 21 C -4.089191 -1.654333 -0.817826 0
M  V30 22 N -4.748327 -2.587901 -0.813810 0
M  V30 23 C -1.978303 -0.288155 -0.332799 0
M  V30 24 N -1.171207 -1.129101 0.324487 0
M  V30 25 C -0.196317 -3.665617 1.644942 0
M  V30 26 C -0.321036 -4.978280 2.042553 0
M  V30 27 H 1.650198 -7.501372 2.990145 0
M  V30 28 H -0.105408 -7.496019 2.707446 0
M  V30 29 H 0.546599 -6.990185 4.300905 0
M  V30 30 H 2.695131 -5.206074 3.488864 0
M  V30 31 H 2.830407 -2.916797 2.758182 0
M  V30 32 H 1.896455 -1.045024 1.687549 0
M  V30 33 H -0.749580 3.356839 -1.036953 0
M  V30 34 H 0.572396 5.293347 -1.108449 0
M  V30 35 H 2.588409 6.493204 -0.608201 0
M  V30 36 H 4.445130 5.404166 0.613523 0
M  V30 37 H 4.207011 3.094070 1.306443 0
M  V30 38 H 2.190848 1.887858 0.808378 0
M  V30 39 H -4.529494 1.016778 -1.942022 0
M  V30 40 H -1.070772 -3.305811 1.123971 0
M  V30 41 H -1.196309 -5.581506 1.854431 0
M  V30 END ATOM
M  V30 BEGIN BOND
M  V30 1 1 1 2
M  V30 2 2 2 3
M  V30 3 1 3 4
M  V30 4 2 4 5
M  V30 5 1 5 6
M  V30 6 1 6 7
M  V30 7 1 7 8
M  V30 8 2 8 9
M  V30 9 1 9 10
M  V30 10 1 10 11
M  V30 11 2 11 12
M  V30 12 1 12 13
M  V30 13 2 13 14
M  V30 14 1 14 15
M  V30 15 2 15 16
M  V30 16 1 9 17
M  V30 17 1 17 18
M  V30 18 2 18 19
M  V30 19 1 19 20
M  V30 20 1 20 21
M  V30 21 3 21 22
M  V30 22 2 20 23
M  V30 23 1 23 24
M  V30 24 1 5 25
M  V30 25 2 25 26
M  V30 26 1 26 2
M  V30 27 2 24 7
M  V30 28 1 16 11
M  V30 29 1 23 17
M  V30 30 1 1 27
M  V30 31 1 1 28
M  V30 32 1 1 29
M  V30 33 1 3 30
M  V30 34 1 4 31
M  V30 35 1 6 32
M  V30 36 1 10 33
M  V30 37 1 12 34
M  V30 38 1 13 35
M  V30 39 1 14 36
M  V30 40 1 15 37
M  V30 41 1 16 38
M  V30 42 1 19 39
M  V30 43 1 25 40
M  V30 44 1 26 41
M  V30 END BOND
M  V30 END CTAB
M  END
>  <Dataset>  (230) 
ChEMBL_Kinases

>  <Ligand_Instance>  (230) 
nan

>  <PDB_ID>  (230) 
nan

>  <Standardized_SMILES>  (230) 
Cc1ccc(Nc2nc(Nc3ccccc3)n3ncc(C#N)c3n2)cc1

>  <Name>  (230) 
nan

>  <Pocket>  (230) 
nan

>  <ATP_Site>  (230) 
nan

>  <Peripheral>  (230) 
nan

>  <Num_H_Atoms_ProtBoundConf>  (230) 
nan

>  <Num_Resolved_Atoms>  (230) 
nan

>  <Num_Not_Resolved_Atoms>  (230) 
nan

$$$$
CHEMBL2314479
     RDKit          3D

  0  0  0  0  0  0  0  0  0  0999 V3000
M  V30 BEGIN CTAB
M  V30 COUNTS 33 35 0 0 0
M  V30 BEGIN ATOM
M  V30 1 C -1.138111 -2.801613 3.522006 0
M  V30 2 C -0.069970 -3.214802 2.505957 0
M  V30 3 C -0.728714 -4.210280 1.576765 0
M  V30 4 N 0.421613 -2.066425 1.775852 0
M  V30 5 C 0.618907 -0.888124 2.374171 0
M  V30 6 N 1.065683 0.008386 1.481242 0
M  V30 7 C 1.166668 -0.584662 0.267104 0
M  V30 8 C 1.549294 -0.219783 -1.035363 0
M  V30 9 N 1.941375 1.162774 -1.036962 0
M  V30 10 C 0.817145 2.040075 -0.970068 0
M  V30 11 C -0.489519 1.606152 -0.948501 0
M  V30 12 C -1.611932 2.407285 -0.859487 0
M  V30 13 C -1.404542 3.763653 -0.786461 0
M  V30 14 C -0.092664 4.234926 -0.807083 0
M  V30 15 N 0.921804 3.377064 -0.895103 0
M  V30 16 N 1.511528 -1.125350 -2.029292 0
M  V30 17 C 1.104931 -2.396105 -1.784766 0
M  V30 18 Cl 1.119108 -3.455097 -3.188241 0
M  V30 19 N 0.725967 -2.786656 -0.536386 0
M  V30 20 C 0.754697 -1.908493 0.463170 0
M  V30 21 H -0.587679 -2.354675 4.383313 0
M  V30 22 H -1.686822 -3.702890 3.793714 0
M  V30 23 H -1.768181 -2.035695 3.023036 0
M  V30 24 H 0.741723 -3.757051 3.016366 0
M  V30 25 H -1.474702 -4.771063 2.176166 0
M  V30 26 H -1.309588 -3.712664 0.762330 0
M  V30 27 H -0.005631 -4.960939 1.195112 0
M  V30 28 H 0.503710 -0.498891 3.394100 0
M  V30 29 H 2.877768 1.621466 -1.081337 0
M  V30 30 H -0.698785 0.535790 -1.005102 0
M  V30 31 H -2.610510 1.987888 -0.849702 0
M  V30 32 H -2.264792 4.419787 -0.714096 0
M  V30 33 H 0.041197 5.303942 -0.747346 0
M  V30 END ATOM
M  V30 BEGIN BOND
M  V30 1 1 1 2
M  V30 2 1 2 3
M  V30 3 1 2 4
M  V30 4 1 4 5
M  V30 5 2 5 6
M  V30 6 1 6 7
M  V30 7 2 7 8
M  V30 8 1 8 9
M  V30 9 1 9 10
M  V30 10 2 10 11
M  V30 11 1 11 12
M  V30 12 2 12 13
M  V30 13 1 13 14
M  V30 14 2 14 15
M  V30 15 1 8 16
M  V30 16 2 16 17
M  V30 17 1 17 18
M  V30 18 1 17 19
M  V30 19 2 19 20
M  V30 20 1 20 4
M  V30 21 1 20 7
M  V30 22 1 15 10
M  V30 23 1 1 21
M  V30 24 1 1 22
M  V30 25 1 1 23
M  V30 26 1 2 24
M  V30 27 1 3 25
M  V30 28 1 3 26
M  V30 29 1 3 27
M  V30 30 1 5 28
M  V30 31 1 9 29
M  V30 32 1 11 30
M  V30 33 1 12 31
M  V30 34 1 13 32
M  V30 35 1 14 33
M  V30 END BOND
M  V30 END CTAB
M  END
>  <Dataset>  (231) 
ChEMBL_Kinases

>  <Ligand_Instance>  (231) 
nan

>  <PDB_ID>  (231) 
nan

>  <Standardized_SMILES>  (231) 
CC(C)n1cnc2c(Nc3ccccn3)nc(Cl)nc21

>  <Name>  (231) 
nan

>  <Pocket>  (231) 
nan

>  <ATP_Site>  (231) 
nan

>  <Peripheral>  (231) 
nan

>  <Num_H_Atoms_ProtBoundConf>  (231) 
nan

>  <Num_Resolved_Atoms>  (231) 
nan

>  <Num_Not_Resolved_Atoms>  (231) 
nan

$$$$
CHEMBL2314478
     RDKit          3D

  0  0  0  0  0  0  0  0  0  0999 V3000
M  V30 BEGIN CTAB
M  V30 COUNTS 48 50 0 0 0
M  V30 BEGIN ATOM
M  V30 1 C -0.624205 -3.408150 3.814633 0
M  V30 2 C -0.715281 -1.902291 3.525673 0
M  V30 3 C 0.746427 -1.454488 3.394528 0 CFG=2
M  V30 4 C 0.665310 0.033793 3.112616 0
M  V30 5 O 0.134485 0.715606 4.214809 0
M  V30 6 N 1.311942 -2.201418 2.292119 0
M  V30 7 C 0.804335 -1.749108 1.044118 0
M  V30 8 N 1.785045 -1.047978 0.447511 0
M  V30 9 C 1.636410 -0.462355 -0.755719 0
M  V30 10 N 2.695653 0.275846 -1.409609 0
M  V30 11 C 2.771986 1.464580 -0.647274 0
M  V30 12 C 3.699129 1.372596 0.383175 0
M  V30 13 C 3.930731 2.430168 1.251165 0
M  V30 14 C 3.172752 3.582584 1.020091 0
M  V30 15 C 2.238210 3.686425 -0.011975 0
M  V30 16 N 2.104677 2.607344 -0.779753 0
M  V30 17 C 0.418413 -0.574288 -1.431165 0
M  V30 18 N -0.107310 -0.160445 -2.584217 0
M  V30 19 C -1.392409 -0.610514 -2.680767 0
M  V30 20 N -1.714755 -1.330697 -1.570300 0
M  V30 21 C -2.923770 -2.009469 -1.172248 0
M  V30 22 C -3.600085 -1.308010 -0.012633 0
M  V30 23 C -3.896117 -1.981435 -2.323062 0
M  V30 24 C -0.581031 -1.293828 -0.813569 0
M  V30 25 N -0.359369 -1.852188 0.389092 0
M  V30 26 H -1.630458 -3.839173 3.860055 0
M  V30 27 H -0.012121 -3.836494 2.992200 0
M  V30 28 H -0.112606 -3.495793 4.795413 0
M  V30 29 H -1.215216 -1.446861 4.400599 0
M  V30 30 H -1.232758 -1.704601 2.585428 0
M  V30 31 H 1.247221 -1.605196 4.351565 0
M  V30 32 H -0.000163 0.250832 2.251325 0
M  V30 33 H 1.653886 0.445650 2.855346 0
M  V30 34 H -0.707369 1.149816 3.982716 0
M  V30 35 H 1.994948 -2.984233 2.202199 0
M  V30 36 H 3.288341 0.041192 -2.234985 0
M  V30 37 H 4.329396 0.515065 0.629787 0
M  V30 38 H 4.629926 2.455084 2.078641 0
M  V30 39 H 3.325020 4.433410 1.675340 0
M  V30 40 H 1.654318 4.580001 -0.188315 0
M  V30 41 H -2.080535 -0.445600 -3.498189 0
M  V30 42 H -2.696192 -3.042655 -0.840172 0
M  V30 43 H -3.007523 -1.428189 0.916158 0
M  V30 44 H -4.579914 -1.775872 0.118263 0
M  V30 45 H -3.747754 -0.239259 -0.278207 0
M  V30 46 H -3.721648 -2.864782 -3.004163 0
M  V30 47 H -3.893432 -1.040397 -2.898727 0
M  V30 48 H -4.942514 -2.111443 -1.954789 0
M  V30 END ATOM
M  V30 BEGIN BOND
M  V30 1 1 1 2
M  V30 2 1 2 3
M  V30 3 1 3 4
M  V30 4 1 4 5
M  V30 5 1 3 6
M  V30 6 1 6 7
M  V30 7 2 7 8
M  V30 8 1 8 9
M  V30 9 1 9 10
M  V30 10 1 10 11
M  V30 11 2 11 12
M  V30 12 1 12 13
M  V30 13 2 13 14
M  V30 14 1 14 15
M  V30 15 2 15 16
M  V30 16 2 9 17
M  V30 17 1 17 18
M  V30 18 2 18 19
M  V30 19 1 19 20
M  V30 20 1 20 21
M  V30 21 1 21 22
M  V30 22 1 21 23
M  V30 23 1 20 24
M  V30 24 2 24 25
M  V30 25 1 25 7
M  V30 26 1 16 11
M  V30 27 1 24 17
M  V30 28 1 1 26
M  V30 29 1 1 27
M  V30 30 1 1 28
M  V30 31 1 2 29
M  V30 32 1 2 30
M  V30 33 1 3 31 CFG=1
M  V30 34 1 4 32
M  V30 35 1 4 33
M  V30 36 1 5 34
M  V30 37 1 6 35
M  V30 38 1 10 36
M  V30 39 1 12 37
M  V30 40 1 13 38
M  V30 41 1 14 39
M  V30 42 1 15 40
M  V30 43 1 19 41
M  V30 44 1 21 42
M  V30 45 1 22 43
M  V30 46 1 22 44
M  V30 47 1 22 45
M  V30 48 1 23 46
M  V30 49 1 23 47
M  V30 50 1 23 48
M  V30 END BOND
M  V30 END CTAB
M  END
>  <Dataset>  (232) 
ChEMBL_Kinases

>  <Ligand_Instance>  (232) 
nan

>  <PDB_ID>  (232) 
nan

>  <Standardized_SMILES>  (232) 
CC[C@H](CO)Nc1nc(Nc2ccccn2)c2ncn(C(C)C)c2n1

>  <Name>  (232) 
nan

>  <Pocket>  (232) 
nan

>  <ATP_Site>  (232) 
nan

>  <Peripheral>  (232) 
nan

>  <Num_H_Atoms_ProtBoundConf>  (232) 
nan

>  <Num_Resolved_Atoms>  (232) 
nan

>  <Num_Not_Resolved_Atoms>  (232) 
nan

$$$$
CHEMBL2316495
     RDKit          3D

  0  0  0  0  0  0  0  0  0  0999 V3000
M  V30 BEGIN CTAB
M  V30 COUNTS 78 83 0 0 0
M  V30 BEGIN ATOM
M  V30 1 C -1.377319 2.002121 3.316403 0
M  V30 2 C -2.358890 2.559414 2.339321 0
M  V30 3 C -2.132424 3.892794 1.958239 0
M  V30 4 C -2.994372 4.478876 1.066986 0
M  V30 5 F -2.718112 5.780441 0.738241 0
M  V30 6 C -4.077721 3.866059 0.505499 0
M  V30 7 N -4.883131 4.600500 -0.387947 0
M  V30 8 C -6.004947 4.149559 -1.163363 0
M  V30 9 O -6.341195 2.953929 -1.065750 0
M  V30 10 C -6.735001 5.093285 -2.053271 0
M  V30 11 C -5.869317 5.755570 -3.072543 0
M  V30 12 C -6.652882 7.047006 -3.297893 0
M  V30 13 O -7.341536 7.335998 -2.155312 0
M  V30 14 C -7.367915 6.232301 -1.333920 0
M  V30 15 C -4.263039 2.573765 0.900681 0
M  V30 16 C -3.450588 1.933171 1.777340 0
M  V30 17 N -3.595186 0.605241 2.250570 0
M  V30 18 C -2.583578 -0.388268 1.993561 0
M  V30 19 C -1.753004 -0.042016 0.936774 0
M  V30 20 C -0.718027 -0.900620 0.572122 0
M  V30 21 C -0.622231 -2.055187 1.333501 0
M  V30 22 C -1.426336 -2.431408 2.387834 0
M  V30 23 C -2.455210 -1.548582 2.726997 0
M  V30 24 C -1.436019 -3.588062 3.278422 0
M  V30 25 C -0.974058 -4.878508 2.713101 0
M  V30 26 C 0.381390 -4.925915 2.169672 0
M  V30 27 C 1.110695 -6.040684 2.564239 0
M  V30 28 C 2.423702 -6.281923 2.148783 0
M  V30 29 C 3.054796 -5.400381 1.313177 0
M  V30 30 O 4.343517 -5.497520 0.814869 0
M  V30 31 C 4.901882 -4.532554 -0.051969 0
M  V30 32 C 6.317334 -4.840031 -0.462882 0
M  V30 33 N 6.808952 -3.830246 -1.339892 0
M  V30 34 C 6.230866 -3.752679 -2.630414 0
M  V30 35 C 7.053979 -4.317070 -3.751202 0
M  V30 36 O 8.316366 -3.685504 -3.692850 0
M  V30 37 C 8.903710 -4.216182 -2.522411 0
M  V30 38 C 8.203406 -3.599819 -1.356093 0
M  V30 39 C 2.343286 -4.304558 0.924616 0
M  V30 40 C 1.047266 -4.059746 1.330362 0
M  V30 41 C 0.511504 -2.815814 0.778848 0
M  V30 42 O 1.112824 -2.409845 -0.258190 0
M  V30 43 H -1.125536 2.739474 4.124570 0
M  V30 44 H -1.701926 1.054343 3.758432 0
M  V30 45 H -0.427285 1.845997 2.760947 0
M  V30 46 H -1.293830 4.445224 2.358735 0
M  V30 47 H -4.686373 5.601406 -0.543645 0
M  V30 48 H -7.491219 4.491350 -2.633520 0
M  V30 49 H -5.728068 5.175991 -4.006368 0
M  V30 50 H -4.888064 6.106255 -2.641830 0
M  V30 51 H -7.365424 6.868301 -4.146555 0
M  V30 52 H -5.979775 7.891361 -3.603392 0
M  V30 53 H -8.370236 5.993613 -0.936572 0
M  V30 54 H -6.705490 6.461075 -0.449365 0
M  V30 55 H -5.068703 1.992204 0.534872 0
M  V30 56 H -4.400817 0.251692 2.791081 0
M  V30 57 H -1.850242 0.868299 0.357691 0
M  V30 58 H -0.052505 -0.668422 -0.241480 0
M  V30 59 H -3.149407 -1.724314 3.527867 0
M  V30 60 H -0.718715 -3.344134 4.117048 0
M  V30 61 H -2.413931 -3.688733 3.784201 0
M  V30 62 H -1.671021 -5.154722 1.873462 0
M  V30 63 H -1.157987 -5.689718 3.467549 0
M  V30 64 H 0.656118 -6.785691 3.236429 0
M  V30 65 H 2.989050 -7.153876 2.457182 0
M  V30 66 H 4.939137 -3.528039 0.432813 0
M  V30 67 H 4.260671 -4.555485 -0.962234 0
M  V30 68 H 6.923518 -4.750588 0.486186 0
M  V30 69 H 6.470736 -5.879084 -0.820203 0
M  V30 70 H 6.075711 -2.654375 -2.849622 0
M  V30 71 H 5.211430 -4.184732 -2.712328 0
M  V30 72 H 6.559442 -4.124447 -4.703896 0
M  V30 73 H 7.249292 -5.400977 -3.585729 0
M  V30 74 H 9.978777 -3.939649 -2.530779 0
M  V30 75 H 8.755076 -5.309534 -2.560739 0
M  V30 76 H 8.668453 -3.879105 -0.386808 0
M  V30 77 H 8.349368 -2.484453 -1.442596 0
M  V30 78 H 2.761185 -3.553886 0.266259 0
M  V30 END ATOM
M  V30 BEGIN BOND
M  V30 1 1 1 2
M  V30 2 2 2 3
M  V30 3 1 3 4
M  V30 4 1 4 5
M  V30 5 2 4 6
M  V30 6 1 6 7
M  V30 7 1 7 8
M  V30 8 2 8 9
M  V30 9 1 8 10
M  V30 10 1 10 11
M  V30 11 1 11 12
M  V30 12 1 12 13
M  V30 13 1 13 14
M  V30 14 1 6 15
M  V30 15 2 15 16
M  V30 16 1 16 17
M  V30 17 1 17 18
M  V30 18 2 18 19
M  V30 19 1 19 20
M  V30 20 2 20 21
M  V30 21 1 21 22
M  V30 22 2 22 23
M  V30 23 1 22 24
M  V30 24 1 24 25
M  V30 25 1 25 26
M  V30 26 2 26 27
M  V30 27 1 27 28
M  V30 28 2 28 29
M  V30 29 1 29 30
M  V30 30 1 30 31
M  V30 31 1 31 32
M  V30 32 1 32 33
M  V30 33 1 33 34
M  V30 34 1 34 35
M  V30 35 1 35 36
M  V30 36 1 36 37
M  V30 37 1 37 38
M  V30 38 1 29 39
M  V30 39 2 39 40
M  V30 40 1 40 41
M  V30 41 2 41 42
M  V30 42 1 16 2
M  V30 43 1 23 18
M  V30 44 1 40 26
M  V30 45 1 14 10
M  V30 46 1 41 21
M  V30 47 1 38 33
M  V30 48 1 1 43
M  V30 49 1 1 44
M  V30 50 1 1 45
M  V30 51 1 3 46
M  V30 52 1 7 47
M  V30 53 1 10 48
M  V30 54 1 11 49
M  V30 55 1 11 50
M  V30 56 1 12 51
M  V30 57 1 12 52
M  V30 58 1 14 53
M  V30 59 1 14 54
M  V30 60 1 15 55
M  V30 61 1 17 56
M  V30 62 1 19 57
M  V30 63 1 20 58
M  V30 64 1 23 59
M  V30 65 1 24 60
M  V30 66 1 24 61
M  V30 67 1 25 62
M  V30 68 1 25 63
M  V30 69 1 27 64
M  V30 70 1 28 65
M  V30 71 1 31 66
M  V30 72 1 31 67
M  V30 73 1 32 68
M  V30 74 1 32 69
M  V30 75 1 34 70
M  V30 76 1 34 71
M  V30 77 1 35 72
M  V30 78 1 35 73
M  V30 79 1 37 74
M  V30 80 1 37 75
M  V30 81 1 38 76
M  V30 82 1 38 77
M  V30 83 1 39 78
M  V30 END BOND
M  V30 END CTAB
M  END
>  <Dataset>  (233) 
ChEMBL_Kinases

>  <Ligand_Instance>  (233) 
nan

>  <PDB_ID>  (233) 
nan

>  <Standardized_SMILES>  (233) 
Cc1cc(F)c(NC(=O)C2CCOC2)cc1Nc1ccc2c(c1)CCc1ccc(OCCN3CCOCC3)cc1C2=O

>  <Name>  (233) 
nan

>  <Pocket>  (233) 
nan

>  <ATP_Site>  (233) 
nan

>  <Peripheral>  (233) 
nan

>  <Num_H_Atoms_ProtBoundConf>  (233) 
nan

>  <Num_Resolved_Atoms>  (233) 
nan

>  <Num_Not_Resolved_Atoms>  (233) 
nan

$$$$
CHEMBL2314457
     RDKit          3D

  0  0  0  0  0  0  0  0  0  0999 V3000
M  V30 BEGIN CTAB
M  V30 COUNTS 47 49 0 0 0
M  V30 BEGIN ATOM
M  V30 1 C 1.881545 -4.681167 3.457441 0
M  V30 2 C 1.143712 -3.553287 4.177497 0
M  V30 3 C 0.455096 -2.702362 3.116003 0 CFG=1
M  V30 4 C -0.292957 -1.567669 3.788894 0
M  V30 5 O -1.180700 -2.122051 4.725044 0
M  V30 6 N 1.394523 -2.226541 2.131919 0
M  V30 7 C 1.056458 -1.430259 1.003089 0
M  V30 8 N 1.933581 -0.973958 0.087225 0
M  V30 9 C 1.550386 -0.224733 -0.966072 0
M  V30 10 N 2.526054 0.228393 -1.896412 0
M  V30 11 C 2.943868 1.503134 -1.403569 0
M  V30 12 C 2.338700 2.673808 -1.819602 0
M  V30 13 C 2.691206 3.931065 -1.380170 0
M  V30 14 N 3.695185 4.045104 -0.481273 0
M  V30 15 C 4.290631 2.887954 -0.072830 0
M  V30 16 N 3.943735 1.644508 -0.505610 0
M  V30 17 C 0.228618 0.111989 -1.155261 0
M  V30 18 N -0.486542 0.806316 -2.042744 0
M  V30 19 C -1.779995 0.764939 -1.659267 0
M  V30 20 N -1.908152 0.047642 -0.527660 0
M  V30 21 C -3.166303 -0.192196 0.154431 0
M  V30 22 C -3.810266 1.082857 0.621527 0
M  V30 23 C -4.057359 -1.011401 -0.748008 0
M  V30 24 C -0.661811 -0.354759 -0.219328 0
M  V30 25 N -0.232391 -1.095485 0.809436 0
M  V30 26 H 1.204665 -5.045097 2.655229 0
M  V30 27 H 2.792723 -4.291425 2.992699 0
M  V30 28 H 2.083606 -5.518339 4.164142 0
M  V30 29 H 0.327957 -4.013257 4.763458 0
M  V30 30 H 1.832693 -2.958242 4.812220 0
M  V30 31 H -0.297268 -3.347457 2.622553 0
M  V30 32 H -0.903571 -0.982819 3.081739 0
M  V30 33 H 0.437146 -0.868303 4.267506 0
M  V30 34 H -1.389098 -1.398671 5.365356 0
M  V30 35 H 2.404731 -2.452233 2.206521 0
M  V30 36 H 2.979669 -0.104321 -2.776857 0
M  V30 37 H 1.530648 2.670642 -2.536238 0
M  V30 38 H 2.202446 4.838154 -1.720048 0
M  V30 39 H 5.096361 2.977193 0.648075 0
M  V30 40 H -2.564318 1.256484 -2.218921 0
M  V30 41 H -2.984650 -0.820679 1.062246 0
M  V30 42 H -4.910761 1.027276 0.640681 0
M  V30 43 H -3.424233 1.926567 0.002458 0
M  V30 44 H -3.488000 1.317003 1.672519 0
M  V30 45 H -3.688396 -2.073193 -0.741119 0
M  V30 46 H -5.055133 -1.047826 -0.263376 0
M  V30 47 H -4.093953 -0.627567 -1.773946 0
M  V30 END ATOM
M  V30 BEGIN BOND
M  V30 1 1 1 2
M  V30 2 1 2 3
M  V30 3 1 3 4
M  V30 4 1 4 5
M  V30 5 1 3 6
M  V30 6 1 6 7
M  V30 7 2 7 8
M  V30 8 1 8 9
M  V30 9 1 9 10
M  V30 10 1 10 11
M  V30 11 2 11 12
M  V30 12 1 12 13
M  V30 13 2 13 14
M  V30 14 1 14 15
M  V30 15 2 15 16
M  V30 16 2 9 17
M  V30 17 1 17 18
M  V30 18 2 18 19
M  V30 19 1 19 20
M  V30 20 1 20 21
M  V30 21 1 21 22
M  V30 22 1 21 23
M  V30 23 1 20 24
M  V30 24 2 24 25
M  V30 25 1 25 7
M  V30 26 1 16 11
M  V30 27 1 24 17
M  V30 28 1 1 26
M  V30 29 1 1 27
M  V30 30 1 1 28
M  V30 31 1 2 29
M  V30 32 1 2 30
M  V30 33 1 3 31 CFG=3
M  V30 34 1 4 32
M  V30 35 1 4 33
M  V30 36 1 5 34
M  V30 37 1 6 35
M  V30 38 1 10 36
M  V30 39 1 12 37
M  V30 40 1 13 38
M  V30 41 1 15 39
M  V30 42 1 19 40
M  V30 43 1 21 41
M  V30 44 1 22 42
M  V30 45 1 22 43
M  V30 46 1 22 44
M  V30 47 1 23 45
M  V30 48 1 23 46
M  V30 49 1 23 47
M  V30 END BOND
M  V30 END CTAB
M  END
>  <Dataset>  (234) 
ChEMBL_Kinases

>  <Ligand_Instance>  (234) 
nan

>  <PDB_ID>  (234) 
nan

>  <Standardized_SMILES>  (234) 
CC[C@@H](CO)Nc1nc(Nc2ccncn2)c2ncn(C(C)C)c2n1

>  <Name>  (234) 
nan

>  <Pocket>  (234) 
nan

>  <ATP_Site>  (234) 
nan

>  <Peripheral>  (234) 
nan

>  <Num_H_Atoms_ProtBoundConf>  (234) 
nan

>  <Num_Resolved_Atoms>  (234) 
nan

>  <Num_Not_Resolved_Atoms>  (234) 
nan

$$$$
CHEMBL2314459
     RDKit          3D

  0  0  0  0  0  0  0  0  0  0999 V3000
M  V30 BEGIN CTAB
M  V30 COUNTS 50 52 0 0 0
M  V30 BEGIN ATOM
M  V30 1 C 0.118143 3.904197 0.636134 0
M  V30 2 C -0.334888 2.476023 0.678629 0
M  V30 3 C -1.781812 2.330146 0.333562 0
M  V30 4 C -0.070345 1.879748 2.054622 0 CFG=1
M  V30 5 C -0.827649 2.694096 3.077235 0
M  V30 6 O -0.618789 2.221099 4.366330 0
M  V30 7 N -0.506433 0.493846 2.099433 0
M  V30 8 C -0.075567 -0.568945 1.289230 0
M  V30 9 N 1.200967 -0.950350 1.026817 0
M  V30 10 C 1.446277 -2.002142 0.198313 0
M  V30 11 N 2.791379 -2.346075 -0.065277 0
M  V30 12 C 4.070601 -1.919068 0.331771 0
M  V30 13 N 4.698784 -0.826402 -0.183473 0
M  V30 14 C 5.929771 -0.543798 0.278555 0
M  V30 15 C 6.537392 -1.344876 1.251118 0
M  V30 16 C 5.884193 -2.466492 1.774986 0
M  V30 17 N 4.654003 -2.688923 1.266168 0
M  V30 18 C 0.432930 -2.708152 -0.394378 0
M  V30 19 N 0.349956 -3.737798 -1.220817 0
M  V30 20 C -0.968867 -3.990343 -1.468740 0
M  V30 21 N -1.733690 -3.113923 -0.794771 0
M  V30 22 C -3.167408 -2.906433 -0.687247 0
M  V30 23 C -3.766786 -3.747780 0.380619 0
M  V30 24 C -3.868012 -3.141521 -2.004868 0
M  V30 25 C -0.848430 -2.317497 -0.126688 0
M  V30 26 N -1.054200 -1.274300 0.696638 0
M  V30 27 H -0.776261 4.571132 0.804343 0
M  V30 28 H 0.827496 4.127132 1.451159 0
M  V30 29 H 0.594096 4.223419 -0.298543 0
M  V30 30 H 0.229754 1.836688 -0.050814 0
M  V30 31 H -1.886164 2.372424 -0.779493 0
M  V30 32 H -2.188569 1.360579 0.743360 0
M  V30 33 H -2.380879 3.166256 0.747259 0
M  V30 34 H 0.999700 1.924087 2.296670 0
M  V30 35 H -1.918932 2.741146 2.856869 0
M  V30 36 H -0.419643 3.719891 3.019342 0
M  V30 37 H 0.000395 2.838822 4.821685 0
M  V30 38 H -1.230989 0.225838 2.819471 0
M  V30 39 H 3.005453 -3.138859 -0.740834 0
M  V30 40 H 6.532380 0.308029 -0.054953 0
M  V30 41 H 7.529611 -1.176634 1.665074 0
M  V30 42 H 6.319938 -3.119474 2.526117 0
M  V30 43 H -1.471228 -4.717383 -2.069304 0
M  V30 44 H -3.364369 -1.839306 -0.402644 0
M  V30 45 H -3.317913 -4.775853 0.463011 0
M  V30 46 H -4.855879 -3.882743 0.150357 0
M  V30 47 H -3.734221 -3.217911 1.366695 0
M  V30 48 H -3.729425 -4.204105 -2.270086 0
M  V30 49 H -4.929675 -2.858227 -1.863268 0
M  V30 50 H -3.424673 -2.530726 -2.826108 0
M  V30 END ATOM
M  V30 BEGIN BOND
M  V30 1 1 1 2
M  V30 2 1 2 3
M  V30 3 1 2 4
M  V30 4 1 4 5
M  V30 5 1 5 6
M  V30 6 1 4 7
M  V30 7 1 7 8
M  V30 8 2 8 9
M  V30 9 1 9 10
M  V30 10 1 10 11
M  V30 11 1 11 12
M  V30 12 2 12 13
M  V30 13 1 13 14
M  V30 14 2 14 15
M  V30 15 1 15 16
M  V30 16 2 16 17
M  V30 17 2 10 18
M  V30 18 1 18 19
M  V30 19 2 19 20
M  V30 20 1 20 21
M  V30 21 1 21 22
M  V30 22 1 22 23
M  V30 23 1 22 24
M  V30 24 1 21 25
M  V30 25 2 25 26
M  V30 26 1 26 8
M  V30 27 1 17 12
M  V30 28 1 25 18
M  V30 29 1 1 27
M  V30 30 1 1 28
M  V30 31 1 1 29
M  V30 32 1 2 30
M  V30 33 1 3 31
M  V30 34 1 3 32
M  V30 35 1 3 33
M  V30 36 1 4 34 CFG=1
M  V30 37 1 5 35
M  V30 38 1 5 36
M  V30 39 1 6 37
M  V30 40 1 7 38
M  V30 41 1 11 39
M  V30 42 1 14 40
M  V30 43 1 15 41
M  V30 44 1 16 42
M  V30 45 1 20 43
M  V30 46 1 22 44
M  V30 47 1 23 45
M  V30 48 1 23 46
M  V30 49 1 23 47
M  V30 50 1 24 48
M  V30 51 1 24 49
M  V30 52 1 24 50
M  V30 END BOND
M  V30 END CTAB
M  END
>  <Dataset>  (235) 
ChEMBL_Kinases

>  <Ligand_Instance>  (235) 
nan

>  <PDB_ID>  (235) 
nan

>  <Standardized_SMILES>  (235) 
CC(C)[C@@H](CO)Nc1nc(Nc2ncccn2)c2ncn(C(C)C)c2n1

>  <Name>  (235) 
nan

>  <Pocket>  (235) 
nan

>  <ATP_Site>  (235) 
nan

>  <Peripheral>  (235) 
nan

>  <Num_H_Atoms_ProtBoundConf>  (235) 
nan

>  <Num_Resolved_Atoms>  (235) 
nan

>  <Num_Not_Resolved_Atoms>  (235) 
nan

$$$$
CHEMBL2314461
     RDKit          3D

  0  0  0  0  0  0  0  0  0  0999 V3000
M  V30 BEGIN CTAB
M  V30 COUNTS 47 49 0 0 0
M  V30 BEGIN ATOM
M  V30 1 C 2.287551 -3.474702 3.689965 0
M  V30 2 C 1.071735 -2.820339 4.310012 0
M  V30 3 C 0.232634 -2.266806 3.167861 0 CFG=1
M  V30 4 C -1.013580 -1.588354 3.687463 0
M  V30 5 O -0.710348 -0.461015 4.437172 0
M  V30 6 N 1.011462 -1.388797 2.320534 0
M  V30 7 C 0.533338 -0.724373 1.155815 0
M  V30 8 N 1.326692 0.098099 0.413381 0
M  V30 9 C 0.857415 0.714164 -0.685381 0
M  V30 10 N 1.726669 1.556390 -1.421138 0
M  V30 11 C 3.088972 1.855682 -1.140473 0
M  V30 12 N 3.391228 2.913634 -0.388130 0
M  V30 13 C 4.623319 3.291576 -0.058769 0
M  V30 14 C 5.694083 2.546847 -0.519210 0
M  V30 15 C 5.407720 1.444944 -1.301389 0
M  V30 16 N 4.128460 1.116348 -1.598920 0
M  V30 17 C -0.447553 0.530806 -1.095456 0
M  V30 18 N -1.165581 1.012760 -2.133677 0
M  V30 19 C -2.405577 0.504328 -2.056901 0
M  V30 20 N -2.465157 -0.303244 -0.961118 0
M  V30 21 C -3.591627 -1.080116 -0.453562 0
M  V30 22 C -4.257033 -0.443066 0.730555 0
M  V30 23 C -4.544866 -1.432755 -1.551438 0
M  V30 24 C -1.255083 -0.285556 -0.368711 0
M  V30 25 N -0.728938 -0.873087 0.719298 0
M  V30 26 H 1.976417 -3.975907 2.759308 0
M  V30 27 H 3.064462 -2.713079 3.468820 0
M  V30 28 H 2.687408 -4.270456 4.353350 0
M  V30 29 H 1.321808 -2.042529 5.031502 0
M  V30 30 H 0.455893 -3.651230 4.730525 0
M  V30 31 H -0.092071 -3.142160 2.569137 0
M  V30 32 H -1.677006 -1.383178 2.830179 0
M  V30 33 H -1.578090 -2.337816 4.308152 0
M  V30 34 H -1.286228 -0.479643 5.236119 0
M  V30 35 H 1.992343 -1.228952 2.578642 0
M  V30 36 H 1.406922 2.050645 -2.280069 0
M  V30 37 H 4.794628 4.158726 0.553402 0
M  V30 38 H 6.688371 2.872574 -0.238911 0
M  V30 39 H 6.236452 0.854817 -1.667286 0
M  V30 40 H -3.299706 0.624811 -2.679952 0
M  V30 41 H -3.158861 -2.039047 -0.071446 0
M  V30 42 H -3.494575 -0.180832 1.468452 0
M  V30 43 H -4.853405 -1.271245 1.214766 0
M  V30 44 H -4.948534 0.372366 0.486380 0
M  V30 45 H -5.077951 -2.392965 -1.333767 0
M  V30 46 H -5.328539 -0.640138 -1.583231 0
M  V30 47 H -4.035586 -1.572400 -2.510258 0
M  V30 END ATOM
M  V30 BEGIN BOND
M  V30 1 1 1 2
M  V30 2 1 2 3
M  V30 3 1 3 4
M  V30 4 1 4 5
M  V30 5 1 3 6
M  V30 6 1 6 7
M  V30 7 2 7 8
M  V30 8 1 8 9
M  V30 9 1 9 10
M  V30 10 1 10 11
M  V30 11 2 11 12
M  V30 12 1 12 13
M  V30 13 2 13 14
M  V30 14 1 14 15
M  V30 15 2 15 16
M  V30 16 2 9 17
M  V30 17 1 17 18
M  V30 18 2 18 19
M  V30 19 1 19 20
M  V30 20 1 20 21
M  V30 21 1 21 22
M  V30 22 1 21 23
M  V30 23 1 20 24
M  V30 24 2 24 25
M  V30 25 1 25 7
M  V30 26 1 16 11
M  V30 27 1 24 17
M  V30 28 1 1 26
M  V30 29 1 1 27
M  V30 30 1 1 28
M  V30 31 1 2 29
M  V30 32 1 2 30
M  V30 33 1 3 31 CFG=3
M  V30 34 1 4 32
M  V30 35 1 4 33
M  V30 36 1 5 34
M  V30 37 1 6 35
M  V30 38 1 10 36
M  V30 39 1 13 37
M  V30 40 1 14 38
M  V30 41 1 15 39
M  V30 42 1 19 40
M  V30 43 1 21 41
M  V30 44 1 22 42
M  V30 45 1 22 43
M  V30 46 1 22 44
M  V30 47 1 23 45
M  V30 48 1 23 46
M  V30 49 1 23 47
M  V30 END BOND
M  V30 END CTAB
M  END
>  <Dataset>  (236) 
ChEMBL_Kinases

>  <Ligand_Instance>  (236) 
nan

>  <PDB_ID>  (236) 
nan

>  <Standardized_SMILES>  (236) 
CC[C@@H](CO)Nc1nc(Nc2ncccn2)c2ncn(C(C)C)c2n1

>  <Name>  (236) 
nan

>  <Pocket>  (236) 
nan

>  <ATP_Site>  (236) 
nan

>  <Peripheral>  (236) 
nan

>  <Num_H_Atoms_ProtBoundConf>  (236) 
nan

>  <Num_Resolved_Atoms>  (236) 
nan

>  <Num_Not_Resolved_Atoms>  (236) 
nan

$$$$
CHEMBL2314464
     RDKit          3D

  0  0  0  0  0  0  0  0  0  0999 V3000
M  V30 BEGIN CTAB
M  V30 COUNTS 51 53 0 0 0
M  V30 BEGIN ATOM
M  V30 1 C 2.669707 -3.329458 1.212580 0
M  V30 2 C 1.415315 -2.604038 1.669600 0
M  V30 3 C 0.646136 -3.562560 2.538510 0
M  V30 4 C 1.738457 -1.357517 2.428767 0 CFG=2
M  V30 5 C 2.550875 -1.612467 3.678758 0
M  V30 6 O 1.829824 -2.420126 4.549726 0
M  V30 7 N 0.507683 -0.696434 2.797728 0
M  V30 8 C -0.179387 -0.414909 1.594892 0
M  V30 9 N 0.254934 0.640489 0.939501 0
M  V30 10 C -0.194424 1.148493 -0.211384 0
M  V30 11 N 0.309680 2.291073 -0.882947 0
M  V30 12 C 1.347337 3.191118 -0.523067 0
M  V30 13 C 1.898656 4.127321 -1.372835 0
M  V30 14 C 2.899514 4.983426 -0.969912 0
M  V30 15 N 3.362774 4.909548 0.302318 0
M  V30 16 C 2.821583 3.995825 1.124464 0
M  V30 17 C 1.809438 3.105199 0.773186 0
M  V30 18 C -1.251391 0.465663 -0.771759 0
M  V30 19 N -1.993010 0.631483 -1.894491 0
M  V30 20 C -2.921687 -0.365183 -1.927239 0
M  V30 21 N -2.769738 -1.148667 -0.842866 0
M  V30 22 C -3.535314 -2.316095 -0.464959 0
M  V30 23 C -4.974649 -2.206234 -0.962308 0
M  V30 24 C -2.973043 -3.608006 -0.990371 0
M  V30 25 C -1.747572 -0.647028 -0.128733 0
M  V30 26 N -1.210938 -1.066632 1.030941 0
M  V30 27 H 3.357099 -2.656694 0.657303 0
M  V30 28 H 3.158000 -3.806342 2.061372 0
M  V30 29 H 2.358997 -4.111006 0.512358 0
M  V30 30 H 0.846350 -2.311602 0.765780 0
M  V30 31 H 0.066877 -4.233656 1.864547 0
M  V30 32 H -0.005161 -3.071519 3.267108 0
M  V30 33 H 1.364305 -4.202847 3.118206 0
M  V30 34 H 2.381433 -0.675621 1.795407 0
M  V30 35 H 3.522302 -2.065913 3.459708 0
M  V30 36 H 2.698701 -0.633913 4.167749 0
M  V30 37 H 2.269646 -2.519110 5.425170 0
M  V30 38 H 0.245896 -0.500394 3.773697 0
M  V30 39 H -0.130105 2.556188 -1.806565 0
M  V30 40 H 1.497009 4.153737 -2.386709 0
M  V30 41 H 3.285622 5.692996 -1.691687 0
M  V30 42 H 3.296231 4.056360 2.118939 0
M  V30 43 H 1.527644 2.469393 1.581581 0
M  V30 44 H -3.679871 -0.537320 -2.684465 0
M  V30 45 H -3.545492 -2.411648 0.642528 0
M  V30 46 H -5.489092 -3.148721 -0.688848 0
M  V30 47 H -5.475806 -1.321540 -0.485296 0
M  V30 48 H -4.932859 -2.155521 -2.052830 0
M  V30 49 H -3.591886 -4.418325 -0.542193 0
M  V30 50 H -3.179078 -3.663861 -2.086796 0
M  V30 51 H -1.909819 -3.744111 -0.759505 0
M  V30 END ATOM
M  V30 BEGIN BOND
M  V30 1 1 1 2
M  V30 2 1 2 3
M  V30 3 1 2 4
M  V30 4 1 4 5
M  V30 5 1 5 6
M  V30 6 1 4 7
M  V30 7 1 7 8
M  V30 8 2 8 9
M  V30 9 1 9 10
M  V30 10 1 10 11
M  V30 11 1 11 12
M  V30 12 2 12 13
M  V30 13 1 13 14
M  V30 14 2 14 15
M  V30 15 1 15 16
M  V30 16 2 16 17
M  V30 17 2 10 18
M  V30 18 1 18 19
M  V30 19 2 19 20
M  V30 20 1 20 21
M  V30 21 1 21 22
M  V30 22 1 22 23
M  V30 23 1 22 24
M  V30 24 1 21 25
M  V30 25 2 25 26
M  V30 26 1 26 8
M  V30 27 1 17 12
M  V30 28 1 25 18
M  V30 29 1 1 27
M  V30 30 1 1 28
M  V30 31 1 1 29
M  V30 32 1 2 30
M  V30 33 1 3 31
M  V30 34 1 3 32
M  V30 35 1 3 33
M  V30 36 1 4 34 CFG=3
M  V30 37 1 5 35
M  V30 38 1 5 36
M  V30 39 1 6 37
M  V30 40 1 7 38
M  V30 41 1 11 39
M  V30 42 1 13 40
M  V30 43 1 14 41
M  V30 44 1 16 42
M  V30 45 1 17 43
M  V30 46 1 20 44
M  V30 47 1 22 45
M  V30 48 1 23 46
M  V30 49 1 23 47
M  V30 50 1 23 48
M  V30 51 1 24 49
M  V30 52 1 24 50
M  V30 53 1 24 51
M  V30 END BOND
M  V30 END CTAB
M  END
>  <Dataset>  (237) 
ChEMBL_Kinases

>  <Ligand_Instance>  (237) 
nan

>  <PDB_ID>  (237) 
nan

>  <Standardized_SMILES>  (237) 
CC(C)[C@H](CO)Nc1nc(Nc2ccncc2)c2ncn(C(C)C)c2n1

>  <Name>  (237) 
nan

>  <Pocket>  (237) 
nan

>  <ATP_Site>  (237) 
nan

>  <Peripheral>  (237) 
nan

>  <Num_H_Atoms_ProtBoundConf>  (237) 
nan

>  <Num_Resolved_Atoms>  (237) 
nan

>  <Num_Not_Resolved_Atoms>  (237) 
nan

$$$$
CHEMBL2314465
     RDKit          3D

  0  0  0  0  0  0  0  0  0  0999 V3000
M  V30 BEGIN CTAB
M  V30 COUNTS 51 53 0 0 0
M  V30 BEGIN ATOM
M  V30 1 C 0.345230 -3.991009 2.431154 0
M  V30 2 C 1.541878 -3.253682 1.894550 0
M  V30 3 C 1.594383 -3.167525 0.400796 0
M  V30 4 C 1.678465 -1.954359 2.614300 0 CFG=1
M  V30 5 C 2.880990 -1.137740 2.122869 0
M  V30 6 O 4.005297 -1.968788 2.089537 0
M  V30 7 N 0.481667 -1.159671 2.673634 0
M  V30 8 C -0.188021 -0.695947 1.519311 0
M  V30 9 N 0.259456 0.494010 1.106535 0
M  V30 10 C -0.213990 1.144126 0.036655 0
M  V30 11 N 0.226724 2.405087 -0.441368 0
M  V30 12 C 1.237099 3.249436 0.077959 0
M  V30 13 C 1.575012 4.475646 -0.497230 0
M  V30 14 C 2.560497 5.274050 0.029326 0
M  V30 15 N 3.256255 4.941926 1.111714 0
M  V30 16 C 2.986264 3.774815 1.719925 0
M  V30 17 C 1.998381 2.974968 1.191768 0
M  V30 18 C -1.215442 0.503278 -0.635407 0
M  V30 19 N -1.923273 0.835700 -1.730058 0
M  V30 20 C -2.814972 -0.128811 -2.017570 0
M  V30 21 N -2.688515 -1.103572 -1.099746 0
M  V30 22 C -3.462266 -2.327837 -1.043520 0
M  V30 23 C -4.786204 -2.152752 -0.350087 0
M  V30 24 C -2.702021 -3.419712 -0.320093 0
M  V30 25 C -1.714122 -0.721337 -0.255419 0
M  V30 26 N -1.171265 -1.293835 0.834793 0
M  V30 27 H -0.141458 -4.621635 1.656347 0
M  V30 28 H 0.602046 -4.605363 3.325185 0
M  V30 29 H -0.383633 -3.248307 2.775381 0
M  V30 30 H 2.434384 -3.873045 2.205331 0
M  V30 31 H 0.870008 -3.917735 -0.014323 0
M  V30 32 H 1.331310 -2.199618 -0.031332 0
M  V30 33 H 2.596504 -3.463703 -0.004572 0
M  V30 34 H 1.968525 -2.223223 3.673279 0
M  V30 35 H 3.083704 -0.336985 2.837934 0
M  V30 36 H 2.722111 -0.771726 1.099663 0
M  V30 37 H 4.508009 -1.938718 2.942512 0
M  V30 38 H -0.080329 -0.799005 3.479758 0
M  V30 39 H -0.235611 2.802664 -1.297545 0
M  V30 40 H 1.039287 4.807827 -1.391214 0
M  V30 41 H 2.775506 6.205272 -0.456317 0
M  V30 42 H 3.557325 3.512987 2.599654 0
M  V30 43 H 1.853528 2.063506 1.744205 0
M  V30 44 H -3.508589 -0.080594 -2.871374 0
M  V30 45 H -3.609481 -2.666281 -2.100070 0
M  V30 46 H -4.940883 -1.069735 -0.071599 0
M  V30 47 H -4.862379 -2.697018 0.605316 0
M  V30 48 H -5.626588 -2.488518 -1.003981 0
M  V30 49 H -3.086135 -4.421979 -0.588895 0
M  V30 50 H -2.745390 -3.303567 0.771337 0
M  V30 51 H -1.621573 -3.388672 -0.624351 0
M  V30 END ATOM
M  V30 BEGIN BOND
M  V30 1 1 1 2
M  V30 2 1 2 3
M  V30 3 1 2 4
M  V30 4 1 4 5
M  V30 5 1 5 6
M  V30 6 1 4 7
M  V30 7 1 7 8
M  V30 8 2 8 9
M  V30 9 1 9 10
M  V30 10 1 10 11
M  V30 11 1 11 12
M  V30 12 2 12 13
M  V30 13 1 13 14
M  V30 14 2 14 15
M  V30 15 1 15 16
M  V30 16 2 16 17
M  V30 17 2 10 18
M  V30 18 1 18 19
M  V30 19 2 19 20
M  V30 20 1 20 21
M  V30 21 1 21 22
M  V30 22 1 22 23
M  V30 23 1 22 24
M  V30 24 1 21 25
M  V30 25 2 25 26
M  V30 26 1 26 8
M  V30 27 1 17 12
M  V30 28 1 25 18
M  V30 29 1 1 27
M  V30 30 1 1 28
M  V30 31 1 1 29
M  V30 32 1 2 30
M  V30 33 1 3 31
M  V30 34 1 3 32
M  V30 35 1 3 33
M  V30 36 1 4 34 CFG=1
M  V30 37 1 5 35
M  V30 38 1 5 36
M  V30 39 1 6 37
M  V30 40 1 7 38
M  V30 41 1 11 39
M  V30 42 1 13 40
M  V30 43 1 14 41
M  V30 44 1 16 42
M  V30 45 1 17 43
M  V30 46 1 20 44
M  V30 47 1 22 45
M  V30 48 1 23 46
M  V30 49 1 23 47
M  V30 50 1 23 48
M  V30 51 1 24 49
M  V30 52 1 24 50
M  V30 53 1 24 51
M  V30 END BOND
M  V30 END CTAB
M  END
>  <Dataset>  (238) 
ChEMBL_Kinases

>  <Ligand_Instance>  (238) 
nan

>  <PDB_ID>  (238) 
nan

>  <Standardized_SMILES>  (238) 
CC(C)[C@@H](CO)Nc1nc(Nc2ccncc2)c2ncn(C(C)C)c2n1

>  <Name>  (238) 
nan

>  <Pocket>  (238) 
nan

>  <ATP_Site>  (238) 
nan

>  <Peripheral>  (238) 
nan

>  <Num_H_Atoms_ProtBoundConf>  (238) 
nan

>  <Num_Resolved_Atoms>  (238) 
nan

>  <Num_Not_Resolved_Atoms>  (238) 
nan

$$$$
CHEMBL2314466
     RDKit          3D

  0  0  0  0  0  0  0  0  0  0999 V3000
M  V30 BEGIN CTAB
M  V30 COUNTS 48 50 0 0 0
M  V30 BEGIN ATOM
M  V30 1 C 0.694633 -3.835199 4.205274 0
M  V30 2 C 0.878037 -2.507343 3.494460 0
M  V30 3 C -0.085503 -1.472012 3.967264 0 CFG=2
M  V30 4 C -1.532650 -1.805935 3.784248 0
M  V30 5 O -2.248757 -0.708120 4.323310 0
M  V30 6 N 0.162134 -0.239995 3.236909 0
M  V30 7 C 0.097846 -0.275133 1.818265 0
M  V30 8 N 1.303393 -0.326027 1.179454 0
M  V30 9 C 1.427198 -0.377080 -0.157262 0
M  V30 10 N 2.771412 -0.418511 -0.680585 0
M  V30 11 C 3.413276 0.783085 -1.088817 0
M  V30 12 C 2.614560 1.902155 -1.064999 0
M  V30 13 C 3.188250 3.095631 -1.453934 0
M  V30 14 N 4.497562 3.129081 -1.841056 0
M  V30 15 C 5.251691 2.014195 -1.852903 0
M  V30 16 C 4.733256 0.772342 -1.470651 0
M  V30 17 C 0.255668 -0.376620 -0.885204 0
M  V30 18 N 0.129770 -0.421572 -2.219973 0
M  V30 19 C -1.217146 -0.398177 -2.452058 0
M  V30 20 N -1.853602 -0.340841 -1.251902 0
M  V30 21 C -3.290967 -0.303624 -1.095137 0
M  V30 22 C -3.721313 0.281567 0.209789 0
M  V30 23 C -3.917214 -1.693031 -1.202469 0
M  V30 24 C -0.963962 -0.325686 -0.248597 0
M  V30 25 N -1.045210 -0.275838 1.071725 0
M  V30 26 H -0.343339 -4.196880 4.130136 0
M  V30 27 H 1.312382 -4.565931 3.642239 0
M  V30 28 H 1.102982 -3.833843 5.232191 0
M  V30 29 H 1.900118 -2.163102 3.761081 0
M  V30 30 H 0.864013 -2.663272 2.417678 0
M  V30 31 H 0.064127 -1.329809 5.064083 0
M  V30 32 H -1.881198 -2.681389 4.368914 0
M  V30 33 H -1.860854 -1.879022 2.732221 0
M  V30 34 H -1.741292 0.113387 4.034236 0
M  V30 35 H 0.391726 0.709005 3.664916 0
M  V30 36 H 2.935536 -1.431088 -0.612762 0
M  V30 37 H 1.580753 1.933192 -0.769501 0
M  V30 38 H 2.661766 4.061900 -1.483835 0
M  V30 39 H 6.304011 2.040571 -2.163330 0
M  V30 40 H 5.344480 -0.117531 -1.481556 0
M  V30 41 H -1.728000 -0.419393 -3.416538 0
M  V30 42 H -3.721653 0.311027 -1.915492 0
M  V30 43 H -3.163296 1.180421 0.504406 0
M  V30 44 H -4.816419 0.542171 0.109707 0
M  V30 45 H -3.707347 -0.525891 0.975982 0
M  V30 46 H -4.983774 -1.555577 -1.517260 0
M  V30 47 H -3.365097 -2.359343 -1.883237 0
M  V30 48 H -3.947963 -2.214131 -0.224705 0
M  V30 END ATOM
M  V30 BEGIN BOND
M  V30 1 1 1 2
M  V30 2 1 2 3
M  V30 3 1 3 4
M  V30 4 1 4 5
M  V30 5 1 3 6
M  V30 6 1 6 7
M  V30 7 2 7 8
M  V30 8 1 8 9
M  V30 9 1 9 10
M  V30 10 1 10 11
M  V30 11 2 11 12
M  V30 12 1 12 13
M  V30 13 2 13 14
M  V30 14 1 14 15
M  V30 15 2 15 16
M  V30 16 2 9 17
M  V30 17 1 17 18
M  V30 18 2 18 19
M  V30 19 1 19 20
M  V30 20 1 20 21
M  V30 21 1 21 22
M  V30 22 1 21 23
M  V30 23 1 20 24
M  V30 24 2 24 25
M  V30 25 1 25 7
M  V30 26 1 16 11
M  V30 27 1 24 17
M  V30 28 1 1 26
M  V30 29 1 1 27
M  V30 30 1 1 28
M  V30 31 1 2 29
M  V30 32 1 2 30
M  V30 33 1 3 31 CFG=1
M  V30 34 1 4 32
M  V30 35 1 4 33
M  V30 36 1 5 34
M  V30 37 1 6 35
M  V30 38 1 10 36
M  V30 39 1 12 37
M  V30 40 1 13 38
M  V30 41 1 15 39
M  V30 42 1 16 40
M  V30 43 1 19 41
M  V30 44 1 21 42
M  V30 45 1 22 43
M  V30 46 1 22 44
M  V30 47 1 22 45
M  V30 48 1 23 46
M  V30 49 1 23 47
M  V30 50 1 23 48
M  V30 END BOND
M  V30 END CTAB
M  END
>  <Dataset>  (239) 
ChEMBL_Kinases

>  <Ligand_Instance>  (239) 
nan

>  <PDB_ID>  (239) 
nan

>  <Standardized_SMILES>  (239) 
CC[C@H](CO)Nc1nc(Nc2ccncc2)c2ncn(C(C)C)c2n1

>  <Name>  (239) 
nan

>  <Pocket>  (239) 
nan

>  <ATP_Site>  (239) 
nan

>  <Peripheral>  (239) 
nan

>  <Num_H_Atoms_ProtBoundConf>  (239) 
nan

>  <Num_Resolved_Atoms>  (239) 
nan

>  <Num_Not_Resolved_Atoms>  (239) 
nan

$$$$
CHEMBL2314467
     RDKit          3D

  0  0  0  0  0  0  0  0  0  0999 V3000
M  V30 BEGIN CTAB
M  V30 COUNTS 48 50 0 0 0
M  V30 BEGIN ATOM
M  V30 1 C -0.132787 -4.165463 3.832587 0
M  V30 2 C 0.210765 -2.718800 4.179168 0
M  V30 3 C 0.050715 -1.875368 2.935673 0 CFG=1
M  V30 4 C 0.374591 -0.420673 3.201742 0
M  V30 5 O 1.709220 -0.212755 3.495019 0
M  V30 6 N 0.794545 -2.403345 1.815914 0
M  V30 7 C 0.677553 -1.556482 0.657664 0
M  V30 8 N 1.670777 -0.904596 0.028302 0
M  V30 9 C 1.382109 -0.130163 -1.052086 0
M  V30 10 N 2.527221 0.505851 -1.631059 0
M  V30 11 C 2.618792 1.712767 -0.890398 0
M  V30 12 C 1.854270 2.876655 -0.898992 0
M  V30 13 C 2.198195 3.874722 -0.021445 0
M  V30 14 N 3.203733 3.832652 0.844588 0
M  V30 15 C 3.952945 2.707224 0.860774 0
M  V30 16 C 3.669672 1.670975 0.014407 0
M  V30 17 C 0.096805 0.004451 -1.516736 0
M  V30 18 N -0.420775 0.696804 -2.540420 0
M  V30 19 C -1.738858 0.488225 -2.562187 0
M  V30 20 N -2.063271 -0.347437 -1.541797 0
M  V30 21 C -3.285234 -0.928539 -1.038755 0
M  V30 22 C -3.335945 -0.893986 0.473848 0
M  V30 23 C -3.459561 -2.380672 -1.458258 0
M  V30 24 C -0.922639 -0.671026 -0.862807 0
M  V30 25 N -0.574437 -1.421620 0.198018 0
M  V30 26 H -0.962666 -4.150032 3.099319 0
M  V30 27 H 0.758212 -4.646339 3.387798 0
M  V30 28 H -0.455236 -4.682536 4.782362 0
M  V30 29 H 1.214275 -2.641026 4.609479 0
M  V30 30 H -0.513826 -2.440220 4.971991 0
M  V30 31 H -1.029277 -1.920827 2.664263 0
M  V30 32 H 0.139361 0.117151 2.245226 0
M  V30 33 H -0.277608 -0.007420 3.998438 0
M  V30 34 H 1.871349 0.037753 4.450677 0
M  V30 35 H 1.378864 -3.277900 1.744301 0
M  V30 36 H 3.225605 0.341457 -2.370727 0
M  V30 37 H 1.068593 2.838455 -1.622781 0
M  V30 38 H 1.568522 4.753002 -0.076221 0
M  V30 39 H 4.759045 2.736816 1.592912 0
M  V30 40 H 4.364636 0.849471 0.159543 0
M  V30 41 H -2.505439 0.858829 -3.219212 0
M  V30 42 H -4.152225 -0.380486 -1.424941 0
M  V30 43 H -2.644868 -0.111426 0.878898 0
M  V30 44 H -4.355884 -0.643709 0.820272 0
M  V30 45 H -3.087444 -1.915696 0.869119 0
M  V30 46 H -3.300879 -2.551519 -2.525641 0
M  V30 47 H -2.841892 -3.027366 -0.788437 0
M  V30 48 H -4.535596 -2.643044 -1.274674 0
M  V30 END ATOM
M  V30 BEGIN BOND
M  V30 1 1 1 2
M  V30 2 1 2 3
M  V30 3 1 3 4
M  V30 4 1 4 5
M  V30 5 1 3 6
M  V30 6 1 6 7
M  V30 7 2 7 8
M  V30 8 1 8 9
M  V30 9 1 9 10
M  V30 10 1 10 11
M  V30 11 2 11 12
M  V30 12 1 12 13
M  V30 13 2 13 14
M  V30 14 1 14 15
M  V30 15 2 15 16
M  V30 16 2 9 17
M  V30 17 1 17 18
M  V30 18 2 18 19
M  V30 19 1 19 20
M  V30 20 1 20 21
M  V30 21 1 21 22
M  V30 22 1 21 23
M  V30 23 1 20 24
M  V30 24 2 24 25
M  V30 25 1 25 7
M  V30 26 1 16 11
M  V30 27 1 24 17
M  V30 28 1 1 26
M  V30 29 1 1 27
M  V30 30 1 1 28
M  V30 31 1 2 29
M  V30 32 1 2 30
M  V30 33 1 3 31 CFG=3
M  V30 34 1 4 32
M  V30 35 1 4 33
M  V30 36 1 5 34
M  V30 37 1 6 35
M  V30 38 1 10 36
M  V30 39 1 12 37
M  V30 40 1 13 38
M  V30 41 1 15 39
M  V30 42 1 16 40
M  V30 43 1 19 41
M  V30 44 1 21 42
M  V30 45 1 22 43
M  V30 46 1 22 44
M  V30 47 1 22 45
M  V30 48 1 23 46
M  V30 49 1 23 47
M  V30 50 1 23 48
M  V30 END BOND
M  V30 END CTAB
M  END
>  <Dataset>  (240) 
ChEMBL_Kinases

>  <Ligand_Instance>  (240) 
nan

>  <PDB_ID>  (240) 
nan

>  <Standardized_SMILES>  (240) 
CC[C@@H](CO)Nc1nc(Nc2ccncc2)c2ncn(C(C)C)c2n1

>  <Name>  (240) 
nan

>  <Pocket>  (240) 
nan

>  <ATP_Site>  (240) 
nan

>  <Peripheral>  (240) 
nan

>  <Num_H_Atoms_ProtBoundConf>  (240) 
nan

>  <Num_Resolved_Atoms>  (240) 
nan

>  <Num_Not_Resolved_Atoms>  (240) 
nan

$$$$
CHEMBL2314477
     RDKit          3D

  0  0  0  0  0  0  0  0  0  0999 V3000
M  V30 BEGIN CTAB
M  V30 COUNTS 48 50 0 0 0
M  V30 BEGIN ATOM
M  V30 1 C 0.722331 -3.156895 4.620305 0
M  V30 2 C 0.764385 -1.671267 4.361820 0
M  V30 3 C 0.336851 -1.420797 2.937502 0 CFG=1
M  V30 4 C 0.357142 0.024352 2.571700 0
M  V30 5 O -0.391387 0.741671 3.517828 0
M  V30 6 N 1.078244 -2.258112 2.014313 0
M  V30 7 C 0.613373 -1.749942 0.763864 0
M  V30 8 N 1.582969 -1.066950 0.107134 0
M  V30 9 C 1.383200 -0.436736 -1.064564 0
M  V30 10 N 2.461544 0.252571 -1.693717 0
M  V30 11 C 2.709600 1.313181 -0.734395 0
M  V30 12 C 3.483799 0.901829 0.336421 0
M  V30 13 C 3.840883 1.750424 1.378971 0
M  V30 14 C 3.348889 3.049170 1.246524 0
M  V30 15 C 2.568432 3.468153 0.167800 0
M  V30 16 N 2.267219 2.577348 -0.804464 0
M  V30 17 C 0.110192 -0.531287 -1.561149 0
M  V30 18 N -0.455837 -0.022425 -2.674220 0
M  V30 19 C -1.758650 -0.397282 -2.689991 0
M  V30 20 N -2.078606 -1.138105 -1.628203 0
M  V30 21 C -3.275189 -1.781950 -1.143500 0
M  V30 22 C -3.950489 -0.993803 -0.045484 0
M  V30 23 C -4.242598 -1.949655 -2.286724 0
M  V30 24 C -0.916984 -1.210593 -0.941844 0
M  V30 25 N -0.629879 -1.828396 0.251612 0
M  V30 26 H -0.168204 -3.386629 5.274516 0
M  V30 27 H 0.659335 -3.766701 3.700290 0
M  V30 28 H 1.674133 -3.465920 5.125071 0
M  V30 29 H 1.772040 -1.244533 4.497558 0
M  V30 30 H 0.057515 -1.119402 5.034092 0
M  V30 31 H -0.746588 -1.749432 2.813379 0
M  V30 32 H -0.185553 0.142585 1.601874 0
M  V30 33 H 1.372773 0.445946 2.448835 0
M  V30 34 H -0.849136 1.511194 3.054268 0
M  V30 35 H 1.768993 -3.033594 2.137113 0
M  V30 36 H 2.864047 -0.043379 -2.612449 0
M  V30 37 H 3.857677 -0.114240 0.433378 0
M  V30 38 H 4.446097 1.436187 2.220975 0
M  V30 39 H 3.567268 3.775058 2.013025 0
M  V30 40 H 2.195681 4.472878 0.070384 0
M  V30 41 H -2.464297 -0.130767 -3.458643 0
M  V30 42 H -3.050505 -2.805140 -0.760302 0
M  V30 43 H -3.312595 -0.899882 0.848970 0
M  V30 44 H -4.831385 -1.603303 0.266170 0
M  V30 45 H -4.258058 -0.011999 -0.445219 0
M  V30 46 H -4.140034 -2.974755 -2.734010 0
M  V30 47 H -4.110287 -1.211657 -3.094980 0
M  V30 48 H -5.304323 -1.854232 -1.947110 0
M  V30 END ATOM
M  V30 BEGIN BOND
M  V30 1 1 1 2
M  V30 2 1 2 3
M  V30 3 1 3 4
M  V30 4 1 4 5
M  V30 5 1 3 6
M  V30 6 1 6 7
M  V30 7 2 7 8
M  V30 8 1 8 9
M  V30 9 1 9 10
M  V30 10 1 10 11
M  V30 11 2 11 12
M  V30 12 1 12 13
M  V30 13 2 13 14
M  V30 14 1 14 15
M  V30 15 2 15 16
M  V30 16 2 9 17
M  V30 17 1 17 18
M  V30 18 2 18 19
M  V30 19 1 19 20
M  V30 20 1 20 21
M  V30 21 1 21 22
M  V30 22 1 21 23
M  V30 23 1 20 24
M  V30 24 2 24 25
M  V30 25 1 25 7
M  V30 26 1 16 11
M  V30 27 1 24 17
M  V30 28 1 1 26
M  V30 29 1 1 27
M  V30 30 1 1 28
M  V30 31 1 2 29
M  V30 32 1 2 30
M  V30 33 1 3 31 CFG=1
M  V30 34 1 4 32
M  V30 35 1 4 33
M  V30 36 1 5 34
M  V30 37 1 6 35
M  V30 38 1 10 36
M  V30 39 1 12 37
M  V30 40 1 13 38
M  V30 41 1 14 39
M  V30 42 1 15 40
M  V30 43 1 19 41
M  V30 44 1 21 42
M  V30 45 1 22 43
M  V30 46 1 22 44
M  V30 47 1 22 45
M  V30 48 1 23 46
M  V30 49 1 23 47
M  V30 50 1 23 48
M  V30 END BOND
M  V30 END CTAB
M  END
>  <Dataset>  (241) 
ChEMBL_Kinases

>  <Ligand_Instance>  (241) 
nan

>  <PDB_ID>  (241) 
nan

>  <Standardized_SMILES>  (241) 
CC[C@@H](CO)Nc1nc(Nc2ccccn2)c2ncn(C(C)C)c2n1

>  <Name>  (241) 
nan

>  <Pocket>  (241) 
nan

>  <ATP_Site>  (241) 
nan

>  <Peripheral>  (241) 
nan

>  <Num_H_Atoms_ProtBoundConf>  (241) 
nan

>  <Num_Resolved_Atoms>  (241) 
nan

>  <Num_Not_Resolved_Atoms>  (241) 
nan

$$$$
CHEMBL2314469
     RDKit          3D

  0  0  0  0  0  0  0  0  0  0999 V3000
M  V30 BEGIN CTAB
M  V30 COUNTS 33 35 0 0 0
M  V30 BEGIN ATOM
M  V30 1 C -1.049812 -3.336170 3.659523 0
M  V30 2 C -0.110960 -3.526722 2.465676 0
M  V30 3 C -0.666925 -4.532324 1.521149 0
M  V30 4 N 0.237020 -2.256599 1.876594 0
M  V30 5 C 0.155283 -1.097961 2.591653 0
M  V30 6 N 0.537523 -0.085417 1.798187 0
M  V30 7 C 0.866134 -0.529882 0.593840 0
M  V30 8 C 1.319287 0.072600 -0.579048 0
M  V30 9 N 1.472265 1.483116 -0.508514 0
M  V30 10 C 0.438878 2.366217 -0.926013 0
M  V30 11 C -0.724220 1.879549 -1.493247 0
M  V30 12 C -1.716415 2.755210 -1.893472 0
M  V30 13 N -1.542319 4.074245 -1.727870 0
M  V30 14 C -0.417617 4.607448 -1.175279 0
M  V30 15 C 0.592280 3.726609 -0.767098 0
M  V30 16 N 1.553976 -0.736997 -1.628016 0
M  V30 17 C 1.348171 -2.079989 -1.517903 0
M  V30 18 Cl 1.724198 -2.913301 -3.026652 0
M  V30 19 N 0.911271 -2.670788 -0.391753 0
M  V30 20 C 0.667123 -1.906162 0.670739 0
M  V30 21 H -0.487017 -3.360377 4.617034 0
M  V30 22 H -1.825580 -4.126304 3.674314 0
M  V30 23 H -1.549348 -2.328141 3.600703 0
M  V30 24 H 0.834511 -3.959416 2.895708 0
M  V30 25 H -1.436495 -5.135619 2.089100 0
M  V30 26 H -1.193155 -4.113756 0.656896 0
M  V30 27 H 0.107268 -5.307249 1.242491 0
M  V30 28 H -0.141054 -0.852791 3.612186 0
M  V30 29 H 2.368531 1.864300 -0.139504 0
M  V30 30 H -0.881665 0.806210 -1.636063 0
M  V30 31 H -2.654503 2.439144 -2.345740 0
M  V30 32 H -0.299352 5.696462 -1.049954 0
M  V30 33 H 1.503698 4.102784 -0.324560 0
M  V30 END ATOM
M  V30 BEGIN BOND
M  V30 1 1 1 2
M  V30 2 1 2 3
M  V30 3 1 2 4
M  V30 4 1 4 5
M  V30 5 2 5 6
M  V30 6 1 6 7
M  V30 7 2 7 8
M  V30 8 1 8 9
M  V30 9 1 9 10
M  V30 10 2 10 11
M  V30 11 1 11 12
M  V30 12 2 12 13
M  V30 13 1 13 14
M  V30 14 2 14 15
M  V30 15 1 8 16
M  V30 16 2 16 17
M  V30 17 1 17 18
M  V30 18 1 17 19
M  V30 19 2 19 20
M  V30 20 1 20 4
M  V30 21 1 20 7
M  V30 22 1 15 10
M  V30 23 1 1 21
M  V30 24 1 1 22
M  V30 25 1 1 23
M  V30 26 1 2 24
M  V30 27 1 3 25
M  V30 28 1 3 26
M  V30 29 1 3 27
M  V30 30 1 5 28
M  V30 31 1 9 29
M  V30 32 1 11 30
M  V30 33 1 12 31
M  V30 34 1 14 32
M  V30 35 1 15 33
M  V30 END BOND
M  V30 END CTAB
M  END
>  <Dataset>  (242) 
ChEMBL_Kinases

>  <Ligand_Instance>  (242) 
nan

>  <PDB_ID>  (242) 
nan

>  <Standardized_SMILES>  (242) 
CC(C)n1cnc2c(Nc3ccncc3)nc(Cl)nc21

>  <Name>  (242) 
nan

>  <Pocket>  (242) 
nan

>  <ATP_Site>  (242) 
nan

>  <Peripheral>  (242) 
nan

>  <Num_H_Atoms_ProtBoundConf>  (242) 
nan

>  <Num_Resolved_Atoms>  (242) 
nan

>  <Num_Not_Resolved_Atoms>  (242) 
nan

$$$$
CHEMBL2314470
     RDKit          3D

  0  0  0  0  0  0  0  0  0  0999 V3000
M  V30 BEGIN CTAB
M  V30 COUNTS 51 53 0 0 0
M  V30 BEGIN ATOM
M  V30 1 C -0.370031 0.689025 5.144013 0
M  V30 2 C 0.113125 0.237514 3.782860 0
M  V30 3 C -0.707468 0.988487 2.772829 0
M  V30 4 C -0.000216 -1.256469 3.619755 0 CFG=1
M  V30 5 C -1.374063 -1.807986 3.739729 0
M  V30 6 O -1.238881 -3.217362 3.724550 0
M  V30 7 N 0.581198 -1.720365 2.379113 0
M  V30 8 C 0.417514 -1.486720 0.992848 0
M  V30 9 N 1.229460 -0.559379 0.467764 0
M  V30 10 C 1.159289 -0.254025 -0.833692 0
M  V30 11 N 1.978267 0.704843 -1.463520 0
M  V30 12 C 3.009765 1.526986 -0.970959 0
M  V30 13 C 3.728612 2.453575 -1.719167 0
M  V30 14 C 4.722866 3.209640 -1.143241 0
M  V30 15 C 5.080140 3.115725 0.184334 0
M  V30 16 N 4.383349 2.213892 0.920331 0
M  V30 17 C 3.402138 1.469314 0.346825 0
M  V30 18 C 0.231988 -0.920370 -1.606182 0
M  V30 19 N -0.083399 -0.850306 -2.903866 0
M  V30 20 C -1.071736 -1.729593 -3.135262 0
M  V30 21 N -1.403807 -2.371565 -2.003255 0
M  V30 22 C -2.439967 -3.390830 -1.899600 0
M  V30 23 C -3.732613 -2.896837 -2.514201 0
M  V30 24 C -2.675824 -3.612485 -0.404030 0
M  V30 25 C -0.596098 -1.870815 -1.054424 0
M  V30 26 N -0.491463 -2.145670 0.255843 0
M  V30 27 H -1.357441 0.225753 5.327926 0
M  V30 28 H 0.379271 0.501434 5.941238 0
M  V30 29 H -0.591505 1.793659 5.051350 0
M  V30 30 H 1.161614 0.585241 3.708428 0
M  V30 31 H -0.983362 0.388160 1.881011 0
M  V30 32 H -1.620641 1.462665 3.232501 0
M  V30 33 H -0.115354 1.853248 2.413992 0
M  V30 34 H 0.606351 -1.684741 4.472254 0
M  V30 35 H -1.928254 -1.584057 4.645677 0
M  V30 36 H -1.957829 -1.578604 2.805239 0
M  V30 37 H -1.914243 -3.646411 4.281223 0
M  V30 38 H 1.357508 -2.437200 2.380606 0
M  V30 39 H 1.841468 0.887405 -2.503332 0
M  V30 40 H 3.471260 2.552498 -2.770363 0
M  V30 41 H 5.217648 3.904146 -1.832541 0
M  V30 42 H 5.870608 3.742997 0.562169 0
M  V30 43 H 2.979893 0.822606 1.096358 0
M  V30 44 H -1.476487 -1.832201 -4.130906 0
M  V30 45 H -2.094694 -4.326351 -2.364621 0
M  V30 46 H -4.596858 -3.101364 -1.836168 0
M  V30 47 H -3.604178 -1.810786 -2.734615 0
M  V30 48 H -3.900787 -3.472350 -3.451017 0
M  V30 49 H -1.840119 -4.103375 0.094145 0
M  V30 50 H -2.902255 -2.595869 0.028101 0
M  V30 51 H -3.606057 -4.191440 -0.253391 0
M  V30 END ATOM
M  V30 BEGIN BOND
M  V30 1 1 1 2
M  V30 2 1 2 3
M  V30 3 1 2 4
M  V30 4 1 4 5
M  V30 5 1 5 6
M  V30 6 1 4 7
M  V30 7 1 7 8
M  V30 8 2 8 9
M  V30 9 1 9 10
M  V30 10 1 10 11
M  V30 11 1 11 12
M  V30 12 2 12 13
M  V30 13 1 13 14
M  V30 14 2 14 15
M  V30 15 1 15 16
M  V30 16 2 16 17
M  V30 17 2 10 18
M  V30 18 1 18 19
M  V30 19 2 19 20
M  V30 20 1 20 21
M  V30 21 1 21 22
M  V30 22 1 22 23
M  V30 23 1 22 24
M  V30 24 1 21 25
M  V30 25 2 25 26
M  V30 26 1 26 8
M  V30 27 1 17 12
M  V30 28 1 25 18
M  V30 29 1 1 27
M  V30 30 1 1 28
M  V30 31 1 1 29
M  V30 32 1 2 30
M  V30 33 1 3 31
M  V30 34 1 3 32
M  V30 35 1 3 33
M  V30 36 1 4 34 CFG=1
M  V30 37 1 5 35
M  V30 38 1 5 36
M  V30 39 1 6 37
M  V30 40 1 7 38
M  V30 41 1 11 39
M  V30 42 1 13 40
M  V30 43 1 14 41
M  V30 44 1 15 42
M  V30 45 1 17 43
M  V30 46 1 20 44
M  V30 47 1 22 45
M  V30 48 1 23 46
M  V30 49 1 23 47
M  V30 50 1 23 48
M  V30 51 1 24 49
M  V30 52 1 24 50
M  V30 53 1 24 51
M  V30 END BOND
M  V30 END CTAB
M  END
>  <Dataset>  (243) 
ChEMBL_Kinases

>  <Ligand_Instance>  (243) 
nan

>  <PDB_ID>  (243) 
nan

>  <Standardized_SMILES>  (243) 
CC(C)[C@@H](CO)Nc1nc(Nc2cccnc2)c2ncn(C(C)C)c2n1

>  <Name>  (243) 
nan

>  <Pocket>  (243) 
nan

>  <ATP_Site>  (243) 
nan

>  <Peripheral>  (243) 
nan

>  <Num_H_Atoms_ProtBoundConf>  (243) 
nan

>  <Num_Resolved_Atoms>  (243) 
nan

>  <Num_Not_Resolved_Atoms>  (243) 
nan

$$$$
CHEMBL2314471
     RDKit          3D

  0  0  0  0  0  0  0  0  0  0999 V3000
M  V30 BEGIN CTAB
M  V30 COUNTS 51 53 0 0 0
M  V30 BEGIN ATOM
M  V30 1 C 1.543534 -4.333216 0.875004 0
M  V30 2 C 2.198498 -3.076100 0.356897 0
M  V30 3 C 1.511258 -2.603599 -0.881351 0
M  V30 4 C 2.421454 -2.031349 1.404035 0 CFG=2
M  V30 5 C 3.318847 -2.636225 2.458756 0
M  V30 6 O 3.703543 -1.662429 3.401855 0
M  V30 7 N 1.254363 -1.502422 2.023656 0
M  V30 8 C 0.185809 -0.826523 1.396614 0
M  V30 9 N 0.361293 0.499966 1.330714 0
M  V30 10 C -0.529916 1.332531 0.776411 0
M  V30 11 N -0.431620 2.741443 0.661183 0
M  V30 12 C 0.631873 3.559169 1.109646 0
M  V30 13 C 1.777299 3.136211 1.745841 0
M  V30 14 C 2.791151 3.968709 2.167125 0
M  V30 15 C 2.674065 5.324624 1.947846 0
M  V30 16 N 1.564927 5.764171 1.328299 0
M  V30 17 C 0.593644 4.928221 0.929192 0
M  V30 18 C -1.650547 0.702722 0.276345 0
M  V30 19 N -2.750497 1.180941 -0.343221 0
M  V30 20 C -3.603837 0.192919 -0.664276 0
M  V30 21 N -3.046156 -0.953009 -0.244039 0
M  V30 22 C -3.567638 -2.298762 -0.353072 0
M  V30 23 C -5.004214 -2.187523 -0.829878 0
M  V30 24 C -2.801570 -3.172498 -1.305494 0
M  V30 25 C -1.865074 -0.654861 0.325899 0
M  V30 26 N -0.917331 -1.418956 0.901100 0
M  V30 27 H 1.503410 -5.031537 -0.005279 0
M  V30 28 H 2.163654 -4.803723 1.660959 0
M  V30 29 H 0.506879 -4.204036 1.213817 0
M  V30 30 H 3.235197 -3.407742 0.050834 0
M  V30 31 H 2.083068 -2.836890 -1.799688 0
M  V30 32 H 1.385062 -1.510068 -0.837909 0
M  V30 33 H 0.507476 -3.053815 -1.022670 0
M  V30 34 H 2.982809 -1.209569 0.928328 0
M  V30 35 H 2.813824 -3.441307 3.032771 0
M  V30 36 H 4.257230 -3.054083 2.058329 0
M  V30 37 H 3.988354 -2.156924 4.203414 0
M  V30 38 H 0.986019 -1.519792 3.032516 0
M  V30 39 H -1.220343 3.247031 0.197852 0
M  V30 40 H 1.924817 2.103825 1.942717 0
M  V30 41 H 3.668893 3.600090 2.659765 0
M  V30 42 H 3.420201 6.051184 2.244484 0
M  V30 43 H -0.250928 5.422242 0.438595 0
M  V30 44 H -4.549876 0.272965 -1.158243 0
M  V30 45 H -3.583793 -2.762682 0.654405 0
M  V30 46 H -5.452888 -3.205386 -0.863232 0
M  V30 47 H -5.575300 -1.504624 -0.158290 0
M  V30 48 H -4.970068 -1.765244 -1.853938 0
M  V30 49 H -3.516204 -3.927792 -1.746665 0
M  V30 50 H -2.395871 -2.619522 -2.160968 0
M  V30 51 H -2.027081 -3.783465 -0.782328 0
M  V30 END ATOM
M  V30 BEGIN BOND
M  V30 1 1 1 2
M  V30 2 1 2 3
M  V30 3 1 2 4
M  V30 4 1 4 5
M  V30 5 1 5 6
M  V30 6 1 4 7
M  V30 7 1 7 8
M  V30 8 2 8 9
M  V30 9 1 9 10
M  V30 10 1 10 11
M  V30 11 1 11 12
M  V30 12 2 12 13
M  V30 13 1 13 14
M  V30 14 2 14 15
M  V30 15 1 15 16
M  V30 16 2 16 17
M  V30 17 2 10 18
M  V30 18 1 18 19
M  V30 19 2 19 20
M  V30 20 1 20 21
M  V30 21 1 21 22
M  V30 22 1 22 23
M  V30 23 1 22 24
M  V30 24 1 21 25
M  V30 25 2 25 26
M  V30 26 1 26 8
M  V30 27 1 17 12
M  V30 28 1 25 18
M  V30 29 1 1 27
M  V30 30 1 1 28
M  V30 31 1 1 29
M  V30 32 1 2 30
M  V30 33 1 3 31
M  V30 34 1 3 32
M  V30 35 1 3 33
M  V30 36 1 4 34 CFG=3
M  V30 37 1 5 35
M  V30 38 1 5 36
M  V30 39 1 6 37
M  V30 40 1 7 38
M  V30 41 1 11 39
M  V30 42 1 13 40
M  V30 43 1 14 41
M  V30 44 1 15 42
M  V30 45 1 17 43
M  V30 46 1 20 44
M  V30 47 1 22 45
M  V30 48 1 23 46
M  V30 49 1 23 47
M  V30 50 1 23 48
M  V30 51 1 24 49
M  V30 52 1 24 50
M  V30 53 1 24 51
M  V30 END BOND
M  V30 END CTAB
M  END
>  <Dataset>  (244) 
ChEMBL_Kinases

>  <Ligand_Instance>  (244) 
nan

>  <PDB_ID>  (244) 
nan

>  <Standardized_SMILES>  (244) 
CC(C)[C@H](CO)Nc1nc(Nc2cccnc2)c2ncn(C(C)C)c2n1

>  <Name>  (244) 
nan

>  <Pocket>  (244) 
nan

>  <ATP_Site>  (244) 
nan

>  <Peripheral>  (244) 
nan

>  <Num_H_Atoms_ProtBoundConf>  (244) 
nan

>  <Num_Resolved_Atoms>  (244) 
nan

>  <Num_Not_Resolved_Atoms>  (244) 
nan

$$$$
CHEMBL2314472
     RDKit          3D

  0  0  0  0  0  0  0  0  0  0999 V3000
M  V30 BEGIN CTAB
M  V30 COUNTS 48 50 0 0 0
M  V30 BEGIN ATOM
M  V30 1 C 1.785592 -4.526136 3.780484 0
M  V30 2 C 0.878890 -3.436675 4.312588 0
M  V30 3 C 0.162294 -2.703431 3.196092 0 CFG=1
M  V30 4 C -0.741692 -1.613291 3.766790 0
M  V30 5 O 0.015933 -0.628712 4.400465 0
M  V30 6 N 1.100737 -2.182556 2.223033 0
M  V30 7 C 0.732632 -1.451952 1.057862 0
M  V30 8 N 1.633082 -0.992882 0.194581 0
M  V30 9 C 1.327637 -0.300807 -0.915054 0
M  V30 10 N 2.355950 0.153780 -1.785551 0
M  V30 11 C 2.875191 1.432616 -1.508882 0
M  V30 12 C 2.420878 2.211584 -0.456387 0
M  V30 13 C 2.965806 3.459331 -0.230480 0
M  V30 14 C 3.976338 3.964624 -1.045117 0
M  V30 15 N 4.416426 3.221216 -2.057036 0
M  V30 16 C 3.876470 1.990928 -2.276739 0
M  V30 17 C 0.003321 -0.037154 -1.198451 0
M  V30 18 N -0.640385 0.608336 -2.191972 0
M  V30 19 C -1.969193 0.550104 -1.942329 0
M  V30 20 N -2.168184 -0.125512 -0.801749 0
M  V30 21 C -3.459607 -0.410261 -0.181585 0
M  V30 22 C -4.453276 0.689237 -0.356904 0
M  V30 23 C -3.946605 -1.755578 -0.706610 0
M  V30 24 C -0.962973 -0.496134 -0.327716 0
M  V30 25 N -0.543933 -1.172276 0.742459 0
M  V30 26 H 1.219032 -5.250444 3.176407 0
M  V30 27 H 2.624486 -4.157969 3.189392 0
M  V30 28 H 2.177605 -5.056374 4.689109 0
M  V30 29 H 1.454679 -2.700934 4.893805 0
M  V30 30 H 0.167003 -3.932191 5.001167 0
M  V30 31 H -0.516655 -3.446931 2.721064 0
M  V30 32 H -1.386121 -1.240021 2.963479 0
M  V30 33 H -1.416967 -2.127653 4.484710 0
M  V30 34 H -0.544957 -0.214555 5.108619 0
M  V30 35 H 2.110188 -2.354187 2.387326 0
M  V30 36 H 2.726516 -0.384601 -2.578536 0
M  V30 37 H 1.635751 1.798885 0.162832 0
M  V30 38 H 2.529577 3.978614 0.624161 0
M  V30 39 H 4.275368 4.940247 -0.722753 0
M  V30 40 H 4.235322 1.387366 -3.100067 0
M  V30 41 H -2.678218 0.998815 -2.602789 0
M  V30 42 H -3.325600 -0.554328 0.922848 0
M  V30 43 H -4.475173 1.378310 0.536828 0
M  V30 44 H -4.178785 1.284752 -1.246547 0
M  V30 45 H -5.494554 0.312455 -0.432547 0
M  V30 46 H -4.393368 -1.668715 -1.706441 0
M  V30 47 H -3.027734 -2.404261 -0.727544 0
M  V30 48 H -4.614697 -2.201893 0.058411 0
M  V30 END ATOM
M  V30 BEGIN BOND
M  V30 1 1 1 2
M  V30 2 1 2 3
M  V30 3 1 3 4
M  V30 4 1 4 5
M  V30 5 1 3 6
M  V30 6 1 6 7
M  V30 7 2 7 8
M  V30 8 1 8 9
M  V30 9 1 9 10
M  V30 10 1 10 11
M  V30 11 2 11 12
M  V30 12 1 12 13
M  V30 13 2 13 14
M  V30 14 1 14 15
M  V30 15 2 15 16
M  V30 16 2 9 17
M  V30 17 1 17 18
M  V30 18 2 18 19
M  V30 19 1 19 20
M  V30 20 1 20 21
M  V30 21 1 21 22
M  V30 22 1 21 23
M  V30 23 1 20 24
M  V30 24 2 24 25
M  V30 25 1 25 7
M  V30 26 1 16 11
M  V30 27 1 24 17
M  V30 28 1 1 26
M  V30 29 1 1 27
M  V30 30 1 1 28
M  V30 31 1 2 29
M  V30 32 1 2 30
M  V30 33 1 3 31 CFG=3
M  V30 34 1 4 32
M  V30 35 1 4 33
M  V30 36 1 5 34
M  V30 37 1 6 35
M  V30 38 1 10 36
M  V30 39 1 12 37
M  V30 40 1 13 38
M  V30 41 1 14 39
M  V30 42 1 16 40
M  V30 43 1 19 41
M  V30 44 1 21 42
M  V30 45 1 22 43
M  V30 46 1 22 44
M  V30 47 1 22 45
M  V30 48 1 23 46
M  V30 49 1 23 47
M  V30 50 1 23 48
M  V30 END BOND
M  V30 END CTAB
M  END
>  <Dataset>  (245) 
ChEMBL_Kinases

>  <Ligand_Instance>  (245) 
nan

>  <PDB_ID>  (245) 
nan

>  <Standardized_SMILES>  (245) 
CC[C@@H](CO)Nc1nc(Nc2cccnc2)c2ncn(C(C)C)c2n1

>  <Name>  (245) 
nan

>  <Pocket>  (245) 
nan

>  <ATP_Site>  (245) 
nan

>  <Peripheral>  (245) 
nan

>  <Num_H_Atoms_ProtBoundConf>  (245) 
nan

>  <Num_Resolved_Atoms>  (245) 
nan

>  <Num_Not_Resolved_Atoms>  (245) 
nan

$$$$
CHEMBL2314473
     RDKit          3D

  0  0  0  0  0  0  0  0  0  0999 V3000
M  V30 BEGIN CTAB
M  V30 COUNTS 48 50 0 0 0
M  V30 BEGIN ATOM
M  V30 1 C 2.287699 -5.390316 1.252377 0
M  V30 2 C 3.254256 -4.222680 1.209217 0
M  V30 3 C 2.634184 -3.045751 0.477261 0 CFG=2
M  V30 4 C 3.551171 -1.868300 0.418079 0
M  V30 5 O 3.756880 -1.248418 1.650222 0
M  V30 6 N 1.339243 -2.685766 0.954848 0
M  V30 7 C 0.484388 -1.617765 0.583547 0
M  V30 8 N 0.776110 -0.662979 -0.308963 0
M  V30 9 C -0.041003 0.337780 -0.658430 0
M  V30 10 N 0.313778 1.338570 -1.599167 0
M  V30 11 C 0.660959 2.700689 -1.426320 0
M  V30 12 C 0.463076 3.401476 -0.262244 0
M  V30 13 C 0.829807 4.719751 -0.181881 0
M  V30 14 C 1.403503 5.339290 -1.289433 0
M  V30 15 N 1.585737 4.615720 -2.427914 0
M  V30 16 C 1.234800 3.322314 -2.532713 0
M  V30 17 C -1.274436 0.378690 -0.045703 0
M  V30 18 N -2.341073 1.181189 -0.110354 0
M  V30 19 C -3.291409 0.721492 0.744844 0
M  V30 20 N -2.868316 -0.389575 1.385563 0
M  V30 21 C -3.499001 -1.225033 2.364644 0
M  V30 22 C -4.946539 -1.523814 2.069162 0
M  V30 23 C -3.414361 -0.683490 3.757759 0
M  V30 24 C -1.617681 -0.571384 0.870964 0
M  V30 25 N -0.725867 -1.530947 1.149841 0
M  V30 26 H 1.460773 -5.292352 0.521945 0
M  V30 27 H 2.806200 -6.365522 1.036590 0
M  V30 28 H 1.860885 -5.407797 2.287402 0
M  V30 29 H 4.113032 -4.578639 0.583107 0
M  V30 30 H 3.588810 -3.939260 2.224405 0
M  V30 31 H 2.500304 -3.384569 -0.595022 0
M  V30 32 H 3.101966 -1.102969 -0.250105 0
M  V30 33 H 4.537848 -2.171347 -0.037402 0
M  V30 34 H 4.624555 -1.530252 2.059641 0
M  V30 35 H 0.988768 -3.347005 1.706243 0
M  V30 36 H 0.271749 0.858435 -2.506825 0
M  V30 37 H 0.008395 2.882827 0.594680 0
M  V30 38 H 0.661764 5.251495 0.747944 0
M  V30 39 H 1.695208 6.378917 -1.229440 0
M  V30 40 H 1.440160 2.862729 -3.508213 0
M  V30 41 H -4.269314 1.152559 0.921998 0
M  V30 42 H -2.967142 -2.213292 2.368791 0
M  V30 43 H -5.599887 -0.817316 2.608592 0
M  V30 44 H -5.203668 -1.532494 0.996266 0
M  V30 45 H -5.243842 -2.536720 2.462410 0
M  V30 46 H -3.269856 -1.531223 4.490071 0
M  V30 47 H -4.359496 -0.185964 4.050318 0
M  V30 48 H -2.559092 -0.008195 3.916121 0
M  V30 END ATOM
M  V30 BEGIN BOND
M  V30 1 1 1 2
M  V30 2 1 2 3
M  V30 3 1 3 4
M  V30 4 1 4 5
M  V30 5 1 3 6
M  V30 6 1 6 7
M  V30 7 2 7 8
M  V30 8 1 8 9
M  V30 9 1 9 10
M  V30 10 1 10 11
M  V30 11 2 11 12
M  V30 12 1 12 13
M  V30 13 2 13 14
M  V30 14 1 14 15
M  V30 15 2 15 16
M  V30 16 2 9 17
M  V30 17 1 17 18
M  V30 18 2 18 19
M  V30 19 1 19 20
M  V30 20 1 20 21
M  V30 21 1 21 22
M  V30 22 1 21 23
M  V30 23 1 20 24
M  V30 24 2 24 25
M  V30 25 1 25 7
M  V30 26 1 16 11
M  V30 27 1 24 17
M  V30 28 1 1 26
M  V30 29 1 1 27
M  V30 30 1 1 28
M  V30 31 1 2 29
M  V30 32 1 2 30
M  V30 33 1 3 31 CFG=3
M  V30 34 1 4 32
M  V30 35 1 4 33
M  V30 36 1 5 34
M  V30 37 1 6 35
M  V30 38 1 10 36
M  V30 39 1 12 37
M  V30 40 1 13 38
M  V30 41 1 14 39
M  V30 42 1 16 40
M  V30 43 1 19 41
M  V30 44 1 21 42
M  V30 45 1 22 43
M  V30 46 1 22 44
M  V30 47 1 22 45
M  V30 48 1 23 46
M  V30 49 1 23 47
M  V30 50 1 23 48
M  V30 END BOND
M  V30 END CTAB
M  END
>  <Dataset>  (246) 
ChEMBL_Kinases

>  <Ligand_Instance>  (246) 
nan

>  <PDB_ID>  (246) 
nan

>  <Standardized_SMILES>  (246) 
CC[C@H](CO)Nc1nc(Nc2cccnc2)c2ncn(C(C)C)c2n1

>  <Name>  (246) 
nan

>  <Pocket>  (246) 
nan

>  <ATP_Site>  (246) 
nan

>  <Peripheral>  (246) 
nan

>  <Num_H_Atoms_ProtBoundConf>  (246) 
nan

>  <Num_Resolved_Atoms>  (246) 
nan

>  <Num_Not_Resolved_Atoms>  (246) 
nan

$$$$
CHEMBL2314474
     RDKit          3D

  0  0  0  0  0  0  0  0  0  0999 V3000
M  V30 BEGIN CTAB
M  V30 COUNTS 33 35 0 0 0
M  V30 BEGIN ATOM
M  V30 1 C -0.961420 -3.227436 3.725662 0
M  V30 2 C -0.764612 -3.241089 2.241929 0
M  V30 3 C 0.054985 -4.472708 1.893724 0
M  V30 4 N -0.189567 -2.054219 1.713683 0
M  V30 5 C -0.084658 -0.884753 2.367992 0
M  V30 6 N 0.492753 0.032939 1.577838 0
M  V30 7 C 0.787978 -0.478879 0.388884 0
M  V30 8 C 1.365672 -0.093089 -0.833296 0
M  V30 9 N 1.749421 1.272441 -0.735405 0
M  V30 10 C 0.690180 2.201990 -0.950130 0
M  V30 11 C -0.570429 1.885212 -1.394083 0
M  V30 12 C -1.490717 2.872890 -1.536397 0
M  V30 13 C -1.278920 4.231411 -1.267820 0
M  V30 14 N -0.019771 4.535222 -0.827315 0
M  V30 15 C 0.894357 3.561139 -0.684626 0
M  V30 16 N 1.473559 -0.995286 -1.843186 0
M  V30 17 C 1.017549 -2.270731 -1.655095 0
M  V30 18 Cl 1.196276 -3.361571 -2.984175 0
M  V30 19 N 0.452873 -2.693604 -0.498707 0
M  V30 20 C 0.344079 -1.807148 0.501725 0
M  V30 21 H -0.145066 -3.792208 4.257786 0
M  V30 22 H -1.930541 -3.687944 4.050815 0
M  V30 23 H -1.012394 -2.188058 4.094978 0
M  V30 24 H -1.791473 -3.450900 1.809435 0
M  V30 25 H -0.384948 -5.378505 2.371310 0
M  V30 26 H 1.105555 -4.396323 2.242756 0
M  V30 27 H -0.021102 -4.660059 0.803230 0
M  V30 28 H -0.333794 -0.491156 3.339275 0
M  V30 29 H 2.700261 1.644964 -0.532137 0
M  V30 30 H -0.776841 0.850876 -1.614307 0
M  V30 31 H -2.494962 2.614475 -1.887613 0
M  V30 32 H -2.005378 5.019576 -1.379473 0
M  V30 33 H 1.872072 3.920460 -0.322149 0
M  V30 END ATOM
M  V30 BEGIN BOND
M  V30 1 1 1 2
M  V30 2 1 2 3
M  V30 3 1 2 4
M  V30 4 1 4 5
M  V30 5 2 5 6
M  V30 6 1 6 7
M  V30 7 2 7 8
M  V30 8 1 8 9
M  V30 9 1 9 10
M  V30 10 2 10 11
M  V30 11 1 11 12
M  V30 12 2 12 13
M  V30 13 1 13 14
M  V30 14 2 14 15
M  V30 15 1 8 16
M  V30 16 2 16 17
M  V30 17 1 17 18
M  V30 18 1 17 19
M  V30 19 2 19 20
M  V30 20 1 20 4
M  V30 21 1 20 7
M  V30 22 1 15 10
M  V30 23 1 1 21
M  V30 24 1 1 22
M  V30 25 1 1 23
M  V30 26 1 2 24
M  V30 27 1 3 25
M  V30 28 1 3 26
M  V30 29 1 3 27
M  V30 30 1 5 28
M  V30 31 1 9 29
M  V30 32 1 11 30
M  V30 33 1 12 31
M  V30 34 1 13 32
M  V30 35 1 15 33
M  V30 END BOND
M  V30 END CTAB
M  END
>  <Dataset>  (247) 
ChEMBL_Kinases

>  <Ligand_Instance>  (247) 
nan

>  <PDB_ID>  (247) 
nan

>  <Standardized_SMILES>  (247) 
CC(C)n1cnc2c(Nc3cccnc3)nc(Cl)nc21

>  <Name>  (247) 
nan

>  <Pocket>  (247) 
nan

>  <ATP_Site>  (247) 
nan

>  <Peripheral>  (247) 
nan

>  <Num_H_Atoms_ProtBoundConf>  (247) 
nan

>  <Num_Resolved_Atoms>  (247) 
nan

>  <Num_Not_Resolved_Atoms>  (247) 
nan

$$$$
CHEMBL2314475
     RDKit          3D

  0  0  0  0  0  0  0  0  0  0999 V3000
M  V30 BEGIN CTAB
M  V30 COUNTS 51 53 0 0 0
M  V30 BEGIN ATOM
M  V30 1 C 1.665729 0.176455 3.413314 0
M  V30 2 C 0.199281 0.026406 3.070060 0
M  V30 3 C -0.629207 1.014867 3.851231 0
M  V30 4 C -0.234212 -1.382591 3.234177 0 CFG=1
M  V30 5 C -1.687529 -1.651781 2.934425 0
M  V30 6 O -1.906857 -3.004584 3.294143 0
M  V30 7 N 0.619228 -2.282434 2.444264 0
M  V30 8 C 0.611186 -1.921295 1.046494 0
M  V30 9 N 1.609240 -1.151098 0.564182 0
M  V30 10 C 1.595153 -0.795621 -0.736241 0
M  V30 11 N 2.729380 0.002381 -1.064190 0
M  V30 12 C 2.713923 1.349842 -0.567329 0
M  V30 13 C 3.754546 2.236955 -0.806837 0
M  V30 14 C 3.808124 3.535992 -0.344502 0
M  V30 15 C 2.726635 3.944240 0.407270 0
M  V30 16 C 1.683613 3.078264 0.655012 0
M  V30 17 N 1.698963 1.830194 0.174444 0
M  V30 18 C 0.555054 -1.236998 -1.518084 0
M  V30 19 N 0.386540 -0.985341 -2.809258 0
M  V30 20 C -0.750344 -1.605266 -3.181868 0
M  V30 21 N -1.271948 -2.241018 -2.090314 0
M  V30 22 C -2.475449 -3.040027 -1.963316 0
M  V30 23 C -3.662065 -2.232149 -1.480982 0
M  V30 24 C -2.319291 -4.190273 -1.005261 0
M  V30 25 C -0.462898 -2.023232 -1.024633 0
M  V30 26 N -0.416024 -2.361256 0.284798 0
M  V30 27 H 2.187782 0.895925 2.759748 0
M  V30 28 H 2.143964 -0.811961 3.262385 0
M  V30 29 H 1.794798 0.451753 4.495449 0
M  V30 30 H 0.098596 0.338253 1.989728 0
M  V30 31 H -0.328724 1.033924 4.918066 0
M  V30 32 H -0.386478 2.049021 3.458110 0
M  V30 33 H -1.706791 0.909321 3.698109 0
M  V30 34 H -0.073423 -1.693202 4.308755 0
M  V30 35 H -2.280456 -1.047129 3.650853 0
M  V30 36 H -1.971695 -1.563481 1.889528 0
M  V30 37 H -2.581037 -3.084784 4.005070 0
M  V30 38 H 1.250263 -3.125050 2.593057 0
M  V30 39 H 3.567330 -0.273650 -1.623333 0
M  V30 40 H 4.602892 1.909093 -1.402314 0
M  V30 41 H 4.645308 4.190247 -0.559806 0
M  V30 42 H 2.706842 4.963603 0.803739 0
M  V30 43 H 0.820395 3.381550 1.246009 0
M  V30 44 H -1.195859 -1.618653 -4.153591 0
M  V30 45 H -2.716352 -3.510456 -2.958248 0
M  V30 46 H -4.270186 -2.789342 -0.745397 0
M  V30 47 H -3.276358 -1.330936 -0.974325 0
M  V30 48 H -4.233879 -1.945159 -2.391329 0
M  V30 49 H -1.564139 -4.922274 -1.342584 0
M  V30 50 H -2.221254 -3.881233 0.056319 0
M  V30 51 H -3.304604 -4.742715 -1.040340 0
M  V30 END ATOM
M  V30 BEGIN BOND
M  V30 1 1 1 2
M  V30 2 1 2 3
M  V30 3 1 2 4
M  V30 4 1 4 5
M  V30 5 1 5 6
M  V30 6 1 4 7
M  V30 7 1 7 8
M  V30 8 2 8 9
M  V30 9 1 9 10
M  V30 10 1 10 11
M  V30 11 1 11 12
M  V30 12 2 12 13
M  V30 13 1 13 14
M  V30 14 2 14 15
M  V30 15 1 15 16
M  V30 16 2 16 17
M  V30 17 2 10 18
M  V30 18 1 18 19
M  V30 19 2 19 20
M  V30 20 1 20 21
M  V30 21 1 21 22
M  V30 22 1 22 23
M  V30 23 1 22 24
M  V30 24 1 21 25
M  V30 25 2 25 26
M  V30 26 1 26 8
M  V30 27 1 17 12
M  V30 28 1 25 18
M  V30 29 1 1 27
M  V30 30 1 1 28
M  V30 31 1 1 29
M  V30 32 1 2 30
M  V30 33 1 3 31
M  V30 34 1 3 32
M  V30 35 1 3 33
M  V30 36 1 4 34 CFG=1
M  V30 37 1 5 35
M  V30 38 1 5 36
M  V30 39 1 6 37
M  V30 40 1 7 38
M  V30 41 1 11 39
M  V30 42 1 13 40
M  V30 43 1 14 41
M  V30 44 1 15 42
M  V30 45 1 16 43
M  V30 46 1 20 44
M  V30 47 1 22 45
M  V30 48 1 23 46
M  V30 49 1 23 47
M  V30 50 1 23 48
M  V30 51 1 24 49
M  V30 52 1 24 50
M  V30 53 1 24 51
M  V30 END BOND
M  V30 END CTAB
M  END
>  <Dataset>  (248) 
ChEMBL_Kinases

>  <Ligand_Instance>  (248) 
nan

>  <PDB_ID>  (248) 
nan

>  <Standardized_SMILES>  (248) 
CC(C)[C@@H](CO)Nc1nc(Nc2ccccn2)c2ncn(C(C)C)c2n1

>  <Name>  (248) 
nan

>  <Pocket>  (248) 
nan

>  <ATP_Site>  (248) 
nan

>  <Peripheral>  (248) 
nan

>  <Num_H_Atoms_ProtBoundConf>  (248) 
nan

>  <Num_Resolved_Atoms>  (248) 
nan

>  <Num_Not_Resolved_Atoms>  (248) 
nan

$$$$
CHEMBL2314476
     RDKit          3D

  0  0  0  0  0  0  0  0  0  0999 V3000
M  V30 BEGIN CTAB
M  V30 COUNTS 51 53 0 0 0
M  V30 BEGIN ATOM
M  V30 1 C 0.284561 -3.913107 3.177745 0
M  V30 2 C 0.736946 -2.634928 2.516011 0
M  V30 3 C 1.100389 -1.590567 3.514850 0
M  V30 4 C 1.776071 -2.859501 1.443424 0 CFG=2
M  V30 5 C 3.016320 -3.517440 1.976602 0
M  V30 6 O 3.679327 -2.790477 2.932559 0
M  V30 7 N 2.032079 -1.589848 0.824503 0
M  V30 8 C 1.095617 -0.800383 0.105636 0
M  V30 9 N 1.460594 0.416555 -0.399761 0
M  V30 10 C 0.583913 1.169876 -1.084089 0
M  V30 11 N 0.991013 2.426943 -1.605111 0
M  V30 12 C 0.829779 3.262775 -0.473229 0
M  V30 13 C 2.044254 3.313074 0.214509 0
M  V30 14 C 2.207814 4.063112 1.384829 0
M  V30 15 C 1.092129 4.768083 1.841913 0
M  V30 16 C -0.094266 4.702324 1.145666 0
M  V30 17 N -0.213469 3.967432 0.020249 0
M  V30 18 C -0.711476 0.747483 -1.303660 0
M  V30 19 N -1.789426 1.273258 -1.942677 0
M  V30 20 C -2.816790 0.412988 -1.849544 0
M  V30 21 N -2.382786 -0.663408 -1.145986 0
M  V30 22 C -3.034198 -1.917458 -0.730618 0
M  V30 23 C -4.436502 -1.998866 -1.227260 0
M  V30 24 C -2.259365 -3.073048 -1.334469 0
M  V30 25 C -1.087739 -0.473543 -0.801430 0
M  V30 26 N -0.169595 -1.180401 -0.125539 0
M  V30 27 H 0.157615 -4.701093 2.425039 0
M  V30 28 H 1.055625 -4.217446 3.934086 0
M  V30 29 H -0.693236 -3.713240 3.651785 0
M  V30 30 H -0.175520 -2.254262 1.969505 0
M  V30 31 H 1.886874 -0.887758 3.138405 0
M  V30 32 H 1.399553 -2.011741 4.482669 0
M  V30 33 H 0.220942 -0.912732 3.720368 0
M  V30 34 H 1.326946 -3.528385 0.685505 0
M  V30 35 H 2.692647 -4.495834 2.392172 0
M  V30 36 H 3.653559 -3.784329 1.102115 0
M  V30 37 H 3.686002 -3.307806 3.776562 0
M  V30 38 H 3.006569 -1.226792 0.922153 0
M  V30 39 H 1.326401 2.749539 -2.527695 0
M  V30 40 H 2.983144 2.816795 -0.028208 0
M  V30 41 H 3.104941 4.146680 1.960693 0
M  V30 42 H 1.149602 5.366762 2.737437 0
M  V30 43 H -0.982588 5.215515 1.441225 0
M  V30 44 H -3.829973 0.423908 -2.200281 0
M  V30 45 H -3.051515 -1.997658 0.381388 0
M  V30 46 H -4.932677 -2.820885 -0.636840 0
M  V30 47 H -4.986452 -1.078339 -0.996090 0
M  V30 48 H -4.512901 -2.299481 -2.292766 0
M  V30 49 H -2.838822 -3.577494 -2.129890 0
M  V30 50 H -1.273950 -2.741834 -1.720287 0
M  V30 51 H -2.060277 -3.809728 -0.539514 0
M  V30 END ATOM
M  V30 BEGIN BOND
M  V30 1 1 1 2
M  V30 2 1 2 3
M  V30 3 1 2 4
M  V30 4 1 4 5
M  V30 5 1 5 6
M  V30 6 1 4 7
M  V30 7 1 7 8
M  V30 8 2 8 9
M  V30 9 1 9 10
M  V30 10 1 10 11
M  V30 11 1 11 12
M  V30 12 2 12 13
M  V30 13 1 13 14
M  V30 14 2 14 15
M  V30 15 1 15 16
M  V30 16 2 16 17
M  V30 17 2 10 18
M  V30 18 1 18 19
M  V30 19 2 19 20
M  V30 20 1 20 21
M  V30 21 1 21 22
M  V30 22 1 22 23
M  V30 23 1 22 24
M  V30 24 1 21 25
M  V30 25 2 25 26
M  V30 26 1 26 8
M  V30 27 1 17 12
M  V30 28 1 25 18
M  V30 29 1 1 27
M  V30 30 1 1 28
M  V30 31 1 1 29
M  V30 32 1 2 30
M  V30 33 1 3 31
M  V30 34 1 3 32
M  V30 35 1 3 33
M  V30 36 1 4 34 CFG=3
M  V30 37 1 5 35
M  V30 38 1 5 36
M  V30 39 1 6 37
M  V30 40 1 7 38
M  V30 41 1 11 39
M  V30 42 1 13 40
M  V30 43 1 14 41
M  V30 44 1 15 42
M  V30 45 1 16 43
M  V30 46 1 20 44
M  V30 47 1 22 45
M  V30 48 1 23 46
M  V30 49 1 23 47
M  V30 50 1 23 48
M  V30 51 1 24 49
M  V30 52 1 24 50
M  V30 53 1 24 51
M  V30 END BOND
M  V30 END CTAB
M  END
>  <Dataset>  (249) 
ChEMBL_Kinases

>  <Ligand_Instance>  (249) 
nan

>  <PDB_ID>  (249) 
nan

>  <Standardized_SMILES>  (249) 
CC(C)[C@H](CO)Nc1nc(Nc2ccccn2)c2ncn(C(C)C)c2n1

>  <Name>  (249) 
nan

>  <Pocket>  (249) 
nan

>  <ATP_Site>  (249) 
nan

>  <Peripheral>  (249) 
nan

>  <Num_H_Atoms_ProtBoundConf>  (249) 
nan

>  <Num_Resolved_Atoms>  (249) 
nan

>  <Num_Not_Resolved_Atoms>  (249) 
nan

$$$$
CHEMBL2314468
     RDKit          3D

  0  0  0  0  0  0  0  0  0  0999 V3000
M  V30 BEGIN CTAB
M  V30 COUNTS 44 46 0 0 0
M  V30 BEGIN ATOM
M  V30 1 C -1.346432 -3.766671 1.358769 0
M  V30 2 C -1.657471 -2.798077 0.252377 0
M  V30 3 C -3.163752 -2.596708 0.231534 0
M  V30 4 N -0.990750 -1.543200 0.332000 0
M  V30 5 C 0.192811 -1.171309 -0.229857 0
M  V30 6 C 1.001987 -2.098852 -1.040726 0
M  V30 7 C 2.295181 -2.317886 -0.231191 0
M  V30 8 O 3.087236 -3.184283 -0.950534 0
M  V30 9 C 1.434901 -1.586864 -2.372631 0
M  V30 10 O 2.195787 -2.598876 -3.004290 0
M  V30 11 N 0.441771 0.107311 0.099676 0
M  V30 12 C -0.545871 0.596662 0.867413 0
M  V30 13 C -0.710462 1.857672 1.441624 0
M  V30 14 N 0.304536 2.859418 1.210983 0
M  V30 15 C 1.488028 2.960337 1.980544 0
M  V30 16 C 2.382988 4.002712 1.810446 0
M  V30 17 C 3.510750 3.988202 2.616698 0
M  V30 18 C 3.641252 2.954252 3.503426 0
M  V30 19 N 2.755242 1.964001 3.640063 0
M  V30 20 C 1.641802 1.928609 2.882165 0
M  V30 21 N -1.842183 1.991576 2.168880 0
M  V30 22 C -2.718897 0.951589 2.300619 0
M  V30 23 N -2.533836 -0.249000 1.736601 0
M  V30 24 C -1.431667 -0.460832 0.997558 0
M  V30 25 H -1.485009 -3.287535 2.327331 0
M  V30 26 H -0.362209 -4.268183 1.206347 0
M  V30 27 H -2.080420 -4.599129 1.307233 0
M  V30 28 H -1.424378 -3.225458 -0.755866 0
M  V30 29 H -3.429023 -1.645647 -0.305628 0
M  V30 30 H -3.604664 -2.483462 1.235288 0
M  V30 31 H -3.671282 -3.400451 -0.334961 0
M  V30 32 H 0.575035 -3.095858 -1.135429 0
M  V30 33 H 2.071805 -2.657231 0.803151 0
M  V30 34 H 2.772842 -1.318817 -0.184083 0
M  V30 35 H 4.065285 -3.119538 -0.715869 0
M  V30 36 H 2.032626 -0.662618 -2.329080 0
M  V30 37 H 0.597319 -1.405144 -3.074316 0
M  V30 38 H 1.766304 -3.487078 -2.868165 0
M  V30 39 H -0.293173 3.230280 0.408129 0
M  V30 40 H 2.211534 4.780432 1.091657 0
M  V30 41 H 4.264689 4.788460 2.533071 0
M  V30 42 H 4.549335 3.004637 4.105285 0
M  V30 43 H 0.963313 1.106104 3.034956 0
M  V30 44 H -3.554995 1.285636 2.926389 0
M  V30 END ATOM
M  V30 BEGIN BOND
M  V30 1 1 1 2
M  V30 2 1 2 3
M  V30 3 1 2 4
M  V30 4 1 4 5
M  V30 5 1 5 6
M  V30 6 1 6 7
M  V30 7 1 7 8
M  V30 8 1 6 9
M  V30 9 1 9 10
M  V30 10 2 5 11
M  V30 11 1 11 12
M  V30 12 2 12 13
M  V30 13 1 13 14
M  V30 14 1 14 15
M  V30 15 2 15 16
M  V30 16 1 16 17
M  V30 17 2 17 18
M  V30 18 1 18 19
M  V30 19 2 19 20
M  V30 20 1 13 21
M  V30 21 2 21 22
M  V30 22 1 22 23
M  V30 23 2 23 24
M  V30 24 1 24 4
M  V30 25 1 24 12
M  V30 26 1 20 15
M  V30 27 1 1 25
M  V30 28 1 1 26
M  V30 29 1 1 27
M  V30 30 1 2 28
M  V30 31 1 3 29
M  V30 32 1 3 30
M  V30 33 1 3 31
M  V30 34 1 6 32
M  V30 35 1 7 33
M  V30 36 1 7 34
M  V30 37 1 8 35
M  V30 38 1 9 36
M  V30 39 1 9 37
M  V30 40 1 10 38
M  V30 41 1 14 39
M  V30 42 1 16 40
M  V30 43 1 17 41
M  V30 44 1 18 42
M  V30 45 1 20 43
M  V30 46 1 22 44
M  V30 END BOND
M  V30 END CTAB
M  END
>  <Dataset>  (250) 
ChEMBL_Kinases

>  <Ligand_Instance>  (250) 
nan

>  <PDB_ID>  (250) 
nan

>  <Standardized_SMILES>  (250) 
CC(C)n1c(C(CO)CO)nc2c(Nc3cccnc3)ncnc21

>  <Name>  (250) 
nan

>  <Pocket>  (250) 
nan

>  <ATP_Site>  (250) 
nan

>  <Peripheral>  (250) 
nan

>  <Num_H_Atoms_ProtBoundConf>  (250) 
nan

>  <Num_Resolved_Atoms>  (250) 
nan

>  <Num_Not_Resolved_Atoms>  (250) 
nan

$$$$
CHEMBL2316494
     RDKit          3D

  0  0  0  0  0  0  0  0  0  0999 V3000
M  V30 BEGIN CTAB
M  V30 COUNTS 74 79 0 0 0
M  V30 BEGIN ATOM
M  V30 1 C -2.397590 -2.956356 4.977812 0
M  V30 2 C -3.110083 -1.681119 5.246364 0
M  V30 3 C -3.069350 -1.160257 6.505446 0
M  V30 4 C -3.718786 0.018803 6.800369 0
M  V30 5 F -3.734504 0.613414 8.021145 0
M  V30 6 C -4.417313 0.688484 5.832208 0
M  V30 7 N -5.144152 1.924206 5.980700 0
M  V30 8 C -4.228470 3.000685 5.695260 0
M  V30 9 O -3.085989 2.513506 5.408323 0
M  V30 10 C -4.626516 4.414142 5.748087 0
M  V30 11 C -5.814791 5.091500 6.042272 0
M  V30 12 C -5.479998 6.426995 5.899958 0
M  V30 13 O -4.231946 6.537675 5.558919 0
M  V30 14 C -3.661405 5.350881 5.451290 0
M  V30 15 C -4.453560 0.154870 4.561153 0
M  V30 16 C -3.812095 -1.023787 4.239504 0
M  V30 17 N -3.873453 -1.543102 2.921769 0
M  V30 18 C -2.906762 -1.839364 1.925894 0
M  V30 19 C -3.309845 -2.400128 0.732155 0
M  V30 20 C -2.298758 -2.647718 -0.173763 0
M  V30 21 C -0.972314 -2.374266 0.048446 0
M  V30 22 C -0.584982 -1.804972 1.267619 0
M  V30 23 C -1.583358 -1.550888 2.184764 0
M  V30 24 C 0.782795 -1.436459 1.698003 0
M  V30 25 C 1.820257 -2.469271 1.356866 0
M  V30 26 C 2.195674 -2.461908 -0.086319 0
M  V30 27 C 3.556536 -2.313937 -0.333919 0
M  V30 28 C 4.023756 -2.293702 -1.648960 0
M  V30 29 C 3.101771 -2.423796 -2.685253 0
M  V30 30 O 3.564292 -2.404439 -4.006819 0
M  V30 31 C 4.923180 -2.259375 -4.322389 0
M  V30 32 C 5.178855 -2.267895 -5.809933 0
M  V30 33 N 4.536278 -1.241486 -6.544346 0
M  V30 34 C 4.746136 -1.219127 -7.947998 0
M  V30 35 C 3.700505 -0.450218 -8.713340 0
M  V30 36 O 3.456300 0.707564 -7.973530 0
M  V30 37 C 2.677291 0.329032 -6.884929 0
M  V30 38 C 3.302840 -0.756178 -6.066883 0
M  V30 39 C 1.744809 -2.572089 -2.473071 0
M  V30 40 C 1.320681 -2.587139 -1.146308 0
M  V30 41 C -0.135305 -2.752010 -1.110816 0
M  V30 42 O -0.715379 -3.240915 -2.116477 0
M  V30 43 H -1.331907 -2.812661 4.782193 0
M  V30 44 H -2.578621 -3.637758 5.853847 0
M  V30 45 H -2.935982 -3.434880 4.132660 0
M  V30 46 H -2.526415 -1.652901 7.318704 0
M  V30 47 H -6.146250 2.166839 6.239714 0
M  V30 48 H -6.679131 4.515055 6.297814 0
M  V30 49 H -6.237764 7.181504 6.075115 0
M  V30 50 H -2.617600 5.291615 5.171782 0
M  V30 51 H -4.992552 0.637729 3.743602 0
M  V30 52 H -4.893620 -1.712534 2.738171 0
M  V30 53 H -4.336917 -2.609552 0.565743 0
M  V30 54 H -2.546182 -3.088447 -1.133369 0
M  V30 55 H -1.201284 -1.112161 3.096060 0
M  V30 56 H 1.110357 -0.473819 1.249276 0
M  V30 57 H 0.780239 -1.293046 2.795012 0
M  V30 58 H 2.705732 -2.338249 2.008801 0
M  V30 59 H 1.387224 -3.466453 1.577504 0
M  V30 60 H 4.223256 -2.217714 0.500388 0
M  V30 61 H 5.082704 -2.178579 -1.849045 0
M  V30 62 H 5.502842 -3.066583 -3.837905 0
M  V30 63 H 5.342100 -1.286227 -3.939245 0
M  V30 64 H 4.812251 -3.272230 -6.170941 0
M  V30 65 H 6.260662 -2.247236 -6.047745 0
M  V30 66 H 4.837020 -2.233522 -8.397090 0
M  V30 67 H 5.721737 -0.710313 -8.141109 0
M  V30 68 H 4.171431 -0.097807 -9.669131 0
M  V30 69 H 2.809046 -1.017367 -8.972617 0
M  V30 70 H 2.481836 1.262604 -6.313134 0
M  V30 71 H 1.689745 0.014447 -7.279776 0
M  V30 72 H 3.474222 -0.316029 -5.048495 0
M  V30 73 H 2.583157 -1.574793 -5.957141 0
M  V30 74 H 1.019625 -2.673990 -3.257453 0
M  V30 END ATOM
M  V30 BEGIN BOND
M  V30 1 1 1 2
M  V30 2 2 2 3
M  V30 3 1 3 4
M  V30 4 1 4 5
M  V30 5 2 4 6
M  V30 6 1 6 7
M  V30 7 1 7 8
M  V30 8 2 8 9
M  V30 9 1 8 10
M  V30 10 1 10 11
M  V30 11 2 11 12
M  V30 12 1 12 13
M  V30 13 1 13 14
M  V30 14 1 6 15
M  V30 15 2 15 16
M  V30 16 1 16 17
M  V30 17 1 17 18
M  V30 18 2 18 19
M  V30 19 1 19 20
M  V30 20 2 20 21
M  V30 21 1 21 22
M  V30 22 2 22 23
M  V30 23 1 22 24
M  V30 24 1 24 25
M  V30 25 1 25 26
M  V30 26 2 26 27
M  V30 27 1 27 28
M  V30 28 2 28 29
M  V30 29 1 29 30
M  V30 30 1 30 31
M  V30 31 1 31 32
M  V30 32 1 32 33
M  V30 33 1 33 34
M  V30 34 1 34 35
M  V30 35 1 35 36
M  V30 36 1 36 37
M  V30 37 1 37 38
M  V30 38 1 29 39
M  V30 39 2 39 40
M  V30 40 1 40 41
M  V30 41 2 41 42
M  V30 42 1 16 2
M  V30 43 1 23 18
M  V30 44 1 40 26
M  V30 45 2 14 10
M  V30 46 1 41 21
M  V30 47 1 38 33
M  V30 48 1 1 43
M  V30 49 1 1 44
M  V30 50 1 1 45
M  V30 51 1 3 46
M  V30 52 1 7 47
M  V30 53 1 11 48
M  V30 54 1 12 49
M  V30 55 1 14 50
M  V30 56 1 15 51
M  V30 57 1 17 52
M  V30 58 1 19 53
M  V30 59 1 20 54
M  V30 60 1 23 55
M  V30 61 1 24 56
M  V30 62 1 24 57
M  V30 63 1 25 58
M  V30 64 1 25 59
M  V30 65 1 27 60
M  V30 66 1 28 61
M  V30 67 1 31 62
M  V30 68 1 31 63
M  V30 69 1 32 64
M  V30 70 1 32 65
M  V30 71 1 34 66
M  V30 72 1 34 67
M  V30 73 1 35 68
M  V30 74 1 35 69
M  V30 75 1 37 70
M  V30 76 1 37 71
M  V30 77 1 38 72
M  V30 78 1 38 73
M  V30 79 1 39 74
M  V30 END BOND
M  V30 END CTAB
M  END
>  <Dataset>  (251) 
ChEMBL_Kinases

>  <Ligand_Instance>  (251) 
nan

>  <PDB_ID>  (251) 
nan

>  <Standardized_SMILES>  (251) 
Cc1cc(F)c(NC(=O)c2ccoc2)cc1Nc1ccc2c(c1)CCc1ccc(OCCN3CCOCC3)cc1C2=O

>  <Name>  (251) 
nan

>  <Pocket>  (251) 
nan

>  <ATP_Site>  (251) 
nan

>  <Peripheral>  (251) 
nan

>  <Num_H_Atoms_ProtBoundConf>  (251) 
nan

>  <Num_Resolved_Atoms>  (251) 
nan

>  <Num_Not_Resolved_Atoms>  (251) 
nan

$$$$
CHEMBL2316493
     RDKit          3D

  0  0  0  0  0  0  0  0  0  0999 V3000
M  V30 BEGIN CTAB
M  V30 COUNTS 63 67 0 0 0
M  V30 BEGIN ATOM
M  V30 1 O 3.654074 -3.154448 1.295915 0
M  V30 2 C 4.158521 -2.891363 2.415052 0
M  V30 3 N 5.004626 -1.792865 2.649621 0
M  V30 4 C 5.421225 -0.827721 1.694555 0
M  V30 5 C 4.592684 0.234362 1.487332 0
M  V30 6 C 4.836815 1.270843 0.608705 0
M  V30 7 N 3.958146 2.377349 0.332273 0
M  V30 8 C 2.538322 2.252802 0.302211 0
M  V30 9 C 1.600579 3.257096 0.419773 0
M  V30 10 C 0.245663 3.021371 0.352341 0
M  V30 11 C -0.188789 1.722282 0.156062 0
M  V30 12 C 0.698227 0.645606 0.026566 0
M  V30 13 C 2.054669 0.990017 0.109880 0
M  V30 14 C 0.368735 -0.783648 -0.173217 0
M  V30 15 C -0.577554 -1.021068 -1.302008 0
M  V30 16 C -1.995837 -0.652530 -0.944330 0
M  V30 17 C -2.809844 -1.689612 -1.335060 0
M  V30 18 C -4.131464 -1.459714 -1.055856 0
M  V30 19 C -4.745630 -0.375468 -0.460400 0
M  V30 20 O -5.965298 -0.019018 -0.133878 0
M  V30 21 C -7.262780 -0.341817 -0.139363 0
M  V30 22 C -7.969834 -0.474437 -1.448052 0 CFG=2
M  V30 23 O -9.319395 -0.859312 -1.233992 0
M  V30 24 C -7.322758 -1.376588 -2.445515 0
M  V30 25 O -8.120262 -1.305312 -3.610721 0
M  V30 26 C -3.811763 0.617857 -0.105484 0
M  V30 27 C -2.435063 0.499453 -0.338459 0
M  V30 28 C -1.648593 1.642674 0.103982 0
M  V30 29 O -2.313428 2.640926 0.470936 0
M  V30 30 C 6.031232 1.221195 -0.119431 0
M  V30 31 C 6.903527 0.160907 0.060113 0
M  V30 32 C 6.597185 -0.849624 0.956672 0
M  V30 33 F 7.413716 -1.905423 1.178391 0
M  V30 34 C 3.851548 -3.756475 3.508075 0
M  V30 35 C 3.066046 -4.862570 3.577409 0
M  V30 36 C 2.902654 -5.545927 4.736431 0
M  V30 37 C 3.574573 -5.058770 5.830551 0
M  V30 38 S 4.481476 -3.567496 5.199382 0
M  V30 39 H 5.464077 -1.505952 3.545924 0
M  V30 40 H 3.652596 0.299274 2.058976 0
M  V30 41 H 4.287598 3.332492 0.140616 0
M  V30 42 H 2.020294 4.256626 0.569641 0
M  V30 43 H -0.467675 3.818786 0.446637 0
M  V30 44 H 2.644771 0.076612 -0.023029 0
M  V30 45 H -0.087059 -1.139822 0.772973 0
M  V30 46 H 1.297298 -1.343595 -0.384124 0
M  V30 47 H -0.513441 -2.063761 -1.604466 0
M  V30 48 H -0.310297 -0.338136 -2.137976 0
M  V30 49 H -2.525978 -2.612560 -1.810401 0
M  V30 50 H -4.863419 -2.231736 -1.310680 0
M  V30 51 H -7.835904 0.492899 0.406280 0
M  V30 52 H -7.523853 -1.236650 0.517394 0
M  V30 53 H -8.035399 0.537093 -1.914676 0
M  V30 54 H -9.715557 -1.025991 -2.127070 0
M  V30 55 H -7.274544 -2.424024 -2.128802 0
M  V30 56 H -6.304152 -0.958576 -2.725491 0
M  V30 57 H -7.532898 -1.442374 -4.397992 0
M  V30 58 H -4.045847 1.573690 0.375707 0
M  V30 59 H 6.318531 1.980031 -0.834455 0
M  V30 60 H 7.854328 0.030938 -0.449561 0
M  V30 61 H 2.556406 -5.192537 2.660391 0
M  V30 62 H 2.304417 -6.430846 4.896821 0
M  V30 63 H 3.644290 -5.367983 6.851191 0
M  V30 END ATOM
M  V30 BEGIN BOND
M  V30 1 2 1 2
M  V30 2 1 2 3
M  V30 3 1 3 4
M  V30 4 2 4 5
M  V30 5 1 5 6
M  V30 6 1 6 7
M  V30 7 1 7 8
M  V30 8 2 8 9
M  V30 9 1 9 10
M  V30 10 2 10 11
M  V30 11 1 11 12
M  V30 12 2 12 13
M  V30 13 1 12 14
M  V30 14 1 14 15
M  V30 15 1 15 16
M  V30 16 2 16 17
M  V30 17 1 17 18
M  V30 18 2 18 19
M  V30 19 1 19 20
M  V30 20 1 20 21
M  V30 21 1 21 22
M  V30 22 1 22 23
M  V30 23 1 22 24
M  V30 24 1 24 25
M  V30 25 1 19 26
M  V30 26 2 26 27
M  V30 27 1 27 28
M  V30 28 2 28 29
M  V30 29 2 6 30
M  V30 30 1 30 31
M  V30 31 2 31 32
M  V30 32 1 32 33
M  V30 33 1 2 34
M  V30 34 2 34 35
M  V30 35 1 35 36
M  V30 36 2 36 37
M  V30 37 1 37 38
M  V30 38 1 32 4
M  V30 39 1 38 34
M  V30 40 1 13 8
M  V30 41 1 27 16
M  V30 42 1 28 11
M  V30 43 1 3 39
M  V30 44 1 5 40
M  V30 45 1 7 41
M  V30 46 1 9 42
M  V30 47 1 10 43
M  V30 48 1 13 44
M  V30 49 1 14 45
M  V30 50 1 14 46
M  V30 51 1 15 47
M  V30 52 1 15 48
M  V30 53 1 17 49
M  V30 54 1 18 50
M  V30 55 1 21 51
M  V30 56 1 21 52
M  V30 57 1 22 53 CFG=3
M  V30 58 1 23 54
M  V30 59 1 24 55
M  V30 60 1 24 56
M  V30 61 1 25 57
M  V30 62 1 26 58
M  V30 63 1 30 59
M  V30 64 1 31 60
M  V30 65 1 35 61
M  V30 66 1 36 62
M  V30 67 1 37 63
M  V30 END BOND
M  V30 END CTAB
M  END
>  <Dataset>  (252) 
ChEMBL_Kinases

>  <Ligand_Instance>  (252) 
nan

>  <PDB_ID>  (252) 
nan

>  <Standardized_SMILES>  (252) 
O=C(Nc1cc(Nc2ccc3c(c2)CCc2ccc(OC[C@H](O)CO)cc2C3=O)ccc1F)c1cccs1

>  <Name>  (252) 
nan

>  <Pocket>  (252) 
nan

>  <ATP_Site>  (252) 
nan

>  <Peripheral>  (252) 
nan

>  <Num_H_Atoms_ProtBoundConf>  (252) 
nan

>  <Num_Resolved_Atoms>  (252) 
nan

>  <Num_Not_Resolved_Atoms>  (252) 
nan

$$$$
CHEMBL2316492
     RDKit          3D

  0  0  0  0  0  0  0  0  0  0999 V3000
M  V30 BEGIN CTAB
M  V30 COUNTS 70 75 0 0 0
M  V30 BEGIN ATOM
M  V30 1 C 9.325608 -3.647004 1.799488 0
M  V30 2 C 8.150374 -3.098064 1.021084 0
M  V30 3 C 6.918586 -3.198884 1.923862 0
M  V30 4 O 8.318613 -1.775962 0.655747 0
M  V30 5 C 8.777597 -1.798457 -0.661167 0
M  V30 6 C 8.095938 -3.023196 -1.209564 0 CFG=2
M  V30 7 C 6.730577 -2.704678 -1.781713 0
M  V30 8 O 5.917096 -2.032061 -0.840048 0
M  V30 9 C 4.635708 -1.681559 -1.238628 0
M  V30 10 C 4.095896 -1.939057 -2.481356 0
M  V30 11 C 2.810969 -1.565529 -2.822887 0
M  V30 12 C 2.015320 -0.908428 -1.904950 0
M  V30 13 C 2.549546 -0.640762 -0.641157 0
M  V30 14 C 3.853277 -1.026757 -0.313175 0
M  V30 15 C 1.938018 0.034814 0.517027 0
M  V30 16 O 2.701167 0.513805 1.400303 0
M  V30 17 C 0.491219 0.156294 0.656996 0
M  V30 18 C 0.183915 0.849884 1.804037 0
M  V30 19 C -1.122850 1.093090 2.158015 0
M  V30 20 C -2.206600 0.666494 1.401514 0
M  V30 21 N -3.529199 0.949143 1.794366 0
M  V30 22 C -4.759668 0.312699 1.498493 0
M  V30 23 C -4.897711 -0.988209 1.062126 0
M  V30 24 C -6.085902 -1.604363 0.760706 0
M  V30 25 C -7.246946 -0.874841 0.901504 0
M  V30 26 F -8.435298 -1.470609 0.606732 0
M  V30 27 C -7.155074 0.430092 1.336176 0
M  V30 28 N -8.384681 1.127491 1.465465 0
M  V30 29 C -9.158629 1.919401 0.598153 0
M  V30 30 O -8.766689 2.124211 -0.590471 0
M  V30 31 C -10.379000 2.442322 1.181030 0
M  V30 32 C -11.268971 3.226326 0.517838 0
M  V30 33 C -12.397930 3.675771 1.145474 0
M  V30 34 C -12.559591 3.268525 2.505703 0
M  V30 35 S -11.014143 2.215933 2.825379 0
M  V30 36 C -5.937382 0.990102 1.621267 0
M  V30 37 C -1.843896 -0.016566 0.272999 0
M  V30 38 C -0.552992 -0.287549 -0.127756 0
M  V30 39 C -0.432592 -1.045757 -1.393166 0
M  V30 40 C 0.649395 -0.525408 -2.305201 0
M  V30 41 O 7.873660 -3.838343 -0.103344 0
M  V30 42 H 10.205250 -3.875066 1.175508 0
M  V30 43 H 9.598998 -2.939058 2.585122 0
M  V30 44 H 8.963850 -4.587453 2.286114 0
M  V30 45 H 6.085293 -3.732005 1.438594 0
M  V30 46 H 7.160477 -3.729090 2.885133 0
M  V30 47 H 6.554332 -2.194261 2.234191 0
M  V30 48 H 8.504795 -0.878981 -1.205383 0
M  V30 49 H 9.870786 -1.919191 -0.675783 0
M  V30 50 H 8.690870 -3.503783 -1.990680 0
M  V30 51 H 6.279622 -3.649004 -2.131438 0
M  V30 52 H 6.898986 -2.024796 -2.625425 0
M  V30 53 H 4.710597 -2.452563 -3.206006 0
M  V30 54 H 2.365293 -1.748673 -3.770322 0
M  V30 55 H 4.232126 -0.808805 0.661167 0
M  V30 56 H 0.982431 1.206871 2.432089 0
M  V30 57 H -1.286349 1.646490 3.075898 0
M  V30 58 H -3.604586 1.785503 2.419342 0
M  V30 59 H -4.032391 -1.616751 0.942316 0
M  V30 60 H -6.142068 -2.632213 0.419522 0
M  V30 61 H -8.628318 0.906254 2.458951 0
M  V30 62 H -11.142899 3.539013 -0.531325 0
M  V30 63 H -13.196242 4.296834 0.773339 0
M  V30 64 H -13.405526 3.520070 3.205007 0
M  V30 65 H -5.972741 2.015884 1.952800 0
M  V30 66 H -2.578949 -0.392277 -0.408026 0
M  V30 67 H -0.339177 -2.125825 -1.274268 0
M  V30 68 H -1.396321 -0.881391 -1.950541 0
M  V30 69 H 0.588078 0.598369 -2.221543 0
M  V30 70 H 0.418817 -0.762784 -3.352744 0
M  V30 END ATOM
M  V30 BEGIN BOND
M  V30 1 1 1 2
M  V30 2 1 2 3
M  V30 3 1 2 4
M  V30 4 1 4 5
M  V30 5 1 5 6
M  V30 6 1 6 7
M  V30 7 1 7 8
M  V30 8 1 8 9
M  V30 9 2 9 10
M  V30 10 1 10 11
M  V30 11 2 11 12
M  V30 12 1 12 13
M  V30 13 2 13 14
M  V30 14 1 13 15
M  V30 15 2 15 16
M  V30 16 1 15 17
M  V30 17 2 17 18
M  V30 18 1 18 19
M  V30 19 2 19 20
M  V30 20 1 20 21
M  V30 21 1 21 22
M  V30 22 2 22 23
M  V30 23 1 23 24
M  V30 24 2 24 25
M  V30 25 1 25 26
M  V30 26 1 25 27
M  V30 27 1 27 28
M  V30 28 1 28 29
M  V30 29 2 29 30
M  V30 30 1 29 31
M  V30 31 2 31 32
M  V30 32 1 32 33
M  V30 33 2 33 34
M  V30 34 1 34 35
M  V30 35 2 27 36
M  V30 36 1 20 37
M  V30 37 2 37 38
M  V30 38 1 38 39
M  V30 39 1 39 40
M  V30 40 1 6 41
M  V30 41 1 41 2
M  V30 42 1 14 9
M  V30 43 1 38 17
M  V30 44 1 40 12
M  V30 45 1 36 22
M  V30 46 1 35 31
M  V30 47 1 1 42
M  V30 48 1 1 43
M  V30 49 1 1 44
M  V30 50 1 3 45
M  V30 51 1 3 46
M  V30 52 1 3 47
M  V30 53 1 5 48
M  V30 54 1 5 49
M  V30 55 1 6 50 CFG=3
M  V30 56 1 7 51
M  V30 57 1 7 52
M  V30 58 1 10 53
M  V30 59 1 11 54
M  V30 60 1 14 55
M  V30 61 1 18 56
M  V30 62 1 19 57
M  V30 63 1 21 58
M  V30 64 1 23 59
M  V30 65 1 24 60
M  V30 66 1 28 61
M  V30 67 1 32 62
M  V30 68 1 33 63
M  V30 69 1 34 64
M  V30 70 1 36 65
M  V30 71 1 37 66
M  V30 72 1 39 67
M  V30 73 1 39 68
M  V30 74 1 40 69
M  V30 75 1 40 70
M  V30 END BOND
M  V30 END CTAB
M  END
>  <Dataset>  (253) 
ChEMBL_Kinases

>  <Ligand_Instance>  (253) 
nan

>  <PDB_ID>  (253) 
nan

>  <Standardized_SMILES>  (253) 
CC1(C)OC[C@H](COc2ccc3c(c2)C(=O)c2ccc(Nc4ccc(F)c(NC(=O)c5cccs5)c4)cc2CC3)O1

>  <Name>  (253) 
nan

>  <Pocket>  (253) 
nan

>  <ATP_Site>  (253) 
nan

>  <Peripheral>  (253) 
nan

>  <Num_H_Atoms_ProtBoundConf>  (253) 
nan

>  <Num_Resolved_Atoms>  (253) 
nan

>  <Num_Not_Resolved_Atoms>  (253) 
nan

$$$$
CHEMBL2316491
     RDKit          3D

  0  0  0  0  0  0  0  0  0  0999 V3000
M  V30 BEGIN CTAB
M  V30 COUNTS 71 76 0 0 0
M  V30 BEGIN ATOM
M  V30 1 O 2.966655 2.607954 3.203530 0
M  V30 2 C 3.837628 1.697775 3.159077 0
M  V30 3 N 4.839851 1.775202 2.182164 0
M  V30 4 C 4.834804 2.890078 1.266700 0
M  V30 5 C 4.079591 2.671334 0.132556 0
M  V30 6 C 3.916101 3.589747 -0.904790 0
M  V30 7 N 3.109405 3.338537 -2.044966 0
M  V30 8 C 1.973176 2.489348 -2.148801 0
M  V30 9 C 1.520493 1.862230 -3.282626 0
M  V30 10 C 0.378616 1.072032 -3.245894 0
M  V30 11 C -0.323316 0.906038 -2.053235 0
M  V30 12 C 0.118147 1.536052 -0.883311 0
M  V30 13 C 1.275405 2.324128 -0.968401 0
M  V30 14 C -0.544952 1.424237 0.405511 0
M  V30 15 C -2.032635 1.570912 0.419728 0
M  V30 16 C -2.735467 0.336751 -0.021015 0
M  V30 17 C -3.701866 -0.172053 0.817894 0
M  V30 18 C -4.377843 -1.336263 0.427707 0
M  V30 19 C -4.101671 -1.993309 -0.781397 0
M  V30 20 O -4.913164 -3.080144 -0.873500 0
M  V30 21 C -5.022969 -4.039607 -1.853635 0
M  V30 22 C -3.816650 -4.883953 -2.127189 0
M  V30 23 N -3.330446 -5.659478 -1.064527 0
M  V30 24 C -4.136818 -6.726684 -0.618372 0
M  V30 25 C -4.577046 -6.615654 0.816145 0
M  V30 26 O -4.543036 -5.291670 1.245092 0
M  V30 27 C -3.232684 -4.821227 1.249179 0
M  V30 28 C -2.569712 -5.027402 -0.093836 0
M  V30 29 C -3.129696 -1.434983 -1.570054 0
M  V30 30 C -2.450149 -0.294611 -1.213890 0
M  V30 31 C -1.490060 0.021342 -2.270456 0
M  V30 32 O -1.673112 -0.484867 -3.405642 0
M  V30 33 C 4.570098 4.787465 -0.751977 0
M  V30 34 C 5.334343 5.028944 0.378805 0
M  V30 35 C 5.468329 4.094895 1.379425 0
M  V30 36 F 6.193876 4.242071 2.520317 0
M  V30 37 C 3.844313 0.572797 4.077200 0
M  V30 38 C 2.994323 0.290684 5.072180 0
M  V30 39 C 3.141105 -0.823408 5.848261 0
M  V30 40 C 4.263062 -1.650783 5.513040 0
M  V30 41 S 5.029846 -0.737986 4.078783 0
M  V30 42 H 5.589771 1.028578 2.115405 0
M  V30 43 H 3.553298 1.716654 -0.028314 0
M  V30 44 H 3.353054 3.824744 -2.946995 0
M  V30 45 H 2.112383 2.034284 -4.169834 0
M  V30 46 H 0.048596 0.590353 -4.160379 0
M  V30 47 H 1.457410 2.741469 0.035360 0
M  V30 48 H -0.234042 0.479741 0.920881 0
M  V30 49 H -0.135696 2.233169 1.070161 0
M  V30 50 H -2.341796 1.793242 1.465152 0
M  V30 51 H -2.318784 2.450201 -0.192374 0
M  V30 52 H -3.854260 0.377891 1.711067 0
M  V30 53 H -5.107181 -1.601312 1.204023 0
M  V30 54 H -5.933536 -4.681822 -1.685013 0
M  V30 55 H -5.281819 -3.501131 -2.812896 0
M  V30 56 H -4.147255 -5.592166 -2.970433 0
M  V30 57 H -3.017282 -4.289881 -2.655275 0
M  V30 58 H -3.509129 -7.668817 -0.692106 0
M  V30 59 H -5.005853 -6.938243 -1.287815 0
M  V30 60 H -5.592844 -7.012770 1.000684 0
M  V30 61 H -3.885718 -7.188708 1.476440 0
M  V30 62 H -2.639429 -5.302948 2.073767 0
M  V30 63 H -3.282945 -3.749910 1.552078 0
M  V30 64 H -1.648377 -5.675177 0.096331 0
M  V30 65 H -2.119461 -4.045897 -0.442388 0
M  V30 66 H -2.966622 -1.966556 -2.474222 0
M  V30 67 H 4.517276 5.587229 -1.500950 0
M  V30 68 H 5.861183 5.956429 0.533689 0
M  V30 69 H 2.153369 0.967717 5.275959 0
M  V30 70 H 2.512499 -1.136524 6.668712 0
M  V30 71 H 4.514588 -2.615739 6.073096 0
M  V30 END ATOM
M  V30 BEGIN BOND
M  V30 1 2 1 2
M  V30 2 1 2 3
M  V30 3 1 3 4
M  V30 4 2 4 5
M  V30 5 1 5 6
M  V30 6 1 6 7
M  V30 7 1 7 8
M  V30 8 2 8 9
M  V30 9 1 9 10
M  V30 10 2 10 11
M  V30 11 1 11 12
M  V30 12 2 12 13
M  V30 13 1 12 14
M  V30 14 1 14 15
M  V30 15 1 15 16
M  V30 16 2 16 17
M  V30 17 1 17 18
M  V30 18 2 18 19
M  V30 19 1 19 20
M  V30 20 1 20 21
M  V30 21 1 21 22
M  V30 22 1 22 23
M  V30 23 1 23 24
M  V30 24 1 24 25
M  V30 25 1 25 26
M  V30 26 1 26 27
M  V30 27 1 27 28
M  V30 28 1 19 29
M  V30 29 2 29 30
M  V30 30 1 30 31
M  V30 31 2 31 32
M  V30 32 2 6 33
M  V30 33 1 33 34
M  V30 34 2 34 35
M  V30 35 1 35 36
M  V30 36 1 2 37
M  V30 37 2 37 38
M  V30 38 1 38 39
M  V30 39 2 39 40
M  V30 40 1 40 41
M  V30 41 1 35 4
M  V30 42 1 41 37
M  V30 43 1 13 8
M  V30 44 1 30 16
M  V30 45 1 31 11
M  V30 46 1 28 23
M  V30 47 1 3 42
M  V30 48 1 5 43
M  V30 49 1 7 44
M  V30 50 1 9 45
M  V30 51 1 10 46
M  V30 52 1 13 47
M  V30 53 1 14 48
M  V30 54 1 14 49
M  V30 55 1 15 50
M  V30 56 1 15 51
M  V30 57 1 17 52
M  V30 58 1 18 53
M  V30 59 1 21 54
M  V30 60 1 21 55
M  V30 61 1 22 56
M  V30 62 1 22 57
M  V30 63 1 24 58
M  V30 64 1 24 59
M  V30 65 1 25 60
M  V30 66 1 25 61
M  V30 67 1 27 62
M  V30 68 1 27 63
M  V30 69 1 28 64
M  V30 70 1 28 65
M  V30 71 1 29 66
M  V30 72 1 33 67
M  V30 73 1 34 68
M  V30 74 1 38 69
M  V30 75 1 39 70
M  V30 76 1 40 71
M  V30 END BOND
M  V30 END CTAB
M  END
>  <Dataset>  (254) 
ChEMBL_Kinases

>  <Ligand_Instance>  (254) 
nan

>  <PDB_ID>  (254) 
nan

>  <Standardized_SMILES>  (254) 
O=C(Nc1cc(Nc2ccc3c(c2)CCc2ccc(OCCN4CCOCC4)cc2C3=O)ccc1F)c1cccs1

>  <Name>  (254) 
nan

>  <Pocket>  (254) 
nan

>  <ATP_Site>  (254) 
nan

>  <Peripheral>  (254) 
nan

>  <Num_H_Atoms_ProtBoundConf>  (254) 
nan

>  <Num_Resolved_Atoms>  (254) 
nan

>  <Num_Not_Resolved_Atoms>  (254) 
nan

$$$$
CHEMBL2316490
     RDKit          3D

  0  0  0  0  0  0  0  0  0  0999 V3000
M  V30 BEGIN CTAB
M  V30 COUNTS 71 76 0 0 0
M  V30 BEGIN ATOM
M  V30 1 O 3.945064 0.846411 5.284588 0
M  V30 2 C 4.628384 0.080473 4.567099 0
M  V30 3 N 5.019796 0.595897 3.308749 0
M  V30 4 C 4.579767 1.919768 3.036934 0
M  V30 5 C 3.357080 2.170517 2.418857 0
M  V30 6 C 2.860424 3.421072 2.120216 0
M  V30 7 N 1.621492 3.660497 1.480110 0
M  V30 8 C 0.830185 2.808856 0.689460 0
M  V30 9 C 1.307538 1.734715 -0.073574 0
M  V30 10 C 0.518232 0.900132 -0.817343 0
M  V30 11 C -0.843303 1.108480 -0.835604 0
M  V30 12 C -1.393482 2.151733 -0.106732 0
M  V30 13 C -0.537860 2.951843 0.619687 0
M  V30 14 C -2.808319 2.506373 -0.009461 0
M  V30 15 C -3.634778 2.355301 -1.230679 0
M  V30 16 C -3.893934 0.970417 -1.666114 0
M  V30 17 C -5.234506 0.680502 -1.880209 0
M  V30 18 C -5.563380 -0.618597 -2.302170 0
M  V30 19 C -4.590397 -1.616935 -2.510379 0
M  V30 20 O -5.237047 -2.690524 -2.894089 0
M  V30 21 C -5.171897 -3.974159 -3.271791 0
M  V30 22 C -4.585804 -4.979348 -2.297317 0
M  V30 23 N -3.212362 -4.606119 -2.056423 0
M  V30 24 C -2.592915 -5.465053 -1.053770 0
M  V30 25 C -1.356762 -4.717349 -0.580407 0
M  V30 26 O -0.734450 -4.094676 -1.671826 0
M  V30 27 C -0.980901 -4.779314 -2.853065 0
M  V30 28 C -2.427519 -4.707302 -3.288610 0
M  V30 29 C -3.297318 -1.231867 -2.272762 0
M  V30 30 C -2.916685 0.021236 -1.859560 0
M  V30 31 C -1.471091 0.092244 -1.693248 0
M  V30 32 O -0.790740 -0.754956 -2.316116 0
M  V30 33 C 3.668331 4.475569 2.478882 0
M  V30 34 C 4.887986 4.312304 3.092305 0
M  V30 35 C 5.351091 3.034685 3.375149 0
M  V30 36 F 6.545686 2.798921 3.975691 0
M  V30 37 C 5.013578 -1.257802 4.966974 0
M  V30 38 C 4.572322 -1.685433 6.178568 0
M  V30 39 C 4.899388 -2.947547 6.626099 0
M  V30 40 S 5.928450 -3.675308 5.270612 0
M  V30 41 C 5.807886 -2.129065 4.183979 0
M  V30 42 H 5.590407 0.040313 2.634075 0
M  V30 43 H 2.792116 1.282704 2.186922 0
M  V30 44 H 1.214680 4.617942 1.602138 0
M  V30 45 H 2.367309 1.538771 -0.100461 0
M  V30 46 H 0.945472 0.084612 -1.387253 0
M  V30 47 H -1.053317 3.739186 1.157263 0
M  V30 48 H -2.834035 3.607709 0.241735 0
M  V30 49 H -3.340801 2.032706 0.840086 0
M  V30 50 H -3.163249 2.891696 -2.107808 0
M  V30 51 H -4.598353 2.877481 -1.045961 0
M  V30 52 H -5.884524 1.511825 -1.691701 0
M  V30 53 H -6.652995 -0.639571 -2.411785 0
M  V30 54 H -6.236297 -4.325587 -3.497324 0
M  V30 55 H -4.658898 -4.166555 -4.256791 0
M  V30 56 H -5.126077 -4.947682 -1.330005 0
M  V30 57 H -4.678813 -6.009274 -2.698905 0
M  V30 58 H -3.341003 -5.575229 -0.252810 0
M  V30 59 H -2.243429 -6.423065 -1.486497 0
M  V30 60 H -1.739147 -3.898912 0.062523 0
M  V30 61 H -0.667106 -5.353620 0.006967 0
M  V30 62 H -0.648623 -5.820297 -2.680722 0
M  V30 63 H -0.373378 -4.321322 -3.651391 0
M  V30 64 H -2.678325 -3.853748 -3.910973 0
M  V30 65 H -2.655699 -5.628207 -3.862333 0
M  V30 66 H -2.576428 -1.980996 -2.435214 0
M  V30 67 H 3.342975 5.470744 2.276380 0
M  V30 68 H 5.522007 5.136847 3.373459 0
M  V30 69 H 3.974385 -1.237942 6.945319 0
M  V30 70 H 4.779144 -3.625399 7.432466 0
M  V30 71 H 6.192044 -1.821154 3.185491 0
M  V30 END ATOM
M  V30 BEGIN BOND
M  V30 1 2 1 2
M  V30 2 1 2 3
M  V30 3 1 3 4
M  V30 4 2 4 5
M  V30 5 1 5 6
M  V30 6 1 6 7
M  V30 7 1 7 8
M  V30 8 2 8 9
M  V30 9 1 9 10
M  V30 10 2 10 11
M  V30 11 1 11 12
M  V30 12 2 12 13
M  V30 13 1 12 14
M  V30 14 1 14 15
M  V30 15 1 15 16
M  V30 16 2 16 17
M  V30 17 1 17 18
M  V30 18 2 18 19
M  V30 19 1 19 20
M  V30 20 1 20 21
M  V30 21 1 21 22
M  V30 22 1 22 23
M  V30 23 1 23 24
M  V30 24 1 24 25
M  V30 25 1 25 26
M  V30 26 1 26 27
M  V30 27 1 27 28
M  V30 28 1 19 29
M  V30 29 2 29 30
M  V30 30 1 30 31
M  V30 31 2 31 32
M  V30 32 2 6 33
M  V30 33 1 33 34
M  V30 34 2 34 35
M  V30 35 1 35 36
M  V30 36 1 2 37
M  V30 37 1 37 38
M  V30 38 2 38 39
M  V30 39 1 39 40
M  V30 40 1 40 41
M  V30 41 1 35 4
M  V30 42 2 41 37
M  V30 43 1 13 8
M  V30 44 1 30 16
M  V30 45 1 31 11
M  V30 46 1 28 23
M  V30 47 1 3 42
M  V30 48 1 5 43
M  V30 49 1 7 44
M  V30 50 1 9 45
M  V30 51 1 10 46
M  V30 52 1 13 47
M  V30 53 1 14 48
M  V30 54 1 14 49
M  V30 55 1 15 50
M  V30 56 1 15 51
M  V30 57 1 17 52
M  V30 58 1 18 53
M  V30 59 1 21 54
M  V30 60 1 21 55
M  V30 61 1 22 56
M  V30 62 1 22 57
M  V30 63 1 24 58
M  V30 64 1 24 59
M  V30 65 1 25 60
M  V30 66 1 25 61
M  V30 67 1 27 62
M  V30 68 1 27 63
M  V30 69 1 28 64
M  V30 70 1 28 65
M  V30 71 1 29 66
M  V30 72 1 33 67
M  V30 73 1 34 68
M  V30 74 1 38 69
M  V30 75 1 39 70
M  V30 76 1 41 71
M  V30 END BOND
M  V30 END CTAB
M  END
>  <Dataset>  (255) 
ChEMBL_Kinases

>  <Ligand_Instance>  (255) 
nan

>  <PDB_ID>  (255) 
nan

>  <Standardized_SMILES>  (255) 
O=C(Nc1cc(Nc2ccc3c(c2)CCc2ccc(OCCN4CCOCC4)cc2C3=O)ccc1F)c1ccsc1

>  <Name>  (255) 
nan

>  <Pocket>  (255) 
nan

>  <ATP_Site>  (255) 
nan

>  <Peripheral>  (255) 
nan

>  <Num_H_Atoms_ProtBoundConf>  (255) 
nan

>  <Num_Resolved_Atoms>  (255) 
nan

>  <Num_Not_Resolved_Atoms>  (255) 
nan

$$$$
CHEMBL2316489
     RDKit          3D

  0  0  0  0  0  0  0  0  0  0999 V3000
M  V30 BEGIN CTAB
M  V30 COUNTS 71 76 0 0 0
M  V30 BEGIN ATOM
M  V30 1 O 3.222866 1.773476 3.327435 0
M  V30 2 C 3.372779 0.590785 2.942595 0
M  V30 3 N 3.976448 0.368810 1.667316 0
M  V30 4 C 4.289469 1.648034 1.084178 0
M  V30 5 C 3.276440 2.221670 0.310733 0
M  V30 6 C 3.412143 3.458970 -0.326312 0
M  V30 7 N 2.382815 4.051212 -1.112021 0
M  V30 8 C 1.256009 3.203815 -1.203515 0
M  V30 9 C 1.389750 2.238029 -2.206710 0
M  V30 10 C 0.380689 1.306354 -2.424879 0
M  V30 11 C -0.737353 1.408876 -1.590865 0
M  V30 12 C -0.903762 2.355958 -0.584257 0
M  V30 13 C 0.130345 3.257039 -0.412186 0
M  V30 14 C -1.998781 2.573203 0.361558 0
M  V30 15 C -3.358320 2.204719 -0.091908 0
M  V30 16 C -3.612796 0.805144 -0.416030 0
M  V30 17 C -4.722176 0.242393 0.182241 0
M  V30 18 C -5.094118 -1.093127 -0.041964 0
M  V30 19 C -4.321794 -1.897286 -0.901560 0
M  V30 20 O -4.896407 -3.123324 -0.945834 0
M  V30 21 C -4.609500 -4.300812 -1.573975 0
M  V30 22 C -3.438627 -5.087362 -1.244047 0
M  V30 23 N -2.111775 -4.705076 -1.268382 0
M  V30 24 C -1.320886 -5.972741 -1.291078 0
M  V30 25 C -1.008058 -6.400222 0.086642 0
M  V30 26 O -1.885663 -6.002288 1.078626 0
M  V30 27 C -1.864664 -4.645734 1.196153 0
M  V30 28 C -1.524020 -4.024689 -0.139563 0
M  V30 29 C -3.228302 -1.308772 -1.478765 0
M  V30 30 C -2.869869 0.001612 -1.253181 0
M  V30 31 C -1.656612 0.320560 -2.000301 0
M  V30 32 O -1.464373 -0.401101 -3.007525 0
M  V30 33 C 4.636084 4.062847 -0.123577 0
M  V30 34 C 5.679760 3.558583 0.624057 0
M  V30 35 C 5.471769 2.334038 1.222015 0
M  V30 36 F 6.387127 1.693217 1.990034 0
M  V30 37 C 2.924325 -0.492415 3.812199 0
M  V30 38 C 2.334650 -0.242578 5.046760 0
M  V30 39 C 2.041516 -1.495974 5.580788 0
M  V30 40 O 2.430294 -2.422492 4.723681 0
M  V30 41 C 2.966619 -1.858435 3.646851 0
M  V30 42 H 4.080258 -0.654041 1.391267 0
M  V30 43 H 2.334697 1.675029 0.200856 0
M  V30 44 H 2.576185 4.986329 -1.502906 0
M  V30 45 H 2.248443 2.147566 -2.857740 0
M  V30 46 H 0.451750 0.560840 -3.178703 0
M  V30 47 H 0.101280 4.032171 0.340863 0
M  V30 48 H -1.771650 1.971739 1.265215 0
M  V30 49 H -1.985816 3.624887 0.687294 0
M  V30 50 H -4.135263 2.616658 0.613210 0
M  V30 51 H -3.555920 2.788589 -1.037946 0
M  V30 52 H -5.257460 0.930615 0.827028 0
M  V30 53 H -6.000596 -1.332204 0.529071 0
M  V30 54 H -5.563749 -4.943187 -1.423951 0
M  V30 55 H -4.725030 -4.099104 -2.690033 0
M  V30 56 H -3.497193 -6.020588 -1.928301 0
M  V30 57 H -3.675941 -5.617723 -0.249282 0
M  V30 58 H -1.949609 -6.707709 -1.822181 0
M  V30 59 H -0.399648 -5.785174 -1.914623 0
M  V30 60 H -0.973185 -7.522664 0.167258 0
M  V30 61 H 0.007528 -6.041592 0.440492 0
M  V30 62 H -1.060602 -4.420167 1.959963 0
M  V30 63 H -2.784228 -4.210194 1.640303 0
M  V30 64 H -0.402298 -4.208065 -0.255102 0
M  V30 65 H -1.573005 -2.944803 -0.119066 0
M  V30 66 H -2.702412 -1.985413 -2.113440 0
M  V30 67 H 4.843661 5.036034 -0.580622 0
M  V30 68 H 6.612314 4.051855 0.759828 0
M  V30 69 H 2.122171 0.709928 5.539225 0
M  V30 70 H 1.568936 -1.612080 6.549956 0
M  V30 71 H 3.369616 -2.361879 2.786242 0
M  V30 END ATOM
M  V30 BEGIN BOND
M  V30 1 2 1 2
M  V30 2 1 2 3
M  V30 3 1 3 4
M  V30 4 2 4 5
M  V30 5 1 5 6
M  V30 6 1 6 7
M  V30 7 1 7 8
M  V30 8 2 8 9
M  V30 9 1 9 10
M  V30 10 2 10 11
M  V30 11 1 11 12
M  V30 12 2 12 13
M  V30 13 1 12 14
M  V30 14 1 14 15
M  V30 15 1 15 16
M  V30 16 2 16 17
M  V30 17 1 17 18
M  V30 18 2 18 19
M  V30 19 1 19 20
M  V30 20 1 20 21
M  V30 21 1 21 22
M  V30 22 1 22 23
M  V30 23 1 23 24
M  V30 24 1 24 25
M  V30 25 1 25 26
M  V30 26 1 26 27
M  V30 27 1 27 28
M  V30 28 1 19 29
M  V30 29 2 29 30
M  V30 30 1 30 31
M  V30 31 2 31 32
M  V30 32 2 6 33
M  V30 33 1 33 34
M  V30 34 2 34 35
M  V30 35 1 35 36
M  V30 36 1 2 37
M  V30 37 1 37 38
M  V30 38 2 38 39
M  V30 39 1 39 40
M  V30 40 1 40 41
M  V30 41 1 35 4
M  V30 42 2 41 37
M  V30 43 1 13 8
M  V30 44 1 30 16
M  V30 45 1 31 11
M  V30 46 1 28 23
M  V30 47 1 3 42
M  V30 48 1 5 43
M  V30 49 1 7 44
M  V30 50 1 9 45
M  V30 51 1 10 46
M  V30 52 1 13 47
M  V30 53 1 14 48
M  V30 54 1 14 49
M  V30 55 1 15 50
M  V30 56 1 15 51
M  V30 57 1 17 52
M  V30 58 1 18 53
M  V30 59 1 21 54
M  V30 60 1 21 55
M  V30 61 1 22 56
M  V30 62 1 22 57
M  V30 63 1 24 58
M  V30 64 1 24 59
M  V30 65 1 25 60
M  V30 66 1 25 61
M  V30 67 1 27 62
M  V30 68 1 27 63
M  V30 69 1 28 64
M  V30 70 1 28 65
M  V30 71 1 29 66
M  V30 72 1 33 67
M  V30 73 1 34 68
M  V30 74 1 38 69
M  V30 75 1 39 70
M  V30 76 1 41 71
M  V30 END BOND
M  V30 END CTAB
M  END
>  <Dataset>  (256) 
ChEMBL_Kinases

>  <Ligand_Instance>  (256) 
nan

>  <PDB_ID>  (256) 
nan

>  <Standardized_SMILES>  (256) 
O=C(Nc1cc(Nc2ccc3c(c2)CCc2ccc(OCCN4CCOCC4)cc2C3=O)ccc1F)c1ccoc1

>  <Name>  (256) 
nan

>  <Pocket>  (256) 
nan

>  <ATP_Site>  (256) 
nan

>  <Peripheral>  (256) 
nan

>  <Num_H_Atoms_ProtBoundConf>  (256) 
nan

>  <Num_Resolved_Atoms>  (256) 
nan

>  <Num_Not_Resolved_Atoms>  (256) 
nan

$$$$
CHEMBL2316488
     RDKit          3D

  0  0  0  0  0  0  0  0  0  0999 V3000
M  V30 BEGIN CTAB
M  V30 COUNTS 62 66 0 0 0
M  V30 BEGIN ATOM
M  V30 1 O 0.197256 1.535211 4.405778 0
M  V30 2 C 0.602286 1.472019 5.596069 0
M  V30 3 N 1.963877 1.089121 5.751393 0
M  V30 4 C 2.511566 0.874973 4.431057 0
M  V30 5 C 3.116652 1.868664 3.700253 0
M  V30 6 C 3.612385 1.556040 2.435115 0
M  V30 7 C 3.488416 0.254012 1.934239 0
M  V30 8 F 4.004652 0.051458 0.699298 0
M  V30 9 C 2.867106 -0.704601 2.720528 0
M  V30 10 N 2.825097 -1.972669 2.065945 0
M  V30 11 C 2.167997 -2.249597 0.811987 0
M  V30 12 C 2.197919 -3.436446 0.098353 0
M  V30 13 C 1.493856 -3.521609 -1.084599 0
M  V30 14 C 0.769293 -2.445815 -1.555060 0
M  V30 15 C 0.737653 -1.260373 -0.845086 0
M  V30 16 C 1.441726 -1.170710 0.340162 0
M  V30 17 C -0.003635 -0.034138 -1.237703 0
M  V30 18 C 0.068044 0.324111 -2.676558 0
M  V30 19 C -0.773399 -0.510301 -3.572726 0
M  V30 20 C -1.653137 0.190230 -4.402063 0
M  V30 21 C -2.450112 -0.584275 -5.256501 0
M  V30 22 C -2.403511 -1.988952 -5.313149 0
M  V30 23 O -3.292940 -2.360776 -6.233449 0
M  V30 24 C -3.778471 -3.516724 -6.783762 0
M  V30 25 C -4.507249 -4.469850 -5.897185 0
M  V30 26 O -3.704834 -4.905759 -4.877230 0
M  V30 27 C -1.504004 -2.563048 -4.455531 0
M  V30 28 C -0.685407 -1.884636 -3.585588 0
M  V30 29 C 0.127265 -2.835029 -2.832133 0
M  V30 30 O 0.258705 -3.985299 -3.306673 0
M  V30 31 C 2.370184 -0.418110 3.973723 0
M  V30 32 C -0.320174 1.784671 6.687895 0
M  V30 33 C -1.600480 2.131367 6.293507 0
M  V30 34 C -2.486465 2.434119 7.334640 0
M  V30 35 C -2.109321 2.390894 8.682109 0
M  V30 36 C -0.813165 2.035569 8.992827 0
M  V30 37 C 0.102960 1.726194 7.995552 0
M  V30 38 H 2.332049 1.025835 6.718028 0
M  V30 39 H 3.161729 2.835991 4.173851 0
M  V30 40 H 4.075591 2.387527 1.917429 0
M  V30 41 H 3.359778 -2.622482 2.683664 0
M  V30 42 H 2.793494 -4.218952 0.550896 0
M  V30 43 H 1.535108 -4.466951 -1.621950 0
M  V30 44 H 1.331396 -0.187055 0.796547 0
M  V30 45 H 0.459674 0.827582 -0.673611 0
M  V30 46 H -1.062879 -0.031660 -0.925569 0
M  V30 47 H -0.199826 1.388988 -2.818739 0
M  V30 48 H 1.132258 0.201013 -3.032057 0
M  V30 49 H -1.616885 1.252891 -4.287447 0
M  V30 50 H -3.068392 0.132542 -5.821426 0
M  V30 51 H -2.868954 -4.109613 -7.152787 0
M  V30 52 H -4.329483 -3.345629 -7.753241 0
M  V30 53 H -4.770413 -5.364807 -6.512813 0
M  V30 54 H -5.459982 -4.036341 -5.489180 0
M  V30 55 H -4.153652 -5.512418 -4.240448 0
M  V30 56 H -1.463406 -3.632551 -4.519510 0
M  V30 57 H 1.904586 -1.242043 4.499242 0
M  V30 58 H -1.923941 2.174625 5.277575 0
M  V30 59 H -3.501656 2.711050 7.068219 0
M  V30 60 H -2.838129 2.636960 9.461567 0
M  V30 61 H -0.575418 2.019863 10.065467 0
M  V30 62 H 1.107580 1.453458 8.284569 0
M  V30 END ATOM
M  V30 BEGIN BOND
M  V30 1 2 1 2
M  V30 2 1 2 3
M  V30 3 1 3 4
M  V30 4 2 4 5
M  V30 5 1 5 6
M  V30 6 2 6 7
M  V30 7 1 7 8
M  V30 8 1 7 9
M  V30 9 1 9 10
M  V30 10 1 10 11
M  V30 11 2 11 12
M  V30 12 1 12 13
M  V30 13 2 13 14
M  V30 14 1 14 15
M  V30 15 2 15 16
M  V30 16 1 15 17
M  V30 17 1 17 18
M  V30 18 1 18 19
M  V30 19 2 19 20
M  V30 20 1 20 21
M  V30 21 2 21 22
M  V30 22 1 22 23
M  V30 23 1 23 24
M  V30 24 1 24 25
M  V30 25 1 25 26
M  V30 26 1 22 27
M  V30 27 2 27 28
M  V30 28 1 28 29
M  V30 29 2 29 30
M  V30 30 2 9 31
M  V30 31 1 2 32
M  V30 32 2 32 33
M  V30 33 1 33 34
M  V30 34 2 34 35
M  V30 35 1 35 36
M  V30 36 2 36 37
M  V30 37 1 31 4
M  V30 38 1 37 32
M  V30 39 1 16 11
M  V30 40 1 28 19
M  V30 41 1 29 14
M  V30 42 1 3 38
M  V30 43 1 5 39
M  V30 44 1 6 40
M  V30 45 1 10 41
M  V30 46 1 12 42
M  V30 47 1 13 43
M  V30 48 1 16 44
M  V30 49 1 17 45
M  V30 50 1 17 46
M  V30 51 1 18 47
M  V30 52 1 18 48
M  V30 53 1 20 49
M  V30 54 1 21 50
M  V30 55 1 24 51
M  V30 56 1 24 52
M  V30 57 1 25 53
M  V30 58 1 25 54
M  V30 59 1 26 55
M  V30 60 1 27 56
M  V30 61 1 31 57
M  V30 62 1 33 58
M  V30 63 1 34 59
M  V30 64 1 35 60
M  V30 65 1 36 61
M  V30 66 1 37 62
M  V30 END BOND
M  V30 END CTAB
M  END
>  <Dataset>  (257) 
ChEMBL_Kinases

>  <Ligand_Instance>  (257) 
nan

>  <PDB_ID>  (257) 
nan

>  <Standardized_SMILES>  (257) 
O=C(Nc1ccc(F)c(Nc2ccc3c(c2)CCc2ccc(OCCO)cc2C3=O)c1)c1ccccc1

>  <Name>  (257) 
nan

>  <Pocket>  (257) 
nan

>  <ATP_Site>  (257) 
nan

>  <Peripheral>  (257) 
nan

>  <Num_H_Atoms_ProtBoundConf>  (257) 
nan

>  <Num_Resolved_Atoms>  (257) 
nan

>  <Num_Not_Resolved_Atoms>  (257) 
nan

$$$$
CHEMBL2316487
     RDKit          3D

  0  0  0  0  0  0  0  0  0  0999 V3000
M  V30 BEGIN CTAB
M  V30 COUNTS 63 67 0 0 0
M  V30 BEGIN ATOM
M  V30 1 O 0.749543 -0.543780 -2.205217 0
M  V30 2 C 0.469882 -1.675655 -1.682937 0
M  V30 3 C 0.779099 -1.976843 -0.267111 0
M  V30 4 C 1.262494 -0.810019 0.299793 0
M  V30 5 C 1.612521 -0.884440 1.645356 0
M  V30 6 C 1.469351 -2.087105 2.351826 0
M  V30 7 N 1.821400 -2.099393 3.729500 0
M  V30 8 C 1.816526 -0.991469 4.618187 0
M  V30 9 C 2.648857 -0.975981 5.721723 0
M  V30 10 C 2.667372 0.085455 6.627730 0
M  V30 11 C 1.824335 1.181841 6.433896 0
M  V30 12 F 1.817634 2.226683 7.291239 0
M  V30 13 C 0.971811 1.202810 5.334694 0
M  V30 14 N 0.084133 2.311977 5.087929 0
M  V30 15 C 0.275469 3.500823 4.308619 0
M  V30 16 O 1.390919 3.594454 3.747528 0
M  V30 17 C -0.977289 4.301376 4.409915 0
M  V30 18 C -2.110775 3.402830 3.916706 0
M  V30 19 C -2.496956 3.933511 2.563602 0
M  V30 20 O -2.141273 5.275950 2.624167 0
M  V30 21 C -0.923571 5.342060 3.298429 0
M  V30 22 C 1.018947 0.122602 4.499913 0
M  V30 23 C 0.980049 -3.206931 1.712417 0
M  V30 24 C 0.611099 -3.194872 0.360236 0
M  V30 25 C 0.112071 -4.477775 -0.136701 0
M  V30 26 C 0.421140 -4.831726 -1.544942 0
M  V30 27 C -0.171829 -3.961715 -2.575832 0
M  V30 28 C -0.804673 -4.682699 -3.563723 0
M  V30 29 C -1.414081 -4.032485 -4.605751 0
M  V30 30 C -1.439306 -2.666932 -4.740192 0
M  V30 31 O -1.945372 -1.769592 -5.634775 0
M  V30 32 C -2.651467 -1.978285 -6.809449 0
M  V30 33 C -1.886888 -2.730370 -7.867416 0
M  V30 34 O -2.697359 -2.876596 -8.996767 0
M  V30 35 C -0.796445 -1.919588 -3.737105 0
M  V30 36 C -0.164899 -2.562294 -2.658796 0
M  V30 37 H 1.358835 0.089937 -0.268346 0
M  V30 38 H 1.998218 0.046395 2.047407 0
M  V30 39 H 2.115806 -3.015467 4.122428 0
M  V30 40 H 3.331432 -1.808005 5.927525 0
M  V30 41 H 3.305428 0.121457 7.490651 0
M  V30 42 H -0.717539 1.937914 5.667478 0
M  V30 43 H -1.169109 4.716393 5.400411 0
M  V30 44 H -2.950566 3.380563 4.642181 0
M  V30 45 H -1.780287 2.351159 3.783937 0
M  V30 46 H -2.010449 3.380002 1.730039 0
M  V30 47 H -3.585885 3.868208 2.434922 0
M  V30 48 H -0.787331 6.367311 3.667156 0
M  V30 49 H -0.099384 5.111784 2.568682 0
M  V30 50 H 0.328467 0.173383 3.666531 0
M  V30 51 H 0.867794 -4.138758 2.251012 0
M  V30 52 H 0.628854 -5.266936 0.486484 0
M  V30 53 H -0.965731 -4.665883 0.048519 0
M  V30 54 H 1.547654 -4.840466 -1.662914 0
M  V30 55 H 0.061302 -5.857444 -1.706813 0
M  V30 56 H -0.856107 -5.751782 -3.575986 0
M  V30 57 H -1.941007 -4.507027 -5.418501 0
M  V30 58 H -2.935205 -0.989507 -7.262376 0
M  V30 59 H -3.641619 -2.488214 -6.636898 0
M  V30 60 H -1.020601 -2.061986 -8.137840 0
M  V30 61 H -1.572139 -3.727827 -7.580996 0
M  V30 62 H -2.662648 -2.076447 -9.587856 0
M  V30 63 H -0.686117 -0.827152 -3.633235 0
M  V30 END ATOM
M  V30 BEGIN BOND
M  V30 1 2 1 2
M  V30 2 1 2 3
M  V30 3 2 3 4
M  V30 4 1 4 5
M  V30 5 2 5 6
M  V30 6 1 6 7
M  V30 7 1 7 8
M  V30 8 2 8 9
M  V30 9 1 9 10
M  V30 10 2 10 11
M  V30 11 1 11 12
M  V30 12 1 11 13
M  V30 13 1 13 14
M  V30 14 1 14 15
M  V30 15 2 15 16
M  V30 16 1 15 17
M  V30 17 1 17 18
M  V30 18 1 18 19
M  V30 19 1 19 20
M  V30 20 1 20 21
M  V30 21 2 13 22
M  V30 22 1 6 23
M  V30 23 2 23 24
M  V30 24 1 24 25
M  V30 25 1 25 26
M  V30 26 1 26 27
M  V30 27 2 27 28
M  V30 28 1 28 29
M  V30 29 2 29 30
M  V30 30 1 30 31
M  V30 31 1 31 32
M  V30 32 1 32 33
M  V30 33 1 33 34
M  V30 34 1 30 35
M  V30 35 2 35 36
M  V30 36 1 36 2
M  V30 37 1 24 3
M  V30 38 1 36 27
M  V30 39 1 22 8
M  V30 40 1 21 17
M  V30 41 1 4 37
M  V30 42 1 5 38
M  V30 43 1 7 39
M  V30 44 1 9 40
M  V30 45 1 10 41
M  V30 46 1 14 42
M  V30 47 1 17 43
M  V30 48 1 18 44
M  V30 49 1 18 45
M  V30 50 1 19 46
M  V30 51 1 19 47
M  V30 52 1 21 48
M  V30 53 1 21 49
M  V30 54 1 22 50
M  V30 55 1 23 51
M  V30 56 1 25 52
M  V30 57 1 25 53
M  V30 58 1 26 54
M  V30 59 1 26 55
M  V30 60 1 28 56
M  V30 61 1 29 57
M  V30 62 1 32 58
M  V30 63 1 32 59
M  V30 64 1 33 60
M  V30 65 1 33 61
M  V30 66 1 34 62
M  V30 67 1 35 63
M  V30 END BOND
M  V30 END CTAB
M  END
>  <Dataset>  (258) 
ChEMBL_Kinases

>  <Ligand_Instance>  (258) 
nan

>  <PDB_ID>  (258) 
nan

>  <Standardized_SMILES>  (258) 
O=C1c2ccc(Nc3ccc(F)c(NC(=O)C4CCOC4)c3)cc2CCc2ccc(OCCO)cc21

>  <Name>  (258) 
nan

>  <Pocket>  (258) 
nan

>  <ATP_Site>  (258) 
nan

>  <Peripheral>  (258) 
nan

>  <Num_H_Atoms_ProtBoundConf>  (258) 
nan

>  <Num_Resolved_Atoms>  (258) 
nan

>  <Num_Not_Resolved_Atoms>  (258) 
nan

$$$$
CHEMBL2316486
     RDKit          3D

  0  0  0  0  0  0  0  0  0  0999 V3000
M  V30 BEGIN CTAB
M  V30 COUNTS 66 70 0 0 0
M  V30 BEGIN ATOM
M  V30 1 O 4.902982 2.356677 3.901916 0
M  V30 2 C 3.972894 2.113614 4.709467 0
M  V30 3 N 3.392737 0.812236 4.645044 0
M  V30 4 C 3.968153 -0.029471 3.650166 0
M  V30 5 C 3.512441 -0.161874 2.365808 0
M  V30 6 C 4.172959 -1.010367 1.518876 0
M  V30 7 N 3.756816 -1.230810 0.183504 0
M  V30 8 C 2.495282 -1.159149 -0.465196 0
M  V30 9 C 2.308845 -1.007727 -1.818071 0
M  V30 10 C 1.034780 -0.984065 -2.336466 0
M  V30 11 C -0.050366 -1.112472 -1.500212 0
M  V30 12 C 0.128857 -1.267881 -0.117572 0
M  V30 13 C 1.410346 -1.291208 0.400872 0
M  V30 14 C -1.009358 -1.406981 0.845908 0
M  V30 15 C -1.881348 -2.569381 0.518077 0
M  V30 16 C -2.823433 -2.371755 -0.592578 0
M  V30 17 C -4.099402 -2.906630 -0.382408 0
M  V30 18 C -5.039897 -2.754385 -1.411023 0
M  V30 19 C -4.748392 -2.099888 -2.614070 0
M  V30 20 O -5.879361 -2.158501 -3.328995 0
M  V30 21 C -6.390180 -1.804146 -4.518489 0
M  V30 22 C -5.767894 -2.396924 -5.771144 0 CFG=1
M  V30 23 O -4.452191 -2.030903 -5.903846 0
M  V30 24 C -5.810776 -3.917575 -5.610701 0
M  V30 25 O -7.136250 -4.323245 -5.472916 0
M  V30 26 C -3.481202 -1.597146 -2.759113 0
M  V30 27 C -2.531151 -1.726432 -1.774563 0
M  V30 28 C -1.303352 -1.075288 -2.285959 0
M  V30 29 O -1.292315 -0.483305 -3.383137 0
M  V30 30 C 5.276908 -1.715738 1.956543 0
M  V30 31 C 5.742686 -1.588586 3.246935 0
M  V30 32 C 5.079591 -0.733669 4.105742 0
M  V30 33 F 5.563271 -0.624907 5.372344 0
M  V30 34 C 3.556503 3.158137 5.640795 0
M  V30 35 C 4.304998 4.334995 5.593533 0
M  V30 36 C 3.915745 5.347474 6.478813 0
M  V30 37 C 2.855595 5.192859 7.347884 0
M  V30 38 C 2.130518 4.004133 7.368990 0
M  V30 39 C 2.493079 2.975768 6.498142 0
M  V30 40 H 2.610370 0.584104 5.315497 0
M  V30 41 H 2.655986 0.419591 2.082152 0
M  V30 42 H 4.502253 -1.511760 -0.517059 0
M  V30 43 H 3.196417 -0.909663 -2.440049 0
M  V30 44 H 0.855758 -0.867773 -3.372451 0
M  V30 45 H 1.353295 -1.426254 1.457617 0
M  V30 46 H -0.673425 -1.439853 1.886410 0
M  V30 47 H -1.608776 -0.458576 0.756890 0
M  V30 48 H -2.480717 -2.817335 1.439076 0
M  V30 49 H -1.221990 -3.462030 0.366083 0
M  V30 50 H -4.193297 -3.381081 0.578827 0
M  V30 51 H -5.958545 -3.241564 -1.035901 0
M  V30 52 H -6.367814 -0.678850 -4.622124 0
M  V30 53 H -7.501654 -2.054893 -4.509759 0
M  V30 54 H -6.397226 -2.100982 -6.639035 0
M  V30 55 H -4.165745 -1.844032 -6.830536 0
M  V30 56 H -5.268347 -4.447573 -6.395660 0
M  V30 57 H -5.269567 -4.120577 -4.640246 0
M  V30 58 H -7.303029 -4.659213 -4.548482 0
M  V30 59 H -3.340125 -1.101266 -3.698869 0
M  V30 60 H 5.855673 -2.410820 1.341288 0
M  V30 61 H 6.615182 -2.143861 3.597341 0
M  V30 62 H 5.143414 4.503908 4.937552 0
M  V30 63 H 4.438358 6.312891 6.522739 0
M  V30 64 H 2.573081 5.999973 8.026135 0
M  V30 65 H 1.301629 3.865746 8.038471 0
M  V30 66 H 1.926503 2.061957 6.518431 0
M  V30 END ATOM
M  V30 BEGIN BOND
M  V30 1 2 1 2
M  V30 2 1 2 3
M  V30 3 1 3 4
M  V30 4 2 4 5
M  V30 5 1 5 6
M  V30 6 1 6 7
M  V30 7 1 7 8
M  V30 8 2 8 9
M  V30 9 1 9 10
M  V30 10 2 10 11
M  V30 11 1 11 12
M  V30 12 2 12 13
M  V30 13 1 12 14
M  V30 14 1 14 15
M  V30 15 1 15 16
M  V30 16 2 16 17
M  V30 17 1 17 18
M  V30 18 2 18 19
M  V30 19 1 19 20
M  V30 20 1 20 21
M  V30 21 1 21 22
M  V30 22 1 22 23
M  V30 23 1 22 24
M  V30 24 1 24 25
M  V30 25 1 19 26
M  V30 26 2 26 27
M  V30 27 1 27 28
M  V30 28 2 28 29
M  V30 29 2 6 30
M  V30 30 1 30 31
M  V30 31 2 31 32
M  V30 32 1 32 33
M  V30 33 1 2 34
M  V30 34 2 34 35
M  V30 35 1 35 36
M  V30 36 2 36 37
M  V30 37 1 37 38
M  V30 38 2 38 39
M  V30 39 1 32 4
M  V30 40 1 39 34
M  V30 41 1 13 8
M  V30 42 1 27 16
M  V30 43 1 28 11
M  V30 44 1 3 40
M  V30 45 1 5 41
M  V30 46 1 7 42
M  V30 47 1 9 43
M  V30 48 1 10 44
M  V30 49 1 13 45
M  V30 50 1 14 46
M  V30 51 1 14 47
M  V30 52 1 15 48
M  V30 53 1 15 49
M  V30 54 1 17 50
M  V30 55 1 18 51
M  V30 56 1 21 52
M  V30 57 1 21 53
M  V30 58 1 22 54 CFG=3
M  V30 59 1 23 55
M  V30 60 1 24 56
M  V30 61 1 24 57
M  V30 62 1 25 58
M  V30 63 1 26 59
M  V30 64 1 30 60
M  V30 65 1 31 61
M  V30 66 1 35 62
M  V30 67 1 36 63
M  V30 68 1 37 64
M  V30 69 1 38 65
M  V30 70 1 39 66
M  V30 END BOND
M  V30 END CTAB
M  END
>  <Dataset>  (259) 
ChEMBL_Kinases

>  <Ligand_Instance>  (259) 
nan

>  <PDB_ID>  (259) 
nan

>  <Standardized_SMILES>  (259) 
O=C(Nc1cc(Nc2ccc3c(c2)CCc2ccc(OC[C@@H](O)CO)cc2C3=O)ccc1F)c1ccccc1

>  <Name>  (259) 
nan

>  <Pocket>  (259) 
nan

>  <ATP_Site>  (259) 
nan

>  <Peripheral>  (259) 
nan

>  <Num_H_Atoms_ProtBoundConf>  (259) 
nan

>  <Num_Resolved_Atoms>  (259) 
nan

>  <Num_Not_Resolved_Atoms>  (259) 
nan

$$$$
CHEMBL2316485
     RDKit          3D

  0  0  0  0  0  0  0  0  0  0999 V3000
M  V30 BEGIN CTAB
M  V30 COUNTS 74 79 0 0 0
M  V30 BEGIN ATOM
M  V30 1 O 5.354263 3.038528 -3.143178 0
M  V30 2 C 5.189233 2.912832 -1.904676 0
M  V30 3 N 4.087310 3.588117 -1.316535 0
M  V30 4 C 3.173601 4.391501 -2.086279 0
M  V30 5 C 2.089476 3.703658 -2.589432 0
M  V30 6 C 1.055717 4.240779 -3.364547 0
M  V30 7 N -0.045833 3.492849 -3.839330 0
M  V30 8 C -0.603902 2.297954 -3.315706 0
M  V30 9 C -1.261782 1.341306 -4.064210 0
M  V30 10 C -1.796373 0.202007 -3.497922 0
M  V30 11 C -1.651960 0.040935 -2.129504 0
M  V30 12 C -1.009245 0.951986 -1.317139 0
M  V30 13 C -0.489639 2.084680 -1.950780 0
M  V30 14 C -0.798759 0.891121 0.128439 0
M  V30 15 C -1.946191 0.393250 0.952715 0
M  V30 16 C -2.172512 -1.056482 0.828189 0
M  V30 17 C -2.225847 -1.662091 2.064815 0
M  V30 18 C -2.425007 -3.017947 2.028875 0
M  V30 19 C -2.576593 -3.833550 0.940108 0
M  V30 20 O -2.771991 -5.118273 0.700289 0
M  V30 21 C -2.943797 -6.328112 1.293522 0
M  V30 22 C -4.126842 -6.564254 2.164541 0
M  V30 23 N -4.174739 -5.710276 3.313236 0
M  V30 24 C -5.436045 -5.973842 4.041464 0
M  V30 25 C -5.485442 -5.041662 5.218610 0
M  V30 26 O -4.427678 -5.333374 6.104904 0
M  V30 27 C -3.224155 -5.039645 5.417466 0
M  V30 28 C -3.117753 -6.018253 4.270954 0
M  V30 29 C -2.515019 -3.166239 -0.299165 0
M  V30 30 C -2.312945 -1.776084 -0.367127 0
M  V30 31 C -2.269559 -1.221427 -1.729265 0
M  V30 32 O -2.848163 -1.978964 -2.573105 0
M  V30 33 C 1.171684 5.589978 -3.628040 0
M  V30 34 C 2.246104 6.320770 -3.142734 0
M  V30 35 C 3.237194 5.735596 -2.381232 0
M  V30 36 F 4.323301 6.367055 -1.858292 0
M  V30 37 C 6.129455 2.092436 -1.173812 0
M  V30 38 C 7.157569 1.467105 -1.840419 0
M  V30 39 C 8.088744 0.665245 -1.215464 0
M  V30 40 C 7.983899 0.478841 0.164641 0
M  V30 41 C 6.960887 1.088139 0.897681 0
M  V30 42 C 6.078670 1.869905 0.186452 0
M  V30 43 H 3.945614 3.488967 -0.278205 0
M  V30 44 H 1.987402 2.640044 -2.407343 0
M  V30 45 H -0.544110 3.835141 -4.696370 0
M  V30 46 H -1.350006 1.511929 -5.119740 0
M  V30 47 H -2.311173 -0.544508 -4.092804 0
M  V30 48 H -0.009441 2.751785 -1.215194 0
M  V30 49 H -0.647734 1.960053 0.462316 0
M  V30 50 H 0.143900 0.367087 0.387416 0
M  V30 51 H -2.857658 0.951628 0.734771 0
M  V30 52 H -1.681564 0.616158 2.004575 0
M  V30 53 H -2.125308 -1.157804 2.996458 0
M  V30 54 H -2.467896 -3.573587 2.942201 0
M  V30 55 H -1.998157 -6.518839 1.914577 0
M  V30 56 H -2.878325 -7.153048 0.501866 0
M  V30 57 H -4.116342 -7.643700 2.448709 0
M  V30 58 H -5.064008 -6.375928 1.571864 0
M  V30 59 H -5.443831 -7.012684 4.416905 0
M  V30 60 H -6.251268 -5.754271 3.345587 0
M  V30 61 H -6.406297 -5.189588 5.824205 0
M  V30 62 H -5.458331 -3.993563 4.870107 0
M  V30 63 H -3.367542 -4.017421 5.044893 0
M  V30 64 H -2.382379 -5.128880 6.134977 0
M  V30 65 H -2.129235 -6.022252 3.810120 0
M  V30 66 H -3.273826 -7.043549 4.719900 0
M  V30 67 H -2.603878 -3.582738 -1.297888 0
M  V30 68 H 0.433305 6.105931 -4.214788 0
M  V30 69 H 2.355218 7.388598 -3.340949 0
M  V30 70 H 7.324525 1.548093 -2.904044 0
M  V30 71 H 8.903332 0.168556 -1.754125 0
M  V30 72 H 8.705822 -0.147959 0.660065 0
M  V30 73 H 6.860721 0.958214 1.966155 0
M  V30 74 H 5.275344 2.346832 0.766240 0
M  V30 END ATOM
M  V30 BEGIN BOND
M  V30 1 2 1 2
M  V30 2 1 2 3
M  V30 3 1 3 4
M  V30 4 2 4 5
M  V30 5 1 5 6
M  V30 6 1 6 7
M  V30 7 1 7 8
M  V30 8 2 8 9
M  V30 9 1 9 10
M  V30 10 2 10 11
M  V30 11 1 11 12
M  V30 12 2 12 13
M  V30 13 1 12 14
M  V30 14 1 14 15
M  V30 15 1 15 16
M  V30 16 2 16 17
M  V30 17 1 17 18
M  V30 18 2 18 19
M  V30 19 1 19 20
M  V30 20 1 20 21
M  V30 21 1 21 22
M  V30 22 1 22 23
M  V30 23 1 23 24
M  V30 24 1 24 25
M  V30 25 1 25 26
M  V30 26 1 26 27
M  V30 27 1 27 28
M  V30 28 1 19 29
M  V30 29 2 29 30
M  V30 30 1 30 31
M  V30 31 2 31 32
M  V30 32 2 6 33
M  V30 33 1 33 34
M  V30 34 2 34 35
M  V30 35 1 35 36
M  V30 36 1 2 37
M  V30 37 2 37 38
M  V30 38 1 38 39
M  V30 39 2 39 40
M  V30 40 1 40 41
M  V30 41 2 41 42
M  V30 42 1 35 4
M  V30 43 1 42 37
M  V30 44 1 13 8
M  V30 45 1 30 16
M  V30 46 1 31 11
M  V30 47 1 28 23
M  V30 48 1 3 43
M  V30 49 1 5 44
M  V30 50 1 7 45
M  V30 51 1 9 46
M  V30 52 1 10 47
M  V30 53 1 13 48
M  V30 54 1 14 49
M  V30 55 1 14 50
M  V30 56 1 15 51
M  V30 57 1 15 52
M  V30 58 1 17 53
M  V30 59 1 18 54
M  V30 60 1 21 55
M  V30 61 1 21 56
M  V30 62 1 22 57
M  V30 63 1 22 58
M  V30 64 1 24 59
M  V30 65 1 24 60
M  V30 66 1 25 61
M  V30 67 1 25 62
M  V30 68 1 27 63
M  V30 69 1 27 64
M  V30 70 1 28 65
M  V30 71 1 28 66
M  V30 72 1 29 67
M  V30 73 1 33 68
M  V30 74 1 34 69
M  V30 75 1 38 70
M  V30 76 1 39 71
M  V30 77 1 40 72
M  V30 78 1 41 73
M  V30 79 1 42 74
M  V30 END BOND
M  V30 END CTAB
M  END
>  <Dataset>  (260) 
ChEMBL_Kinases

>  <Ligand_Instance>  (260) 
nan

>  <PDB_ID>  (260) 
nan

>  <Standardized_SMILES>  (260) 
O=C(Nc1cc(Nc2ccc3c(c2)CCc2ccc(OCCN4CCOCC4)cc2C3=O)ccc1F)c1ccccc1

>  <Name>  (260) 
nan

>  <Pocket>  (260) 
nan

>  <ATP_Site>  (260) 
nan

>  <Peripheral>  (260) 
nan

>  <Num_H_Atoms_ProtBoundConf>  (260) 
nan

>  <Num_Resolved_Atoms>  (260) 
nan

>  <Num_Not_Resolved_Atoms>  (260) 
nan

$$$$
CHEMBL2316484
     RDKit          3D

  0  0  0  0  0  0  0  0  0  0999 V3000
M  V30 BEGIN CTAB
M  V30 COUNTS 73 78 0 0 0
M  V30 BEGIN ATOM
M  V30 1 C -0.219819 5.727907 -1.769316 0
M  V30 2 C 0.860595 5.070487 -0.951376 0
M  V30 3 C 0.244106 4.530704 0.328839 0
M  V30 4 O 1.803718 6.052900 -0.661973 0
M  V30 5 C 3.055089 5.506934 -0.927179 0
M  V30 6 C 2.719691 4.515664 -2.043272 0 CFG=1
M  V30 7 C 3.814769 3.512036 -2.219694 0
M  V30 8 O 3.633844 2.507039 -3.128264 0
M  V30 9 C 2.761190 1.492177 -3.178560 0
M  V30 10 C 3.048671 0.809805 -4.377986 0
M  V30 11 C 2.356506 -0.323818 -4.809642 0
M  V30 12 C 1.314695 -0.826584 -4.019894 0
M  V30 13 C 1.028239 -0.167685 -2.847378 0
M  V30 14 C 1.734336 0.943757 -2.461049 0
M  V30 15 C 0.019076 -0.458088 -1.837760 0
M  V30 16 O -0.294535 0.491799 -1.081307 0
M  V30 17 C -0.614291 -1.788170 -1.693311 0
M  V30 18 C -1.503215 -1.731543 -0.640027 0
M  V30 19 C -2.218504 -2.878406 -0.316850 0
M  V30 20 C -2.034943 -4.053261 -1.044500 0
M  V30 21 N -2.792785 -5.183736 -0.630040 0
M  V30 22 C -3.256788 -5.422248 0.693694 0
M  V30 23 C -4.383398 -6.142279 0.995971 0
M  V30 24 C -4.776504 -6.356458 2.313546 0
M  V30 25 C -4.033976 -5.843382 3.364024 0
M  V30 26 F -4.331199 -5.994646 4.677834 0
M  V30 27 C -2.893524 -5.114191 3.092497 0
M  V30 28 N -2.033265 -4.527097 4.093568 0
M  V30 29 C -2.154470 -3.213183 4.625234 0
M  V30 30 O -3.054243 -2.417336 4.258655 0
M  V30 31 C -1.223414 -2.727710 5.633580 0
M  V30 32 C -1.364510 -1.432414 6.088726 0
M  V30 33 C -0.512779 -0.889140 7.054343 0
M  V30 34 C 0.506276 -1.663784 7.577268 0
M  V30 35 C 0.666311 -2.949918 7.142264 0
M  V30 36 C -0.194566 -3.463872 6.181731 0
M  V30 37 C -2.521934 -4.914608 1.762774 0
M  V30 38 C -1.141524 -4.085910 -2.093027 0
M  V30 39 C -0.405202 -2.948990 -2.445362 0
M  V30 40 C 0.507154 -3.159954 -3.585962 0
M  V30 41 C 0.618491 -2.015897 -4.530541 0
M  V30 42 O 1.514082 4.050292 -1.637337 0
M  V30 43 H 0.239063 6.430337 -2.485184 0
M  V30 44 H -0.864916 5.022461 -2.324405 0
M  V30 45 H -0.850953 6.290516 -1.030526 0
M  V30 46 H 0.979272 4.535888 1.150193 0
M  V30 47 H -0.655313 5.151935 0.567699 0
M  V30 48 H -0.097800 3.475836 0.128996 0
M  V30 49 H 3.355590 4.961044 -0.026968 0
M  V30 50 H 3.793468 6.249802 -1.242516 0
M  V30 51 H 2.572152 5.139413 -2.971465 0
M  V30 52 H 4.781775 4.040537 -2.451310 0
M  V30 53 H 4.023681 3.104556 -1.173119 0
M  V30 54 H 3.801164 0.996763 -5.156303 0
M  V30 55 H 2.493597 -0.915446 -5.699357 0
M  V30 56 H 1.546141 1.461470 -1.546418 0
M  V30 57 H -1.625181 -0.787676 -0.084593 0
M  V30 58 H -2.902778 -2.720109 0.524555 0
M  V30 59 H -3.017879 -5.888533 -1.378380 0
M  V30 60 H -4.980045 -6.551646 0.187691 0
M  V30 61 H -5.645994 -6.910713 2.597799 0
M  V30 62 H -1.289442 -5.194950 4.391761 0
M  V30 63 H -2.147694 -0.747835 5.727722 0
M  V30 64 H -0.643329 0.121990 7.390030 0
M  V30 65 H 1.174762 -1.261014 8.324015 0
M  V30 66 H 1.460202 -3.585018 7.535599 0
M  V30 67 H -0.058755 -4.481962 5.845724 0
M  V30 68 H -1.606162 -4.344784 1.580991 0
M  V30 69 H -1.008842 -4.995482 -2.647677 0
M  V30 70 H 0.057934 -4.015790 -4.171620 0
M  V30 71 H 1.503595 -3.533658 -3.277457 0
M  V30 72 H 1.030840 -2.380138 -5.494124 0
M  V30 73 H -0.424870 -1.690614 -4.781172 0
M  V30 END ATOM
M  V30 BEGIN BOND
M  V30 1 1 1 2
M  V30 2 1 2 3
M  V30 3 1 2 4
M  V30 4 1 4 5
M  V30 5 1 5 6
M  V30 6 1 6 7
M  V30 7 1 7 8
M  V30 8 1 8 9
M  V30 9 2 9 10
M  V30 10 1 10 11
M  V30 11 2 11 12
M  V30 12 1 12 13
M  V30 13 2 13 14
M  V30 14 1 13 15
M  V30 15 2 15 16
M  V30 16 1 15 17
M  V30 17 2 17 18
M  V30 18 1 18 19
M  V30 19 2 19 20
M  V30 20 1 20 21
M  V30 21 1 21 22
M  V30 22 2 22 23
M  V30 23 1 23 24
M  V30 24 2 24 25
M  V30 25 1 25 26
M  V30 26 1 25 27
M  V30 27 1 27 28
M  V30 28 1 28 29
M  V30 29 2 29 30
M  V30 30 1 29 31
M  V30 31 2 31 32
M  V30 32 1 32 33
M  V30 33 2 33 34
M  V30 34 1 34 35
M  V30 35 2 35 36
M  V30 36 2 27 37
M  V30 37 1 20 38
M  V30 38 2 38 39
M  V30 39 1 39 40
M  V30 40 1 40 41
M  V30 41 1 6 42
M  V30 42 1 42 2
M  V30 43 1 14 9
M  V30 44 1 39 17
M  V30 45 1 41 12
M  V30 46 1 37 22
M  V30 47 1 36 31
M  V30 48 1 1 43
M  V30 49 1 1 44
M  V30 50 1 1 45
M  V30 51 1 3 46
M  V30 52 1 3 47
M  V30 53 1 3 48
M  V30 54 1 5 49
M  V30 55 1 5 50
M  V30 56 1 6 51 CFG=3
M  V30 57 1 7 52
M  V30 58 1 7 53
M  V30 59 1 10 54
M  V30 60 1 11 55
M  V30 61 1 14 56
M  V30 62 1 18 57
M  V30 63 1 19 58
M  V30 64 1 21 59
M  V30 65 1 23 60
M  V30 66 1 24 61
M  V30 67 1 28 62
M  V30 68 1 32 63
M  V30 69 1 33 64
M  V30 70 1 34 65
M  V30 71 1 35 66
M  V30 72 1 36 67
M  V30 73 1 37 68
M  V30 74 1 38 69
M  V30 75 1 40 70
M  V30 76 1 40 71
M  V30 77 1 41 72
M  V30 78 1 41 73
M  V30 END BOND
M  V30 END CTAB
M  END
>  <Dataset>  (261) 
ChEMBL_Kinases

>  <Ligand_Instance>  (261) 
nan

>  <PDB_ID>  (261) 
nan

>  <Standardized_SMILES>  (261) 
CC1(C)OC[C@@H](COc2ccc3c(c2)C(=O)c2ccc(Nc4ccc(F)c(NC(=O)c5ccccc5)c4)cc2CC3)O1

>  <Name>  (261) 
nan

>  <Pocket>  (261) 
nan

>  <ATP_Site>  (261) 
nan

>  <Peripheral>  (261) 
nan

>  <Num_H_Atoms_ProtBoundConf>  (261) 
nan

>  <Num_Resolved_Atoms>  (261) 
nan

>  <Num_Not_Resolved_Atoms>  (261) 
nan

$$$$
CHEMBL2316483
     RDKit          3D

  0  0  0  0  0  0  0  0  0  0999 V3000
M  V30 BEGIN CTAB
M  V30 COUNTS 62 66 0 0 0
M  V30 BEGIN ATOM
M  V30 1 O 2.153829 -0.352677 4.519335 0
M  V30 2 C 1.430473 -1.287627 4.956989 0
M  V30 3 N 1.828451 -2.603838 4.648288 0
M  V30 4 C 3.016297 -2.698850 3.867667 0
M  V30 5 C 2.861455 -2.701645 2.477490 0
M  V30 6 C 4.022958 -2.795412 1.720632 0
M  V30 7 N 3.920379 -2.779666 0.284089 0
M  V30 8 C 2.915814 -2.204945 -0.541840 0
M  V30 9 C 2.693362 -2.696991 -1.806388 0
M  V30 10 C 1.743480 -2.158412 -2.635828 0
M  V30 11 C 1.018155 -1.102798 -2.154013 0
M  V30 12 C 1.148856 -0.511933 -0.890306 0
M  V30 13 C 2.145240 -1.137763 -0.126047 0
M  V30 14 C 0.519476 0.578917 -0.172223 0
M  V30 15 C -0.847072 0.989896 -0.427223 0
M  V30 16 C -1.515973 0.724645 -1.684161 0
M  V30 17 C -2.780546 1.325752 -1.597472 0
M  V30 18 C -3.660987 1.236902 -2.666625 0
M  V30 19 C -3.304279 0.562484 -3.814892 0
M  V30 20 O -4.214731 0.488222 -4.879864 0
M  V30 21 C -5.492415 1.099477 -4.783969 0
M  V30 22 C -6.292408 0.880661 -6.052040 0
M  V30 23 O -5.566299 1.452786 -7.098156 0
M  V30 24 C -2.079802 -0.046275 -3.959589 0
M  V30 25 C -1.243102 0.071029 -2.870547 0
M  V30 26 C 0.026377 -0.616513 -3.144665 0
M  V30 27 O 0.341681 -0.835338 -4.343594 0
M  V30 28 C 5.277271 -2.883628 2.283057 0
M  V30 29 C 5.447627 -2.882591 3.650140 0
M  V30 30 C 4.285014 -2.788220 4.383427 0
M  V30 31 F 4.349993 -2.778478 5.754865 0
M  V30 32 C 0.249483 -0.934399 5.740786 0
M  V30 33 C 0.014463 0.411559 5.934003 0
M  V30 34 C -1.089650 0.859241 6.668276 0
M  V30 35 C -1.944362 -0.096371 7.198533 0
M  V30 36 C -1.689483 -1.438055 6.992192 0
M  V30 37 C -0.594071 -1.885131 6.263582 0
M  V30 38 H 1.245921 -3.395824 5.000042 0
M  V30 39 H 1.875464 -2.642938 2.081229 0
M  V30 40 H 4.708653 -3.268839 -0.241269 0
M  V30 41 H 3.283511 -3.530557 -2.154612 0
M  V30 42 H 1.531620 -2.500734 -3.621673 0
M  V30 43 H 2.286527 -0.694223 0.869037 0
M  V30 44 H 1.197600 1.474130 -0.317686 0
M  V30 45 H 0.671715 0.367880 0.931700 0
M  V30 46 H -1.511196 0.544752 0.375659 0
M  V30 47 H -0.979311 2.096886 -0.227787 0
M  V30 48 H -3.148028 1.880168 -0.727035 0
M  V30 49 H -4.646496 1.702904 -2.603335 0
M  V30 50 H -5.399895 2.169894 -4.586454 0
M  V30 51 H -6.064126 0.639764 -3.953252 0
M  V30 52 H -6.409489 -0.220206 -6.157675 0
M  V30 53 H -7.262832 1.400780 -5.928278 0
M  V30 54 H -4.869027 0.825184 -7.421958 0
M  V30 55 H -1.755876 -0.587395 -4.843954 0
M  V30 56 H 6.178704 -2.956440 1.681723 0
M  V30 57 H 6.396654 -2.948701 4.161679 0
M  V30 58 H 0.650902 1.209988 5.541405 0
M  V30 59 H -1.288464 1.923992 6.829873 0
M  V30 60 H -2.787126 0.285297 7.760092 0
M  V30 61 H -2.395764 -2.119859 7.433120 0
M  V30 62 H -0.405778 -2.942154 6.109209 0
M  V30 END ATOM
M  V30 BEGIN BOND
M  V30 1 2 1 2
M  V30 2 1 2 3
M  V30 3 1 3 4
M  V30 4 2 4 5
M  V30 5 1 5 6
M  V30 6 1 6 7
M  V30 7 1 7 8
M  V30 8 2 8 9
M  V30 9 1 9 10
M  V30 10 2 10 11
M  V30 11 1 11 12
M  V30 12 2 12 13
M  V30 13 1 12 14
M  V30 14 1 14 15
M  V30 15 1 15 16
M  V30 16 2 16 17
M  V30 17 1 17 18
M  V30 18 2 18 19
M  V30 19 1 19 20
M  V30 20 1 20 21
M  V30 21 1 21 22
M  V30 22 1 22 23
M  V30 23 1 19 24
M  V30 24 2 24 25
M  V30 25 1 25 26
M  V30 26 2 26 27
M  V30 27 2 6 28
M  V30 28 1 28 29
M  V30 29 2 29 30
M  V30 30 1 30 31
M  V30 31 1 2 32
M  V30 32 2 32 33
M  V30 33 1 33 34
M  V30 34 2 34 35
M  V30 35 1 35 36
M  V30 36 2 36 37
M  V30 37 1 30 4
M  V30 38 1 37 32
M  V30 39 1 13 8
M  V30 40 1 25 16
M  V30 41 1 26 11
M  V30 42 1 3 38
M  V30 43 1 5 39
M  V30 44 1 7 40
M  V30 45 1 9 41
M  V30 46 1 10 42
M  V30 47 1 13 43
M  V30 48 1 14 44
M  V30 49 1 14 45
M  V30 50 1 15 46
M  V30 51 1 15 47
M  V30 52 1 17 48
M  V30 53 1 18 49
M  V30 54 1 21 50
M  V30 55 1 21 51
M  V30 56 1 22 52
M  V30 57 1 22 53
M  V30 58 1 23 54
M  V30 59 1 24 55
M  V30 60 1 28 56
M  V30 61 1 29 57
M  V30 62 1 33 58
M  V30 63 1 34 59
M  V30 64 1 35 60
M  V30 65 1 36 61
M  V30 66 1 37 62
M  V30 END BOND
M  V30 END CTAB
M  END
>  <Dataset>  (262) 
ChEMBL_Kinases

>  <Ligand_Instance>  (262) 
nan

>  <PDB_ID>  (262) 
nan

>  <Standardized_SMILES>  (262) 
O=C(Nc1cc(Nc2ccc3c(c2)CCc2ccc(OCCO)cc2C3=O)ccc1F)c1ccccc1

>  <Name>  (262) 
nan

>  <Pocket>  (262) 
nan

>  <ATP_Site>  (262) 
nan

>  <Peripheral>  (262) 
nan

>  <Num_H_Atoms_ProtBoundConf>  (262) 
nan

>  <Num_Resolved_Atoms>  (262) 
nan

>  <Num_Not_Resolved_Atoms>  (262) 
nan

$$$$
CHEMBL2316482
     RDKit          3D

  0  0  0  0  0  0  0  0  0  0999 V3000
M  V30 BEGIN CTAB
M  V30 COUNTS 58 62 0 0 0
M  V30 BEGIN ATOM
M  V30 1 C 7.670574 -1.827110 3.899764 0
M  V30 2 O 6.676890 -0.821581 3.974726 0
M  V30 3 C 5.778830 -0.717189 2.919834 0
M  V30 4 C 5.797985 -1.536653 1.801556 0
M  V30 5 C 4.862636 -1.372053 0.780760 0
M  V30 6 C 3.909927 -0.384520 0.885487 0
M  V30 7 C 3.912551 0.427749 2.022831 0
M  V30 8 C 4.827474 0.296468 3.062809 0
M  V30 9 C 2.984756 1.535312 2.329279 0
M  V30 10 O 3.368795 2.412926 3.155284 0
M  V30 11 C 1.658158 1.673494 1.736698 0
M  V30 12 C 1.008006 2.771947 2.238423 0
M  V30 13 C -0.260565 3.102096 1.824542 0
M  V30 14 C -0.938831 2.349580 0.889698 0
M  V30 15 N -2.241261 2.720311 0.466723 0
M  V30 16 C -3.302989 1.981209 -0.116413 0
M  V30 17 C -4.290034 2.595552 -0.859726 0
M  V30 18 C -5.321082 1.864032 -1.404038 0
M  V30 19 C -5.437278 0.504936 -1.249443 0
M  V30 20 F -6.459324 -0.199557 -1.792812 0
M  V30 21 C -4.465522 -0.139735 -0.510499 0
M  V30 22 N -4.570614 -1.545745 -0.340571 0
M  V30 23 C -3.886922 -2.224271 -1.389998 0
M  V30 24 O -3.358302 -1.421668 -2.209039 0
M  V30 25 C -3.804830 -3.678938 -1.508042 0
M  V30 26 C -4.377410 -4.572220 -0.626391 0
M  V30 27 C -4.264864 -5.937569 -0.790892 0
M  V30 28 C -3.539013 -6.385468 -1.899510 0
M  V30 29 C -2.945915 -5.524508 -2.812358 0
M  V30 30 C -3.096761 -4.160544 -2.589245 0
M  V30 31 C -3.444426 0.617567 0.023173 0
M  V30 32 C -0.254852 1.270304 0.419805 0
M  V30 33 C 1.015787 0.879093 0.788106 0
M  V30 34 C 1.527965 -0.330620 0.128259 0
M  V30 35 C 2.970568 -0.298337 -0.250373 0
M  V30 36 H 7.233268 -2.812192 3.598154 0
M  V30 37 H 8.248587 -1.912819 4.836792 0
M  V30 38 H 8.355593 -1.542433 3.078619 0
M  V30 39 H 6.558589 -2.309376 1.740008 0
M  V30 40 H 4.868947 -2.006642 -0.096751 0
M  V30 41 H 4.777423 0.957232 3.918291 0
M  V30 42 H 1.506745 3.388202 2.974344 0
M  V30 43 H -0.716404 3.983282 2.261390 0
M  V30 44 H -2.470935 3.734524 0.609239 0
M  V30 45 H -4.193868 3.686212 -0.981639 0
M  V30 46 H -6.088857 2.375142 -1.988084 0
M  V30 47 H -5.051703 -2.133143 0.404152 0
M  V30 48 H -4.921434 -4.158371 0.204085 0
M  V30 49 H -4.721387 -6.613753 -0.087829 0
M  V30 50 H -3.478556 -7.481916 -1.985763 0
M  V30 51 H -2.406966 -5.964051 -3.634883 0
M  V30 52 H -2.630514 -3.502105 -3.306886 0
M  V30 53 H -2.741894 0.025619 0.592483 0
M  V30 54 H -0.677987 0.612504 -0.324590 0
M  V30 55 H 1.332468 -1.265011 0.696386 0
M  V30 56 H 0.958611 -0.458988 -0.830328 0
M  V30 57 H 3.140561 0.602361 -0.874418 0
M  V30 58 H 3.154215 -1.166417 -0.913913 0
M  V30 END ATOM
M  V30 BEGIN BOND
M  V30 1 1 1 2
M  V30 2 1 2 3
M  V30 3 2 3 4
M  V30 4 1 4 5
M  V30 5 2 5 6
M  V30 6 1 6 7
M  V30 7 2 7 8
M  V30 8 1 7 9
M  V30 9 2 9 10
M  V30 10 1 9 11
M  V30 11 2 11 12
M  V30 12 1 12 13
M  V30 13 2 13 14
M  V30 14 1 14 15
M  V30 15 1 15 16
M  V30 16 2 16 17
M  V30 17 1 17 18
M  V30 18 2 18 19
M  V30 19 1 19 20
M  V30 20 1 19 21
M  V30 21 1 21 22
M  V30 22 1 22 23
M  V30 23 2 23 24
M  V30 24 1 23 25
M  V30 25 2 25 26
M  V30 26 1 26 27
M  V30 27 2 27 28
M  V30 28 1 28 29
M  V30 29 2 29 30
M  V30 30 2 21 31
M  V30 31 1 14 32
M  V30 32 2 32 33
M  V30 33 1 33 34
M  V30 34 1 34 35
M  V30 35 1 8 3
M  V30 36 1 33 11
M  V30 37 1 35 6
M  V30 38 1 31 16
M  V30 39 1 30 25
M  V30 40 1 1 36
M  V30 41 1 1 37
M  V30 42 1 1 38
M  V30 43 1 4 39
M  V30 44 1 5 40
M  V30 45 1 8 41
M  V30 46 1 12 42
M  V30 47 1 13 43
M  V30 48 1 15 44
M  V30 49 1 17 45
M  V30 50 1 18 46
M  V30 51 1 22 47
M  V30 52 1 26 48
M  V30 53 1 27 49
M  V30 54 1 28 50
M  V30 55 1 29 51
M  V30 56 1 30 52
M  V30 57 1 31 53
M  V30 58 1 32 54
M  V30 59 1 34 55
M  V30 60 1 34 56
M  V30 61 1 35 57
M  V30 62 1 35 58
M  V30 END BOND
M  V30 END CTAB
M  END
>  <Dataset>  (263) 
ChEMBL_Kinases

>  <Ligand_Instance>  (263) 
nan

>  <PDB_ID>  (263) 
nan

>  <Standardized_SMILES>  (263) 
COc1ccc2c(c1)C(=O)c1ccc(Nc3ccc(F)c(NC(=O)c4ccccc4)c3)cc1CC2

>  <Name>  (263) 
nan

>  <Pocket>  (263) 
nan

>  <ATP_Site>  (263) 
nan

>  <Peripheral>  (263) 
nan

>  <Num_H_Atoms_ProtBoundConf>  (263) 
nan

>  <Num_Resolved_Atoms>  (263) 
nan

>  <Num_Not_Resolved_Atoms>  (263) 
nan

$$$$
CHEMBL2316481
     RDKit          3D

  0  0  0  0  0  0  0  0  0  0999 V3000
M  V30 BEGIN CTAB
M  V30 COUNTS 58 61 0 0 0
M  V30 BEGIN ATOM
M  V30 1 C 3.197466 0.436675 5.155147 0
M  V30 2 N 4.205803 1.402129 5.423908 0
M  V30 3 C 4.854370 1.247410 6.702694 0
M  V30 4 C 5.107170 1.721168 4.376596 0
M  V30 5 C 4.554684 2.455876 3.206513 0
M  V30 6 N 3.516512 1.709326 2.536697 0
M  V30 7 C 3.063447 2.523052 1.433019 0
M  V30 8 O 3.627954 3.646673 1.287257 0
M  V30 9 C 2.019788 2.166317 0.478390 0
M  V30 10 C 1.726409 3.100448 -0.488887 0
M  V30 11 C 0.742756 2.850895 -1.447746 0
M  V30 12 C 0.024760 1.649412 -1.459534 0
M  V30 13 C 0.364991 0.755636 -0.465966 0
M  V30 14 C 1.330703 0.973822 0.493810 0
M  V30 15 C -0.229258 -0.562118 -0.257980 0
M  V30 16 O 0.179229 -1.203412 0.768757 0
M  V30 17 C -1.238374 -1.241341 -1.083184 0
M  V30 18 C -1.757604 -2.310245 -0.371571 0
M  V30 19 C -2.736398 -3.068700 -1.016105 0
M  V30 20 C -3.126577 -2.723341 -2.296658 0
M  V30 21 N -4.125396 -3.535315 -2.900169 0
M  V30 22 C -4.654413 -4.680997 -2.297216 0
M  V30 23 C -5.993982 -4.813692 -1.989554 0
M  V30 24 C -6.447226 -5.974977 -1.396940 0
M  V30 25 C -5.549566 -7.001546 -1.115053 0
M  V30 26 F -6.056853 -8.125741 -0.528396 0
M  V30 27 C -4.205062 -6.874318 -1.421279 0
M  V30 28 C -3.769327 -5.707164 -2.013195 0
M  V30 29 F -2.429711 -5.714783 -2.262306 0
M  V30 30 C -2.579757 -1.656915 -2.952507 0
M  V30 31 C -1.593434 -0.855579 -2.361608 0
M  V30 32 C -1.112032 0.244182 -3.193444 0
M  V30 33 C -0.965295 1.569940 -2.539146 0
M  V30 34 H 2.969540 -0.069142 6.147597 0
M  V30 35 H 2.232790 0.851204 4.794000 0
M  V30 36 H 3.615188 -0.350495 4.498592 0
M  V30 37 H 5.527429 0.352497 6.634214 0
M  V30 38 H 4.110145 0.998640 7.485902 0
M  V30 39 H 5.385647 2.170726 6.986160 0
M  V30 40 H 5.651282 0.796184 4.061975 0
M  V30 41 H 5.920363 2.353017 4.838167 0
M  V30 42 H 4.197849 3.471774 3.482851 0
M  V30 43 H 5.394817 2.561466 2.467197 0
M  V30 44 H 2.970458 0.819980 2.536142 0
M  V30 45 H 2.197304 4.055986 -0.592931 0
M  V30 46 H 0.493540 3.559304 -2.212153 0
M  V30 47 H 1.542335 0.241982 1.229677 0
M  V30 48 H -1.400103 -2.517089 0.628721 0
M  V30 49 H -3.104750 -3.887130 -0.411869 0
M  V30 50 H -4.553103 -3.358627 -3.834504 0
M  V30 51 H -6.642672 -3.978083 -2.234183 0
M  V30 52 H -7.507758 -5.993956 -1.190370 0
M  V30 53 H -3.600257 -7.730957 -1.159762 0
M  V30 54 H -2.890235 -1.389913 -3.959029 0
M  V30 55 H -1.891103 0.387819 -3.998529 0
M  V30 56 H -0.196002 -0.023306 -3.757490 0
M  V30 57 H -1.975060 1.952440 -2.225009 0
M  V30 58 H -0.648812 2.285051 -3.332447 0
M  V30 END ATOM
M  V30 BEGIN BOND
M  V30 1 1 1 2
M  V30 2 1 2 3
M  V30 3 1 2 4
M  V30 4 1 4 5
M  V30 5 1 5 6
M  V30 6 1 6 7
M  V30 7 2 7 8
M  V30 8 1 7 9
M  V30 9 2 9 10
M  V30 10 1 10 11
M  V30 11 2 11 12
M  V30 12 1 12 13
M  V30 13 2 13 14
M  V30 14 1 13 15
M  V30 15 2 15 16
M  V30 16 1 15 17
M  V30 17 2 17 18
M  V30 18 1 18 19
M  V30 19 2 19 20
M  V30 20 1 20 21
M  V30 21 1 21 22
M  V30 22 2 22 23
M  V30 23 1 23 24
M  V30 24 2 24 25
M  V30 25 1 25 26
M  V30 26 1 25 27
M  V30 27 2 27 28
M  V30 28 1 28 29
M  V30 29 1 20 30
M  V30 30 2 30 31
M  V30 31 1 31 32
M  V30 32 1 32 33
M  V30 33 1 14 9
M  V30 34 1 31 17
M  V30 35 1 33 12
M  V30 36 1 28 22
M  V30 37 1 1 34
M  V30 38 1 1 35
M  V30 39 1 1 36
M  V30 40 1 3 37
M  V30 41 1 3 38
M  V30 42 1 3 39
M  V30 43 1 4 40
M  V30 44 1 4 41
M  V30 45 1 5 42
M  V30 46 1 5 43
M  V30 47 1 6 44
M  V30 48 1 10 45
M  V30 49 1 11 46
M  V30 50 1 14 47
M  V30 51 1 18 48
M  V30 52 1 19 49
M  V30 53 1 21 50
M  V30 54 1 23 51
M  V30 55 1 24 52
M  V30 56 1 27 53
M  V30 57 1 30 54
M  V30 58 1 32 55
M  V30 59 1 32 56
M  V30 60 1 33 57
M  V30 61 1 33 58
M  V30 END BOND
M  V30 END CTAB
M  END
>  <Dataset>  (264) 
ChEMBL_Kinases

>  <Ligand_Instance>  (264) 
nan

>  <PDB_ID>  (264) 
nan

>  <Standardized_SMILES>  (264) 
CN(C)CCNC(=O)c1ccc2c(c1)C(=O)c1ccc(Nc3ccc(F)cc3F)cc1CC2

>  <Name>  (264) 
nan

>  <Pocket>  (264) 
nan

>  <ATP_Site>  (264) 
nan

>  <Peripheral>  (264) 
nan

>  <Num_H_Atoms_ProtBoundConf>  (264) 
nan

>  <Num_Resolved_Atoms>  (264) 
nan

>  <Num_Not_Resolved_Atoms>  (264) 
nan

$$$$
CHEMBL2316480
     RDKit          3D

  0  0  0  0  0  0  0  0  0  0999 V3000
M  V30 BEGIN CTAB
M  V30 COUNTS 55 58 0 0 0
M  V30 BEGIN ATOM
M  V30 1 O 3.326493 1.779350 3.321259 0
M  V30 2 C 3.504858 1.657438 2.085489 0
M  V30 3 N 4.789271 2.079316 1.643236 0
M  V30 4 C 5.823599 2.602078 2.475981 0
M  V30 5 C 6.254378 4.001491 2.077596 0
M  V30 6 O 5.110151 4.789219 2.193561 0
M  V30 7 C 7.064787 1.710080 2.479814 0
M  V30 8 O 6.749022 0.438351 2.949903 0
M  V30 9 C 2.480418 1.128980 1.188888 0
M  V30 10 C 2.662505 0.992806 -0.172640 0
M  V30 11 C 1.693983 0.493661 -1.019641 0
M  V30 12 C 0.494208 0.120348 -0.448401 0
M  V30 13 C 0.287478 0.247293 0.914480 0
M  V30 14 C 1.278115 0.754014 1.755205 0
M  V30 15 C -0.890652 -0.082105 1.720438 0
M  V30 16 O -0.991386 0.351558 2.896886 0
M  V30 17 C -1.988423 -0.908914 1.224701 0
M  V30 18 C -3.066252 -0.937983 2.089203 0
M  V30 19 C -4.233225 -1.641785 1.865206 0
M  V30 20 C -4.339641 -2.370931 0.697508 0
M  V30 21 N -5.505107 -3.122877 0.387509 0
M  V30 22 C -5.770149 -3.938025 -0.747243 0
M  V30 23 C -6.805220 -3.731532 -1.636888 0
M  V30 24 C -6.952466 -4.600114 -2.700468 0
M  V30 25 C -6.099293 -5.685979 -2.922558 0
M  V30 26 F -6.306316 -6.499248 -3.992333 0
M  V30 27 C -5.066289 -5.859402 -2.000583 0
M  V30 28 C -4.915774 -4.989656 -0.932345 0
M  V30 29 F -3.847910 -5.350607 -0.167351 0
M  V30 30 C -3.266906 -2.354012 -0.183729 0
M  V30 31 C -2.108513 -1.643364 0.059365 0
M  V30 32 C -1.070589 -1.739709 -0.988036 0
M  V30 33 C -0.504774 -0.405933 -1.396977 0
M  V30 34 H 5.033893 2.017316 0.633503 0
M  V30 35 H 5.523308 2.657044 3.544891 0
M  V30 36 H 6.973132 4.352021 2.831764 0
M  V30 37 H 6.667117 3.978034 1.046840 0
M  V30 38 H 5.082904 5.243681 3.054909 0
M  V30 39 H 7.390663 1.610674 1.427808 0
M  V30 40 H 7.850672 2.153927 3.101226 0
M  V30 41 H 7.518242 0.107788 3.508032 0
M  V30 42 H 3.602808 1.285752 -0.618603 0
M  V30 43 H 1.836199 0.387506 -2.082114 0
M  V30 44 H 1.101584 0.847526 2.821265 0
M  V30 45 H -2.970522 -0.362958 3.000317 0
M  V30 46 H -5.050062 -1.624330 2.588511 0
M  V30 47 H -6.297806 -3.096352 1.064756 0
M  V30 48 H -7.457328 -2.898086 -1.463320 0
M  V30 49 H -7.759336 -4.451659 -3.407294 0
M  V30 50 H -4.445931 -6.719892 -2.235964 0
M  V30 51 H -3.265600 -2.895420 -1.120092 0
M  V30 52 H -0.215879 -2.327267 -0.599322 0
M  V30 53 H -1.478134 -2.293603 -1.858071 0
M  V30 54 H -0.133929 -0.505201 -2.422130 0
M  V30 55 H -1.351294 0.308758 -1.426696 0
M  V30 END ATOM
M  V30 BEGIN BOND
M  V30 1 2 1 2
M  V30 2 1 2 3
M  V30 3 1 3 4
M  V30 4 1 4 5
M  V30 5 1 5 6
M  V30 6 1 4 7
M  V30 7 1 7 8
M  V30 8 1 2 9
M  V30 9 2 9 10
M  V30 10 1 10 11
M  V30 11 2 11 12
M  V30 12 1 12 13
M  V30 13 2 13 14
M  V30 14 1 13 15
M  V30 15 2 15 16
M  V30 16 1 15 17
M  V30 17 2 17 18
M  V30 18 1 18 19
M  V30 19 2 19 20
M  V30 20 1 20 21
M  V30 21 1 21 22
M  V30 22 2 22 23
M  V30 23 1 23 24
M  V30 24 2 24 25
M  V30 25 1 25 26
M  V30 26 1 25 27
M  V30 27 2 27 28
M  V30 28 1 28 29
M  V30 29 1 20 30
M  V30 30 2 30 31
M  V30 31 1 31 32
M  V30 32 1 32 33
M  V30 33 1 14 9
M  V30 34 1 31 17
M  V30 35 1 33 12
M  V30 36 1 28 22
M  V30 37 1 3 34
M  V30 38 1 4 35
M  V30 39 1 5 36
M  V30 40 1 5 37
M  V30 41 1 6 38
M  V30 42 1 7 39
M  V30 43 1 7 40
M  V30 44 1 8 41
M  V30 45 1 10 42
M  V30 46 1 11 43
M  V30 47 1 14 44
M  V30 48 1 18 45
M  V30 49 1 19 46
M  V30 50 1 21 47
M  V30 51 1 23 48
M  V30 52 1 24 49
M  V30 53 1 27 50
M  V30 54 1 30 51
M  V30 55 1 32 52
M  V30 56 1 32 53
M  V30 57 1 33 54
M  V30 58 1 33 55
M  V30 END BOND
M  V30 END CTAB
M  END
>  <Dataset>  (265) 
ChEMBL_Kinases

>  <Ligand_Instance>  (265) 
nan

>  <PDB_ID>  (265) 
nan

>  <Standardized_SMILES>  (265) 
O=C(NC(CO)CO)c1ccc2c(c1)C(=O)c1ccc(Nc3ccc(F)cc3F)cc1CC2

>  <Name>  (265) 
nan

>  <Pocket>  (265) 
nan

>  <ATP_Site>  (265) 
nan

>  <Peripheral>  (265) 
nan

>  <Num_H_Atoms_ProtBoundConf>  (265) 
nan

>  <Num_Resolved_Atoms>  (265) 
nan

>  <Num_Not_Resolved_Atoms>  (265) 
nan

$$$$
CHEMBL2316204
     RDKit          3D

  0  0  0  0  0  0  0  0  0  0999 V3000
M  V30 BEGIN CTAB
M  V30 COUNTS 46 49 0 0 0
M  V30 BEGIN ATOM
M  V30 1 C 5.272776 -4.469580 -4.026967 0
M  V30 2 C 4.720807 -3.093880 -3.960988 0
M  V30 3 O 3.664366 -2.931888 -3.312511 0
M  V30 4 O 4.225879 -1.821054 -3.910129 0
M  V30 5 C 3.050070 -1.504454 -3.217139 0
M  V30 6 C 1.821822 -1.556837 -3.868645 0
M  V30 7 C 0.698364 -1.240781 -3.157824 0
M  V30 8 C 0.716194 -0.871759 -1.826161 0
M  V30 9 C 1.945789 -0.814331 -1.155954 0
M  V30 10 C 3.097912 -1.135203 -1.873312 0
M  V30 11 C 2.260433 -0.456408 0.247749 0
M  V30 12 O 3.454316 -0.537807 0.600168 0
M  V30 13 C 1.231054 -0.025412 1.190375 0
M  V30 14 C 1.737116 -0.103380 2.465574 0
M  V30 15 C 0.932552 0.257436 3.519553 0
M  V30 16 C -0.388362 0.707495 3.400498 0
M  V30 17 N -1.171281 1.083245 4.502093 0
M  V30 18 C -2.526229 0.986419 4.826908 0
M  V30 19 C -3.517272 0.402945 4.088029 0
M  V30 20 C -4.850889 0.336606 4.431363 0
M  V30 21 C -5.233172 0.903517 5.621197 0
M  V30 22 F -6.539361 0.859865 5.997248 0
M  V30 23 C -4.273687 1.505415 6.406515 0
M  V30 24 C -2.967137 1.532188 5.998472 0
M  V30 25 F -2.118425 2.151583 6.855218 0
M  V30 26 C -0.808352 0.753366 2.087939 0
M  V30 27 C -0.063559 0.408737 0.976843 0
M  V30 28 C -0.716709 0.536949 -0.311921 0
M  V30 29 C -0.583932 -0.579445 -1.266612 0
M  V30 30 H 4.542369 -5.149621 -4.515967 0
M  V30 31 H 6.193198 -4.485556 -4.637469 0
M  V30 32 H 5.494369 -4.851237 -3.008005 0
M  V30 33 H 1.858595 -1.848941 -4.903452 0
M  V30 34 H -0.246255 -1.291555 -3.696440 0
M  V30 35 H 4.052849 -1.092777 -1.360819 0
M  V30 36 H 2.740568 -0.439047 2.638023 0
M  V30 37 H 1.362815 0.184997 4.521742 0
M  V30 38 H -0.528891 1.543694 5.215161 0
M  V30 39 H -3.273988 -0.066297 3.154262 0
M  V30 40 H -5.588418 -0.136077 3.809108 0
M  V30 41 H -4.609572 1.941576 7.337062 0
M  V30 42 H -1.779748 1.085945 1.819744 0
M  V30 43 H -0.336784 1.474056 -0.788415 0
M  V30 44 H -1.801545 0.705670 -0.142061 0
M  V30 45 H -0.973058 -1.519208 -0.777720 0
M  V30 46 H -1.289292 -0.385640 -2.104431 0
M  V30 END ATOM
M  V30 BEGIN BOND
M  V30 1 1 1 2
M  V30 2 2 2 3
M  V30 3 1 2 4
M  V30 4 1 4 5
M  V30 5 2 5 6
M  V30 6 1 6 7
M  V30 7 2 7 8
M  V30 8 1 8 9
M  V30 9 2 9 10
M  V30 10 1 9 11
M  V30 11 2 11 12
M  V30 12 1 11 13
M  V30 13 2 13 14
M  V30 14 1 14 15
M  V30 15 2 15 16
M  V30 16 1 16 17
M  V30 17 1 17 18
M  V30 18 2 18 19
M  V30 19 1 19 20
M  V30 20 2 20 21
M  V30 21 1 21 22
M  V30 22 1 21 23
M  V30 23 2 23 24
M  V30 24 1 24 25
M  V30 25 1 16 26
M  V30 26 2 26 27
M  V30 27 1 27 28
M  V30 28 1 28 29
M  V30 29 1 10 5
M  V30 30 1 27 13
M  V30 31 1 29 8
M  V30 32 1 24 18
M  V30 33 1 1 30
M  V30 34 1 1 31
M  V30 35 1 1 32
M  V30 36 1 6 33
M  V30 37 1 7 34
M  V30 38 1 10 35
M  V30 39 1 14 36
M  V30 40 1 15 37
M  V30 41 1 17 38
M  V30 42 1 19 39
M  V30 43 1 20 40
M  V30 44 1 23 41
M  V30 45 1 26 42
M  V30 46 1 28 43
M  V30 47 1 28 44
M  V30 48 1 29 45
M  V30 49 1 29 46
M  V30 END BOND
M  V30 END CTAB
M  END
>  <Dataset>  (266) 
ChEMBL_Kinases

>  <Ligand_Instance>  (266) 
nan

>  <PDB_ID>  (266) 
nan

>  <Standardized_SMILES>  (266) 
CC(=O)Oc1ccc2c(c1)C(=O)c1ccc(Nc3ccc(F)cc3F)cc1CC2

>  <Name>  (266) 
nan

>  <Pocket>  (266) 
nan

>  <ATP_Site>  (266) 
nan

>  <Peripheral>  (266) 
nan

>  <Num_H_Atoms_ProtBoundConf>  (266) 
nan

>  <Num_Resolved_Atoms>  (266) 
nan

>  <Num_Not_Resolved_Atoms>  (266) 
nan

$$$$
CHEMBL2316205
     RDKit          3D

  0  0  0  0  0  0  0  0  0  0999 V3000
M  V30 BEGIN CTAB
M  V30 COUNTS 50 53 0 0 0
M  V30 BEGIN ATOM
M  V30 1 O 5.486824 0.543892 2.592567 0
M  V30 2 C 5.285309 0.120966 1.404652 0
M  V30 3 O 6.414298 -0.032330 0.611669 0
M  V30 4 C 7.695919 0.257230 1.080158 0
M  V30 5 C 8.766824 0.011686 0.032386 0
M  V30 6 O 9.984870 0.337490 0.626976 0
M  V30 7 C 3.949458 -0.196522 0.870033 0
M  V30 8 C 3.843399 -0.648411 -0.432253 0
M  V30 9 C 2.602254 -0.945081 -0.934013 0
M  V30 10 C 1.465972 -0.798427 -0.158419 0
M  V30 11 C 1.633940 -0.338164 1.149931 0
M  V30 12 C 2.862146 -0.025739 1.702114 0
M  V30 13 C 0.584287 -0.106706 2.149834 0
M  V30 14 O 0.878899 0.299407 3.302878 0
M  V30 15 C -0.852670 -0.304835 1.951347 0
M  V30 16 C -1.581721 -0.420719 3.102321 0
M  V30 17 C -2.948642 -0.611861 3.131121 0
M  V30 18 C -3.604029 -0.688706 1.939067 0
M  V30 19 N -5.008076 -0.884183 1.900970 0
M  V30 20 C -5.912218 -0.997336 0.812930 0
M  V30 21 C -6.995862 -0.185840 0.530717 0
M  V30 22 C -7.794487 -0.408571 -0.562793 0
M  V30 23 C -7.557411 -1.450579 -1.433702 0
M  V30 24 F -8.350940 -1.668390 -2.516454 0
M  V30 25 C -6.476022 -2.261579 -1.153363 0
M  V30 26 C -5.649478 -2.058702 -0.051446 0
M  V30 27 F -4.644107 -2.976042 0.032970 0
M  V30 28 C -2.888319 -0.574404 0.765360 0
M  V30 29 C -1.509075 -0.381548 0.736930 0
M  V30 30 C -0.945841 -0.286204 -0.626381 0
M  V30 31 C 0.242170 -1.160041 -0.857225 0
M  V30 32 H 7.937372 -0.428457 1.925484 0
M  V30 33 H 7.763908 1.320747 1.373784 0
M  V30 34 H 8.567636 0.602806 -0.889861 0
M  V30 35 H 8.830480 -1.080762 -0.223341 0
M  V30 36 H 10.244680 -0.438228 1.187151 0
M  V30 37 H 4.704895 -0.778025 -1.074701 0
M  V30 38 H 2.431404 -1.303529 -1.940863 0
M  V30 39 H 2.941255 0.327873 2.722351 0
M  V30 40 H -1.022961 -0.354040 4.024440 0
M  V30 41 H -3.460345 -0.694946 4.081714 0
M  V30 42 H -5.551218 -0.970589 2.787669 0
M  V30 43 H -7.137588 0.614507 1.242761 0
M  V30 44 H -8.634663 0.248301 -0.751715 0
M  V30 45 H -6.327698 -3.079029 -1.876817 0
M  V30 46 H -3.339402 -0.625318 -0.215299 0
M  V30 47 H -0.722009 0.765571 -0.904477 0
M  V30 48 H -1.733978 -0.639252 -1.332468 0
M  V30 49 H -0.034255 -2.224258 -0.707346 0
M  V30 50 H 0.466339 -1.064558 -1.960085 0
M  V30 END ATOM
M  V30 BEGIN BOND
M  V30 1 2 1 2
M  V30 2 1 2 3
M  V30 3 1 3 4
M  V30 4 1 4 5
M  V30 5 1 5 6
M  V30 6 1 2 7
M  V30 7 2 7 8
M  V30 8 1 8 9
M  V30 9 2 9 10
M  V30 10 1 10 11
M  V30 11 2 11 12
M  V30 12 1 11 13
M  V30 13 2 13 14
M  V30 14 1 13 15
M  V30 15 2 15 16
M  V30 16 1 16 17
M  V30 17 2 17 18
M  V30 18 1 18 19
M  V30 19 1 19 20
M  V30 20 2 20 21
M  V30 21 1 21 22
M  V30 22 2 22 23
M  V30 23 1 23 24
M  V30 24 1 23 25
M  V30 25 2 25 26
M  V30 26 1 26 27
M  V30 27 1 18 28
M  V30 28 2 28 29
M  V30 29 1 29 30
M  V30 30 1 30 31
M  V30 31 1 12 7
M  V30 32 1 29 15
M  V30 33 1 31 10
M  V30 34 1 26 20
M  V30 35 1 4 32
M  V30 36 1 4 33
M  V30 37 1 5 34
M  V30 38 1 5 35
M  V30 39 1 6 36
M  V30 40 1 8 37
M  V30 41 1 9 38
M  V30 42 1 12 39
M  V30 43 1 16 40
M  V30 44 1 17 41
M  V30 45 1 19 42
M  V30 46 1 21 43
M  V30 47 1 22 44
M  V30 48 1 25 45
M  V30 49 1 28 46
M  V30 50 1 30 47
M  V30 51 1 30 48
M  V30 52 1 31 49
M  V30 53 1 31 50
M  V30 END BOND
M  V30 END CTAB
M  END
>  <Dataset>  (267) 
ChEMBL_Kinases

>  <Ligand_Instance>  (267) 
nan

>  <PDB_ID>  (267) 
nan

>  <Standardized_SMILES>  (267) 
O=C(OCCO)c1ccc2c(c1)C(=O)c1ccc(Nc3ccc(F)cc3F)cc1CC2

>  <Name>  (267) 
nan

>  <Pocket>  (267) 
nan

>  <ATP_Site>  (267) 
nan

>  <Peripheral>  (267) 
nan

>  <Num_H_Atoms_ProtBoundConf>  (267) 
nan

>  <Num_Resolved_Atoms>  (267) 
nan

>  <Num_Not_Resolved_Atoms>  (267) 
nan

$$$$
CHEMBL2316206
     RDKit          3D

  0  0  0  0  0  0  0  0  0  0999 V3000
M  V30 BEGIN CTAB
M  V30 COUNTS 62 66 0 0 0
M  V30 BEGIN ATOM
M  V30 1 O 3.136164 1.264018 3.887565 0
M  V30 2 C 2.013174 0.703540 3.745814 0
M  V30 3 O 1.533735 -0.042368 4.834173 0
M  V30 4 C 2.228352 -0.183616 6.030733 0
M  V30 5 C 3.564219 -0.827740 5.949917 0
M  V30 6 N 3.625091 -2.154530 5.466650 0
M  V30 7 C 5.011841 -2.583549 5.479275 0
M  V30 8 C 5.837294 -1.989872 4.372038 0
M  V30 9 O 5.032364 -1.249554 3.510888 0
M  V30 10 C 3.958598 -1.995231 3.033246 0
M  V30 11 C 3.079232 -2.434532 4.184260 0
M  V30 12 C 1.296792 0.862926 2.483306 0
M  V30 13 C 1.928588 1.635840 1.530600 0
M  V30 14 C 1.287984 1.824551 0.302605 0
M  V30 15 C 0.044658 1.235813 0.073595 0
M  V30 16 C -0.555740 0.462588 1.066418 0
M  V30 17 C 0.067238 0.263206 2.296552 0
M  V30 18 C -1.836943 -0.241728 1.052352 0
M  V30 19 O -2.323340 -0.640957 2.139641 0
M  V30 20 C -2.602800 -0.515113 -0.181091 0
M  V30 21 C -3.845143 -1.067880 0.108833 0
M  V30 22 C -4.748557 -1.411916 -0.880195 0
M  V30 23 C -4.394361 -1.194831 -2.196866 0
M  V30 24 N -5.257039 -1.516019 -3.266628 0
M  V30 25 C -5.051712 -1.388529 -4.665721 0
M  V30 26 C -5.852902 -0.602731 -5.469105 0
M  V30 27 C -5.633172 -0.493442 -6.835869 0
M  V30 28 C -4.594475 -1.180274 -7.415888 0
M  V30 29 F -4.374170 -1.075016 -8.767121 0
M  V30 30 C -3.799146 -1.963156 -6.604986 0
M  V30 31 C -3.997815 -2.087573 -5.244455 0
M  V30 32 F -3.157864 -2.883721 -4.547904 0
M  V30 33 C -3.166180 -0.647256 -2.504765 0
M  V30 34 C -2.271337 -0.307410 -1.506294 0
M  V30 35 C -1.003929 0.265638 -1.974373 0
M  V30 36 C -0.550802 1.493155 -1.253817 0
M  V30 37 H 1.579493 -0.710633 6.766451 0
M  V30 38 H 2.323307 0.855392 6.457008 0
M  V30 39 H 4.278038 -0.128200 5.432524 0
M  V30 40 H 3.967364 -0.844934 7.008347 0
M  V30 41 H 5.056329 -3.677898 5.398731 0
M  V30 42 H 5.466820 -2.285947 6.465889 0
M  V30 43 H 6.618628 -1.312887 4.758290 0
M  V30 44 H 6.334493 -2.768290 3.743997 0
M  V30 45 H 4.383159 -2.842082 2.453810 0
M  V30 46 H 3.417989 -1.363424 2.301385 0
M  V30 47 H 3.064941 -3.568875 4.103586 0
M  V30 48 H 2.014634 -2.164897 4.057489 0
M  V30 49 H 2.891884 2.109323 1.667517 0
M  V30 50 H 1.705720 2.410754 -0.495901 0
M  V30 51 H -0.405615 -0.336108 3.057368 0
M  V30 52 H -4.091796 -1.225156 1.145818 0
M  V30 53 H -5.713552 -1.839578 -0.684366 0
M  V30 54 H -6.210875 -1.911682 -3.125200 0
M  V30 55 H -6.651286 -0.087087 -4.965883 0
M  V30 56 H -6.292848 0.134331 -7.404939 0
M  V30 57 H -2.982439 -2.496033 -7.094807 0
M  V30 58 H -2.782704 -0.432472 -3.494189 0
M  V30 59 H -0.161025 -0.459559 -1.999070 0
M  V30 60 H -1.159668 0.579630 -3.029374 0
M  V30 61 H -1.345513 2.267004 -1.215592 0
M  V30 62 H 0.265448 1.944335 -1.858562 0
M  V30 END ATOM
M  V30 BEGIN BOND
M  V30 1 2 1 2
M  V30 2 1 2 3
M  V30 3 1 3 4
M  V30 4 1 4 5
M  V30 5 1 5 6
M  V30 6 1 6 7
M  V30 7 1 7 8
M  V30 8 1 8 9
M  V30 9 1 9 10
M  V30 10 1 10 11
M  V30 11 1 2 12
M  V30 12 2 12 13
M  V30 13 1 13 14
M  V30 14 2 14 15
M  V30 15 1 15 16
M  V30 16 2 16 17
M  V30 17 1 16 18
M  V30 18 2 18 19
M  V30 19 1 18 20
M  V30 20 2 20 21
M  V30 21 1 21 22
M  V30 22 2 22 23
M  V30 23 1 23 24
M  V30 24 1 24 25
M  V30 25 2 25 26
M  V30 26 1 26 27
M  V30 27 2 27 28
M  V30 28 1 28 29
M  V30 29 1 28 30
M  V30 30 2 30 31
M  V30 31 1 31 32
M  V30 32 1 23 33
M  V30 33 2 33 34
M  V30 34 1 34 35
M  V30 35 1 35 36
M  V30 36 1 11 6
M  V30 37 1 17 12
M  V30 38 1 34 20
M  V30 39 1 36 15
M  V30 40 1 31 25
M  V30 41 1 4 37
M  V30 42 1 4 38
M  V30 43 1 5 39
M  V30 44 1 5 40
M  V30 45 1 7 41
M  V30 46 1 7 42
M  V30 47 1 8 43
M  V30 48 1 8 44
M  V30 49 1 10 45
M  V30 50 1 10 46
M  V30 51 1 11 47
M  V30 52 1 11 48
M  V30 53 1 13 49
M  V30 54 1 14 50
M  V30 55 1 17 51
M  V30 56 1 21 52
M  V30 57 1 22 53
M  V30 58 1 24 54
M  V30 59 1 26 55
M  V30 60 1 27 56
M  V30 61 1 30 57
M  V30 62 1 33 58
M  V30 63 1 35 59
M  V30 64 1 35 60
M  V30 65 1 36 61
M  V30 66 1 36 62
M  V30 END BOND
M  V30 END CTAB
M  END
>  <Dataset>  (268) 
ChEMBL_Kinases

>  <Ligand_Instance>  (268) 
nan

>  <PDB_ID>  (268) 
nan

>  <Standardized_SMILES>  (268) 
O=C(OCCN1CCOCC1)c1ccc2c(c1)C(=O)c1ccc(Nc3ccc(F)cc3F)cc1CC2

>  <Name>  (268) 
nan

>  <Pocket>  (268) 
nan

>  <ATP_Site>  (268) 
nan

>  <Peripheral>  (268) 
nan

>  <Num_H_Atoms_ProtBoundConf>  (268) 
nan

>  <Num_Resolved_Atoms>  (268) 
nan

>  <Num_Not_Resolved_Atoms>  (268) 
nan

$$$$
CHEMBL2316208
     RDKit          3D

  0  0  0  0  0  0  0  0  0  0999 V3000
M  V30 BEGIN CTAB
M  V30 COUNTS 54 58 0 0 0
M  V30 BEGIN ATOM
M  V30 1 O 0.233460 -5.196426 0.310560 0
M  V30 2 C -0.206521 -5.233746 -0.852390 0
M  V30 3 N 0.619053 -4.576962 -1.817615 0
M  V30 4 C 1.771668 -4.032233 -1.167406 0
M  V30 5 C 1.763180 -2.753336 -0.654917 0
M  V30 6 C 2.793985 -2.130279 -0.019353 0
M  V30 7 N 2.825542 -0.818157 0.504616 0
M  V30 8 C 1.885411 0.237396 0.510150 0
M  V30 9 C 1.003142 0.551115 -0.500324 0
M  V30 10 C 0.073576 1.567057 -0.465782 0
M  V30 11 C 0.013778 2.341712 0.672229 0
M  V30 12 C 0.854861 2.108374 1.739153 0
M  V30 13 C 1.753098 1.072220 1.619242 0
M  V30 14 C 0.949358 2.811985 3.027615 0
M  V30 15 C 0.725811 4.280413 2.991316 0
M  V30 16 C -0.659081 4.697111 2.678487 0
M  V30 17 C -1.240364 5.591914 3.582311 0
M  V30 18 C -2.528705 6.032142 3.366326 0
M  V30 19 C -3.277728 5.616573 2.275004 0
M  V30 20 C -2.751406 4.733464 1.351750 0
M  V30 21 C -1.447445 4.301863 1.590414 0
M  V30 22 C -1.036118 3.369718 0.521174 0
M  V30 23 O -1.636914 3.474467 -0.595999 0
M  V30 24 C 3.932715 -2.897048 0.096930 0
M  V30 25 F 5.063860 -2.416769 0.713078 0
M  V30 26 C 4.006149 -4.180160 -0.392772 0
M  V30 27 C 2.931878 -4.764385 -1.029439 0
M  V30 28 F 2.967057 -6.025954 -1.525185 0
M  V30 29 C -1.461303 -5.904435 -1.142133 0
M  V30 30 C -2.094433 -6.472819 -0.054159 0
M  V30 31 C -3.307290 -7.141378 -0.223717 0
M  V30 32 C -3.847378 -7.214685 -1.502304 0
M  V30 33 C -3.182616 -6.636133 -2.546819 0
M  V30 34 C -1.979542 -5.965519 -2.418627 0
M  V30 35 H 0.285964 -4.582325 -2.821595 0
M  V30 36 H 0.831865 -2.223646 -0.775217 0
M  V30 37 H 3.694404 -0.508040 0.994065 0
M  V30 38 H 1.016404 -0.007912 -1.410362 0
M  V30 39 H -0.593403 1.763454 -1.292955 0
M  V30 40 H 2.412608 0.906396 2.482596 0
M  V30 41 H 0.161763 2.381292 3.693399 0
M  V30 42 H 1.924066 2.641170 3.535170 0
M  V30 43 H 0.939390 4.662763 4.010058 0
M  V30 44 H 1.410248 4.823090 2.301900 0
M  V30 45 H -0.651441 5.902862 4.417798 0
M  V30 46 H -2.968280 6.723360 4.070688 0
M  V30 47 H -4.293147 5.971034 2.115458 0
M  V30 48 H -3.275476 4.373678 0.488780 0
M  V30 49 H 4.920299 -4.758359 -0.284365 0
M  V30 50 H -1.715550 -6.443778 0.962157 0
M  V30 51 H -3.800660 -7.586272 0.634718 0
M  V30 52 H -4.784800 -7.741670 -1.578211 0
M  V30 53 H -3.662890 -6.732100 -3.518610 0
M  V30 54 H -1.471139 -5.515547 -3.258188 0
M  V30 END ATOM
M  V30 BEGIN BOND
M  V30 1 2 1 2
M  V30 2 1 2 3
M  V30 3 1 3 4
M  V30 4 2 4 5
M  V30 5 1 5 6
M  V30 6 1 6 7
M  V30 7 1 7 8
M  V30 8 2 8 9
M  V30 9 1 9 10
M  V30 10 2 10 11
M  V30 11 1 11 12
M  V30 12 2 12 13
M  V30 13 1 12 14
M  V30 14 1 14 15
M  V30 15 1 15 16
M  V30 16 2 16 17
M  V30 17 1 17 18
M  V30 18 2 18 19
M  V30 19 1 19 20
M  V30 20 2 20 21
M  V30 21 1 21 22
M  V30 22 2 22 23
M  V30 23 2 6 24
M  V30 24 1 24 25
M  V30 25 1 24 26
M  V30 26 2 26 27
M  V30 27 1 27 28
M  V30 28 1 2 29
M  V30 29 2 29 30
M  V30 30 1 30 31
M  V30 31 2 31 32
M  V30 32 1 32 33
M  V30 33 2 33 34
M  V30 34 1 27 4
M  V30 35 1 34 29
M  V30 36 1 13 8
M  V30 37 1 21 16
M  V30 38 1 22 11
M  V30 39 1 3 35
M  V30 40 1 5 36
M  V30 41 1 7 37
M  V30 42 1 9 38
M  V30 43 1 10 39
M  V30 44 1 13 40
M  V30 45 1 14 41
M  V30 46 1 14 42
M  V30 47 1 15 43
M  V30 48 1 15 44
M  V30 49 1 17 45
M  V30 50 1 18 46
M  V30 51 1 19 47
M  V30 52 1 20 48
M  V30 53 1 26 49
M  V30 54 1 30 50
M  V30 55 1 31 51
M  V30 56 1 32 52
M  V30 57 1 33 53
M  V30 58 1 34 54
M  V30 END BOND
M  V30 END CTAB
M  END
>  <Dataset>  (269) 
ChEMBL_Kinases

>  <Ligand_Instance>  (269) 
nan

>  <PDB_ID>  (269) 
nan

>  <Standardized_SMILES>  (269) 
O=C(Nc1cc(Nc2ccc3c(c2)CCc2ccccc2C3=O)c(F)cc1F)c1ccccc1

>  <Name>  (269) 
nan

>  <Pocket>  (269) 
nan

>  <ATP_Site>  (269) 
nan

>  <Peripheral>  (269) 
nan

>  <Num_H_Atoms_ProtBoundConf>  (269) 
nan

>  <Num_Resolved_Atoms>  (269) 
nan

>  <Num_Not_Resolved_Atoms>  (269) 
nan

$$$$
CHEMBL2316466
     RDKit          3D

  0  0  0  0  0  0  0  0  0  0999 V3000
M  V30 BEGIN CTAB
M  V30 COUNTS 71 76 0 0 0
M  V30 BEGIN ATOM
M  V30 1 O 4.244531 8.096778 0.883077 0
M  V30 2 C 5.061738 7.186253 1.078984 0
M  V30 3 N 4.968848 6.138394 0.145740 0
M  V30 4 C 4.229664 5.759936 -0.974547 0
M  V30 5 C 3.082465 4.988615 -0.752743 0
M  V30 6 C 2.170722 4.484821 -1.704211 0
M  V30 7 N 1.080118 3.721902 -1.231176 0
M  V30 8 C 0.596116 2.402652 -1.398716 0
M  V30 9 C 0.994692 1.527013 -2.379947 0
M  V30 10 C 0.490323 0.237376 -2.474995 0
M  V30 11 C -0.440935 -0.148154 -1.534729 0
M  V30 12 C -0.846970 0.727847 -0.543040 0
M  V30 13 C -0.344674 2.008343 -0.453152 0
M  V30 14 C -1.840062 0.430658 0.558509 0
M  V30 15 C -1.369785 -0.770128 1.351186 0
M  V30 16 C -1.669163 -2.070235 0.680360 0
M  V30 17 C -2.202214 -3.042633 1.507001 0
M  V30 18 C -2.512167 -4.267756 0.959014 0
M  V30 19 C -2.342587 -4.625754 -0.350695 0
M  V30 20 O -2.614352 -5.791152 -0.971277 0
M  V30 21 C -3.132840 -6.991360 -0.552366 0
M  V30 22 C -4.495262 -7.010966 0.034477 0
M  V30 23 N -4.952197 -8.312485 0.440981 0
M  V30 24 C -6.261784 -8.160021 1.051481 0
M  V30 25 C -6.147807 -8.052078 2.563239 0
M  V30 26 O -4.878400 -7.515805 2.892856 0
M  V30 27 C -3.971147 -8.549798 2.703972 0
M  V30 28 C -4.076004 -9.040076 1.285307 0
M  V30 29 C -1.801170 -3.634661 -1.182462 0
M  V30 30 C -1.479621 -2.395182 -0.656588 0
M  V30 31 C -0.913559 -1.537273 -1.722219 0
M  V30 32 O -0.802599 -1.978458 -2.901664 0
M  V30 33 C 2.535492 4.849606 -2.992815 0
M  V30 34 F 1.667679 4.380748 -3.946355 0
M  V30 35 C 3.628978 5.598232 -3.340460 0
M  V30 36 C 4.425585 6.017719 -2.307435 0
M  V30 37 F 5.545009 6.775887 -2.561470 0
M  V30 38 C 6.083775 7.017925 2.096926 0
M  V30 39 C 5.914606 8.102565 2.868162 0
M  V30 40 C 6.865663 8.133066 4.008699 0
M  V30 41 S 7.902764 6.559008 3.814890 0
M  V30 42 C 7.043992 5.950348 2.265318 0
M  V30 43 H 5.572138 5.260177 0.118734 0
M  V30 44 H 2.851922 4.735389 0.293493 0
M  V30 45 H 0.555081 4.411312 -0.610106 0
M  V30 46 H 1.719390 1.837053 -3.097977 0
M  V30 47 H 0.754368 -0.489940 -3.209642 0
M  V30 48 H -0.692225 2.675860 0.349603 0
M  V30 49 H -1.912604 1.282276 1.237735 0
M  V30 50 H -2.823920 0.249265 0.070536 0
M  V30 51 H -0.242377 -0.706613 1.330649 0
M  V30 52 H -1.793146 -0.715497 2.353531 0
M  V30 53 H -2.356347 -2.812097 2.553097 0
M  V30 54 H -2.914899 -5.001774 1.614378 0
M  V30 55 H -3.141189 -7.662017 -1.468431 0
M  V30 56 H -2.358816 -7.481696 0.088429 0
M  V30 57 H -4.719190 -6.291084 0.821133 0
M  V30 58 H -5.200672 -6.715164 -0.804180 0
M  V30 59 H -6.875852 -9.038701 0.803034 0
M  V30 60 H -6.716031 -7.194730 0.712967 0
M  V30 61 H -6.185235 -9.047553 3.051816 0
M  V30 62 H -6.892917 -7.398420 3.023496 0
M  V30 63 H -2.928198 -8.194430 2.932203 0
M  V30 64 H -4.145145 -9.353648 3.459653 0
M  V30 65 H -3.067292 -9.202158 0.905185 0
M  V30 66 H -4.517321 -10.080643 1.361640 0
M  V30 67 H -1.623652 -3.810052 -2.247329 0
M  V30 68 H 3.826991 5.826784 -4.369130 0
M  V30 69 H 5.517798 9.012904 3.217551 0
M  V30 70 H 7.490023 8.394581 4.974849 0
M  V30 71 H 7.019131 5.179469 1.545564 0
M  V30 END ATOM
M  V30 BEGIN BOND
M  V30 1 2 1 2
M  V30 2 1 2 3
M  V30 3 1 3 4
M  V30 4 2 4 5
M  V30 5 1 5 6
M  V30 6 1 6 7
M  V30 7 1 7 8
M  V30 8 2 8 9
M  V30 9 1 9 10
M  V30 10 2 10 11
M  V30 11 1 11 12
M  V30 12 2 12 13
M  V30 13 1 12 14
M  V30 14 1 14 15
M  V30 15 1 15 16
M  V30 16 2 16 17
M  V30 17 1 17 18
M  V30 18 2 18 19
M  V30 19 1 19 20
M  V30 20 1 20 21
M  V30 21 1 21 22
M  V30 22 1 22 23
M  V30 23 1 23 24
M  V30 24 1 24 25
M  V30 25 1 25 26
M  V30 26 1 26 27
M  V30 27 1 27 28
M  V30 28 1 19 29
M  V30 29 2 29 30
M  V30 30 1 30 31
M  V30 31 2 31 32
M  V30 32 2 6 33
M  V30 33 1 33 34
M  V30 34 1 33 35
M  V30 35 2 35 36
M  V30 36 1 36 37
M  V30 37 1 2 38
M  V30 38 1 38 39
M  V30 39 2 39 40
M  V30 40 1 40 41
M  V30 41 1 41 42
M  V30 42 1 36 4
M  V30 43 2 42 38
M  V30 44 1 13 8
M  V30 45 1 30 16
M  V30 46 1 31 11
M  V30 47 1 28 23
M  V30 48 1 3 43
M  V30 49 1 5 44
M  V30 50 1 7 45
M  V30 51 1 9 46
M  V30 52 1 10 47
M  V30 53 1 13 48
M  V30 54 1 14 49
M  V30 55 1 14 50
M  V30 56 1 15 51
M  V30 57 1 15 52
M  V30 58 1 17 53
M  V30 59 1 18 54
M  V30 60 1 21 55
M  V30 61 1 21 56
M  V30 62 1 22 57
M  V30 63 1 22 58
M  V30 64 1 24 59
M  V30 65 1 24 60
M  V30 66 1 25 61
M  V30 67 1 25 62
M  V30 68 1 27 63
M  V30 69 1 27 64
M  V30 70 1 28 65
M  V30 71 1 28 66
M  V30 72 1 29 67
M  V30 73 1 35 68
M  V30 74 1 39 69
M  V30 75 1 40 70
M  V30 76 1 42 71
M  V30 END BOND
M  V30 END CTAB
M  END
>  <Dataset>  (270) 
ChEMBL_Kinases

>  <Ligand_Instance>  (270) 
nan

>  <PDB_ID>  (270) 
nan

>  <Standardized_SMILES>  (270) 
O=C(Nc1cc(Nc2ccc3c(c2)CCc2ccc(OCCN4CCOCC4)cc2C3=O)c(F)cc1F)c1ccsc1

>  <Name>  (270) 
nan

>  <Pocket>  (270) 
nan

>  <ATP_Site>  (270) 
nan

>  <Peripheral>  (270) 
nan

>  <Num_H_Atoms_ProtBoundConf>  (270) 
nan

>  <Num_Resolved_Atoms>  (270) 
nan

>  <Num_Not_Resolved_Atoms>  (270) 
nan

$$$$
CHEMBL2316467
     RDKit          3D

  0  0  0  0  0  0  0  0  0  0999 V3000
M  V30 BEGIN CTAB
M  V30 COUNTS 55 59 0 0 0
M  V30 BEGIN ATOM
M  V30 1 O 0.720625 -2.358993 2.351071 0
M  V30 2 C 0.194170 -1.401043 1.729576 0
M  V30 3 C 0.924571 -0.151971 1.556054 0
M  V30 4 C 2.132672 -0.259812 2.205626 0
M  V30 5 C 2.981612 0.819423 2.165036 0
M  V30 6 C 2.726386 2.033578 1.515146 0
M  V30 7 N 3.649239 3.084307 1.502712 0
M  V30 8 C 3.537094 4.481715 1.525915 0
M  V30 9 C 2.405538 5.225865 1.614506 0
M  V30 10 C 2.312948 6.600399 1.621597 0
M  V30 11 C 3.506805 7.310232 1.528436 0
M  V30 12 F 3.468879 8.663665 1.530636 0
M  V30 13 C 4.688454 6.610047 1.436366 0
M  V30 14 C 4.686258 5.234868 1.436514 0
M  V30 15 F 5.922971 4.650982 1.340786 0
M  V30 16 C 1.491415 2.035298 0.897061 0
M  V30 17 C 0.597593 1.011959 0.891514 0
M  V30 18 C -0.663086 1.271586 0.149945 0
M  V30 19 C -1.896116 0.828250 0.906866 0
M  V30 20 C -2.116152 -0.639496 0.824825 0
M  V30 21 C -3.351406 -1.048921 0.343444 0
M  V30 22 C -3.638230 -2.395116 0.235325 0
M  V30 23 C -2.695304 -3.333707 0.606499 0
M  V30 24 C -2.971567 -4.761069 0.502972 0
M  V30 25 O -3.560858 -5.502233 1.332910 0
M  V30 26 N -2.593596 -5.560671 -0.610715 0
M  V30 27 C -2.934921 -6.969026 -0.574966 0
M  V30 28 C -1.943671 -7.823465 -1.331649 0
M  V30 29 O -1.687950 -7.377913 -2.611079 0
M  V30 30 C -2.279140 -6.148724 -2.884040 0
M  V30 31 C -1.883623 -5.137129 -1.826499 0
M  V30 32 C -1.440332 -2.969308 1.095646 0
M  V30 33 C -1.170155 -1.602006 1.197148 0
M  V30 34 H 2.432416 -1.147574 2.737052 0
M  V30 35 H 3.940546 0.715489 2.689199 0
M  V30 36 H 4.629473 2.675933 1.463063 0
M  V30 37 H 1.457283 4.732817 1.700567 0
M  V30 38 H 1.377112 7.129683 1.694556 0
M  V30 39 H 5.607782 7.179692 1.364474 0
M  V30 40 H 1.158869 2.881435 0.349658 0
M  V30 41 H -0.652649 0.854595 -0.873185 0
M  V30 42 H -0.768753 2.391537 0.058615 0
M  V30 43 H -1.723374 1.030387 2.002929 0
M  V30 44 H -2.770794 1.360227 0.536221 0
M  V30 45 H -4.025525 -0.242343 0.078219 0
M  V30 46 H -4.613520 -2.679719 -0.145682 0
M  V30 47 H -2.869131 -7.292607 0.482893 0
M  V30 48 H -3.935433 -7.166501 -1.008285 0
M  V30 49 H -2.332140 -8.849149 -1.354709 0
M  V30 50 H -0.973685 -7.871177 -0.767130 0
M  V30 51 H -1.984083 -5.849293 -3.900883 0
M  V30 52 H -3.382565 -6.291427 -2.782886 0
M  V30 53 H -2.261613 -4.146221 -2.162000 0
M  V30 54 H -0.802794 -5.104139 -1.654001 0
M  V30 55 H -0.683462 -3.674151 1.393378 0
M  V30 END ATOM
M  V30 BEGIN BOND
M  V30 1 2 1 2
M  V30 2 1 2 3
M  V30 3 2 3 4
M  V30 4 1 4 5
M  V30 5 2 5 6
M  V30 6 1 6 7
M  V30 7 1 7 8
M  V30 8 2 8 9
M  V30 9 1 9 10
M  V30 10 2 10 11
M  V30 11 1 11 12
M  V30 12 1 11 13
M  V30 13 2 13 14
M  V30 14 1 14 15
M  V30 15 1 6 16
M  V30 16 2 16 17
M  V30 17 1 17 18
M  V30 18 1 18 19
M  V30 19 1 19 20
M  V30 20 2 20 21
M  V30 21 1 21 22
M  V30 22 2 22 23
M  V30 23 1 23 24
M  V30 24 2 24 25
M  V30 25 1 24 26
M  V30 26 1 26 27
M  V30 27 1 27 28
M  V30 28 1 28 29
M  V30 29 1 29 30
M  V30 30 1 30 31
M  V30 31 1 23 32
M  V30 32 2 32 33
M  V30 33 1 33 2
M  V30 34 1 17 3
M  V30 35 1 33 20
M  V30 36 1 14 8
M  V30 37 1 31 26
M  V30 38 1 4 34
M  V30 39 1 5 35
M  V30 40 1 7 36
M  V30 41 1 9 37
M  V30 42 1 10 38
M  V30 43 1 13 39
M  V30 44 1 16 40
M  V30 45 1 18 41
M  V30 46 1 18 42
M  V30 47 1 19 43
M  V30 48 1 19 44
M  V30 49 1 21 45
M  V30 50 1 22 46
M  V30 51 1 27 47
M  V30 52 1 27 48
M  V30 53 1 28 49
M  V30 54 1 28 50
M  V30 55 1 30 51
M  V30 56 1 30 52
M  V30 57 1 31 53
M  V30 58 1 31 54
M  V30 59 1 32 55
M  V30 END BOND
M  V30 END CTAB
M  END
>  <Dataset>  (271) 
ChEMBL_Kinases

>  <Ligand_Instance>  (271) 
nan

>  <PDB_ID>  (271) 
nan

>  <Standardized_SMILES>  (271) 
O=C1c2ccc(Nc3ccc(F)cc3F)cc2CCc2ccc(C(=O)N3CCOCC3)cc21

>  <Name>  (271) 
nan

>  <Pocket>  (271) 
nan

>  <ATP_Site>  (271) 
nan

>  <Peripheral>  (271) 
nan

>  <Num_H_Atoms_ProtBoundConf>  (271) 
nan

>  <Num_Resolved_Atoms>  (271) 
nan

>  <Num_Not_Resolved_Atoms>  (271) 
nan

$$$$
CHEMBL2316468
     RDKit          3D

  0  0  0  0  0  0  0  0  0  0999 V3000
M  V30 BEGIN CTAB
M  V30 COUNTS 43 46 0 0 0
M  V30 BEGIN ATOM
M  V30 1 O 6.595567 -2.328212 -2.312802 0
M  V30 2 C 5.883040 -3.311839 -1.962029 0
M  V30 3 O 6.500883 -4.483791 -2.375061 0
M  V30 4 C 4.607612 -3.218551 -1.234448 0
M  V30 5 C 3.881482 -4.337842 -0.883506 0
M  V30 6 C 2.695820 -4.154324 -0.201797 0
M  V30 7 C 2.236294 -2.880528 0.127425 0
M  V30 8 C 3.007372 -1.770963 -0.249511 0
M  V30 9 C 4.210172 -1.931177 -0.939668 0
M  V30 10 C 2.747906 -0.328429 -0.024373 0
M  V30 11 O 3.713941 0.469948 -0.187781 0
M  V30 12 C 1.437305 0.174869 0.370871 0
M  V30 13 C 1.541941 1.513480 0.623452 0
M  V30 14 C 0.427785 2.218917 1.017043 0
M  V30 15 C -0.841785 1.650441 1.182842 0
M  V30 16 N -1.981564 2.391339 1.570209 0
M  V30 17 C -3.096084 2.122508 2.359227 0
M  V30 18 C -3.377424 0.974464 3.061946 0
M  V30 19 C -4.502382 0.738876 3.823016 0
M  V30 20 C -5.438243 1.749946 3.888971 0
M  V30 21 F -6.576084 1.622789 4.606532 0
M  V30 22 C -5.211160 2.925150 3.205488 0
M  V30 23 C -4.065413 3.091375 2.464694 0
M  V30 24 F -3.943175 4.287484 1.831991 0
M  V30 25 C -0.853019 0.301061 0.906523 0
M  V30 26 C 0.224059 -0.462847 0.509355 0
M  V30 27 C -0.066026 -1.895230 0.278663 0
M  V30 28 C 0.948909 -2.829150 0.859712 0
M  V30 29 H 7.477329 -4.651597 -2.113559 0
M  V30 30 H 4.233400 -5.322694 -1.136121 0
M  V30 31 H 2.086099 -4.996310 0.098168 0
M  V30 32 H 4.789648 -1.048634 -1.220276 0
M  V30 33 H 2.496825 2.026592 0.516503 0
M  V30 34 H 0.540706 3.289716 1.212501 0
M  V30 35 H -1.898620 3.337562 1.123934 0
M  V30 36 H -2.671920 0.172558 3.045948 0
M  V30 37 H -4.662744 -0.180920 4.347892 0
M  V30 38 H -5.961297 3.704960 3.273006 0
M  V30 39 H -1.757774 -0.282910 0.971915 0
M  V30 40 H -1.068960 -2.192672 0.567942 0
M  V30 41 H -0.020292 -2.049789 -0.838984 0
M  V30 42 H 1.165902 -2.632148 1.938637 0
M  V30 43 H 0.518939 -3.852860 0.784300 0
M  V30 END ATOM
M  V30 BEGIN BOND
M  V30 1 2 1 2
M  V30 2 1 2 3
M  V30 3 1 2 4
M  V30 4 2 4 5
M  V30 5 1 5 6
M  V30 6 2 6 7
M  V30 7 1 7 8
M  V30 8 2 8 9
M  V30 9 1 8 10
M  V30 10 2 10 11
M  V30 11 1 10 12
M  V30 12 2 12 13
M  V30 13 1 13 14
M  V30 14 2 14 15
M  V30 15 1 15 16
M  V30 16 1 16 17
M  V30 17 2 17 18
M  V30 18 1 18 19
M  V30 19 2 19 20
M  V30 20 1 20 21
M  V30 21 1 20 22
M  V30 22 2 22 23
M  V30 23 1 23 24
M  V30 24 1 15 25
M  V30 25 2 25 26
M  V30 26 1 26 27
M  V30 27 1 27 28
M  V30 28 1 9 4
M  V30 29 1 26 12
M  V30 30 1 28 7
M  V30 31 1 23 17
M  V30 32 1 3 29
M  V30 33 1 5 30
M  V30 34 1 6 31
M  V30 35 1 9 32
M  V30 36 1 13 33
M  V30 37 1 14 34
M  V30 38 1 16 35
M  V30 39 1 18 36
M  V30 40 1 19 37
M  V30 41 1 22 38
M  V30 42 1 25 39
M  V30 43 1 27 40
M  V30 44 1 27 41
M  V30 45 1 28 42
M  V30 46 1 28 43
M  V30 END BOND
M  V30 END CTAB
M  END
>  <Dataset>  (272) 
ChEMBL_Kinases

>  <Ligand_Instance>  (272) 
nan

>  <PDB_ID>  (272) 
nan

>  <Standardized_SMILES>  (272) 
O=C(O)c1ccc2c(c1)C(=O)c1ccc(Nc3ccc(F)cc3F)cc1CC2

>  <Name>  (272) 
nan

>  <Pocket>  (272) 
nan

>  <ATP_Site>  (272) 
nan

>  <Peripheral>  (272) 
nan

>  <Num_H_Atoms_ProtBoundConf>  (272) 
nan

>  <Num_Resolved_Atoms>  (272) 
nan

>  <Num_Not_Resolved_Atoms>  (272) 
nan

$$$$
CHEMBL2316469
     RDKit          3D

  0  0  0  0  0  0  0  0  0  0999 V3000
M  V30 BEGIN CTAB
M  V30 COUNTS 44 47 0 0 0
M  V30 BEGIN ATOM
M  V30 1 N 5.868878 3.647616 1.662830 0
M  V30 2 C 6.381786 2.479827 1.024126 0
M  V30 3 O 7.612080 2.266247 0.832404 0
M  V30 4 C 5.435897 1.469820 0.563301 0
M  V30 5 C 5.866253 0.318133 -0.061682 0
M  V30 6 C 5.029181 -0.679981 -0.523514 0
M  V30 7 C 3.651674 -0.509788 -0.344493 0
M  V30 8 C 3.182464 0.649868 0.287185 0
M  V30 9 C 4.077492 1.616776 0.729027 0
M  V30 10 C 1.782284 1.023684 0.573214 0
M  V30 11 O 1.591011 2.218714 0.914717 0
M  V30 12 C 0.626245 0.126445 0.490574 0
M  V30 13 C -0.551787 0.821055 0.647217 0
M  V30 14 C -1.713883 0.099328 0.591210 0
M  V30 15 C -1.832972 -1.258279 0.394020 0
M  V30 16 N -3.025493 -2.009946 0.364148 0
M  V30 17 C -4.239230 -1.919638 1.056996 0
M  V30 18 C -4.585788 -1.032079 2.045838 0
M  V30 19 C -5.801206 -0.972978 2.689585 0
M  V30 20 C -6.768102 -1.865113 2.333851 0
M  V30 21 F -7.975694 -1.853403 2.929980 0
M  V30 22 C -6.481040 -2.781774 1.347676 0
M  V30 23 C -5.251517 -2.796589 0.737699 0
M  V30 24 F -5.074159 -3.753851 -0.232745 0
M  V30 25 C -0.583282 -1.872787 0.245700 0
M  V30 26 C 0.637860 -1.236455 0.286029 0
M  V30 27 C 1.786208 -2.111768 0.103337 0
M  V30 28 C 2.817205 -1.621310 -0.865242 0
M  V30 29 H 6.027415 4.672604 1.637263 0
M  V30 30 H 5.104672 3.525198 2.383549 0
M  V30 31 H 6.943071 0.211998 -0.187680 0
M  V30 32 H 5.367956 -1.573387 -1.008661 0
M  V30 33 H 3.658782 2.483195 1.205469 0
M  V30 34 H -0.534909 1.888348 0.806180 0
M  V30 35 H -2.609132 0.692163 0.704687 0
M  V30 36 H -2.925990 -2.775862 -0.340469 0
M  V30 37 H -3.856202 -0.313600 2.373042 0
M  V30 38 H -5.995691 -0.241511 3.459787 0
M  V30 39 H -7.251513 -3.493763 1.063486 0
M  V30 40 H -0.545998 -2.957935 0.081481 0
M  V30 41 H 1.432414 -3.090480 -0.283004 0
M  V30 42 H 2.292097 -2.361926 1.070629 0
M  V30 43 H 2.344421 -1.334364 -1.826207 0
M  V30 44 H 3.484130 -2.463269 -1.084954 0
M  V30 END ATOM
M  V30 BEGIN BOND
M  V30 1 1 1 2
M  V30 2 2 2 3
M  V30 3 1 2 4
M  V30 4 2 4 5
M  V30 5 1 5 6
M  V30 6 2 6 7
M  V30 7 1 7 8
M  V30 8 2 8 9
M  V30 9 1 8 10
M  V30 10 2 10 11
M  V30 11 1 10 12
M  V30 12 2 12 13
M  V30 13 1 13 14
M  V30 14 2 14 15
M  V30 15 1 15 16
M  V30 16 1 16 17
M  V30 17 2 17 18
M  V30 18 1 18 19
M  V30 19 2 19 20
M  V30 20 1 20 21
M  V30 21 1 20 22
M  V30 22 2 22 23
M  V30 23 1 23 24
M  V30 24 1 15 25
M  V30 25 2 25 26
M  V30 26 1 26 27
M  V30 27 1 27 28
M  V30 28 1 9 4
M  V30 29 1 26 12
M  V30 30 1 28 7
M  V30 31 1 23 17
M  V30 32 1 1 29
M  V30 33 1 1 30
M  V30 34 1 5 31
M  V30 35 1 6 32
M  V30 36 1 9 33
M  V30 37 1 13 34
M  V30 38 1 14 35
M  V30 39 1 16 36
M  V30 40 1 18 37
M  V30 41 1 19 38
M  V30 42 1 22 39
M  V30 43 1 25 40
M  V30 44 1 27 41
M  V30 45 1 27 42
M  V30 46 1 28 43
M  V30 47 1 28 44
M  V30 END BOND
M  V30 END CTAB
M  END
>  <Dataset>  (273) 
ChEMBL_Kinases

>  <Ligand_Instance>  (273) 
nan

>  <PDB_ID>  (273) 
nan

>  <Standardized_SMILES>  (273) 
NC(=O)c1ccc2c(c1)C(=O)c1ccc(Nc3ccc(F)cc3F)cc1CC2

>  <Name>  (273) 
nan

>  <Pocket>  (273) 
nan

>  <ATP_Site>  (273) 
nan

>  <Peripheral>  (273) 
nan

>  <Num_H_Atoms_ProtBoundConf>  (273) 
nan

>  <Num_Resolved_Atoms>  (273) 
nan

>  <Num_Not_Resolved_Atoms>  (273) 
nan

$$$$
CHEMBL2316479
     RDKit          3D

  0  0  0  0  0  0  0  0  0  0999 V3000
M  V30 BEGIN CTAB
M  V30 COUNTS 55 58 0 0 0
M  V30 BEGIN ATOM
M  V30 1 O 4.424422 2.748125 0.186797 0
M  V30 2 C 3.849614 1.882652 0.903310 0
M  V30 3 N 4.457736 1.494167 2.106486 0
M  V30 4 C 5.684191 1.953459 2.667344 0
M  V30 5 C 5.590219 3.447694 2.909694 0
M  V30 6 O 4.562046 3.754565 3.780478 0
M  V30 7 C 6.911829 3.981867 3.467050 0
M  V30 8 O 7.172829 3.407912 4.696055 0
M  V30 9 C 2.586667 1.371015 0.387090 0
M  V30 10 C 2.115011 1.852884 -0.815221 0
M  V30 11 C 0.923521 1.432663 -1.396278 0
M  V30 12 C 0.153473 0.480371 -0.750764 0
M  V30 13 C 0.601169 -0.020433 0.455815 0
M  V30 14 C 1.792693 0.426766 0.996407 0
M  V30 15 C -0.031762 -1.029471 1.325895 0
M  V30 16 O 0.498415 -1.263847 2.442549 0
M  V30 17 C -1.241395 -1.785507 0.984731 0
M  V30 18 C -1.777749 -2.413430 2.090406 0
M  V30 19 C -2.921964 -3.185204 2.011685 0
M  V30 20 C -3.563763 -3.344718 0.794089 0
M  V30 21 N -4.743450 -4.109905 0.591798 0
M  V30 22 C -5.432441 -4.350116 -0.601982 0
M  V30 23 C -6.737806 -4.009516 -0.879391 0
M  V30 24 C -7.290033 -4.318204 -2.121182 0
M  V30 25 C -6.564259 -4.962577 -3.096627 0
M  V30 26 F -7.151405 -5.239429 -4.290076 0
M  V30 27 C -5.242817 -5.305136 -2.810091 0
M  V30 28 C -4.681483 -4.998659 -1.565998 0
M  V30 29 F -3.392910 -5.427659 -1.517902 0
M  V30 30 C -3.018814 -2.711657 -0.307731 0
M  V30 31 C -1.872707 -1.936954 -0.236437 0
M  V30 32 C -1.419354 -1.330099 -1.496939 0
M  V30 33 C -1.067517 0.104120 -1.429001 0
M  V30 34 H 3.884229 0.761617 2.621822 0
M  V30 35 H 6.576522 1.696499 2.060793 0
M  V30 36 H 5.848769 1.477528 3.652970 0
M  V30 37 H 5.381796 3.925489 1.937808 0
M  V30 38 H 4.096450 2.964232 4.152015 0
M  V30 39 H 7.720502 3.822986 2.729293 0
M  V30 40 H 6.789518 5.094826 3.534059 0
M  V30 41 H 6.381683 3.129315 5.184986 0
M  V30 42 H 2.639829 2.600437 -1.402922 0
M  V30 43 H 0.555548 1.812024 -2.339560 0
M  V30 44 H 2.123432 0.021891 1.939633 0
M  V30 45 H -1.278200 -2.289517 3.039132 0
M  V30 46 H -3.365887 -3.689592 2.860157 0
M  V30 47 H -5.140934 -4.550328 1.475320 0
M  V30 48 H -7.267469 -3.511098 -0.097552 0
M  V30 49 H -8.317376 -4.042551 -2.320425 0
M  V30 50 H -4.755097 -5.806432 -3.635586 0
M  V30 51 H -3.406855 -2.740612 -1.327768 0
M  V30 52 H -0.517728 -1.886279 -1.826712 0
M  V30 53 H -2.192640 -1.482410 -2.276463 0
M  V30 54 H -1.075500 0.534772 -2.451886 0
M  V30 55 H -1.907718 0.620533 -0.883927 0
M  V30 END ATOM
M  V30 BEGIN BOND
M  V30 1 2 1 2
M  V30 2 1 2 3
M  V30 3 1 3 4
M  V30 4 1 4 5
M  V30 5 1 5 6
M  V30 6 1 5 7
M  V30 7 1 7 8
M  V30 8 1 2 9
M  V30 9 2 9 10
M  V30 10 1 10 11
M  V30 11 2 11 12
M  V30 12 1 12 13
M  V30 13 2 13 14
M  V30 14 1 13 15
M  V30 15 2 15 16
M  V30 16 1 15 17
M  V30 17 2 17 18
M  V30 18 1 18 19
M  V30 19 2 19 20
M  V30 20 1 20 21
M  V30 21 1 21 22
M  V30 22 2 22 23
M  V30 23 1 23 24
M  V30 24 2 24 25
M  V30 25 1 25 26
M  V30 26 1 25 27
M  V30 27 2 27 28
M  V30 28 1 28 29
M  V30 29 1 20 30
M  V30 30 2 30 31
M  V30 31 1 31 32
M  V30 32 1 32 33
M  V30 33 1 14 9
M  V30 34 1 31 17
M  V30 35 1 33 12
M  V30 36 1 28 22
M  V30 37 1 3 34
M  V30 38 1 4 35
M  V30 39 1 4 36
M  V30 40 1 5 37
M  V30 41 1 6 38
M  V30 42 1 7 39
M  V30 43 1 7 40
M  V30 44 1 8 41
M  V30 45 1 10 42
M  V30 46 1 11 43
M  V30 47 1 14 44
M  V30 48 1 18 45
M  V30 49 1 19 46
M  V30 50 1 21 47
M  V30 51 1 23 48
M  V30 52 1 24 49
M  V30 53 1 27 50
M  V30 54 1 30 51
M  V30 55 1 32 52
M  V30 56 1 32 53
M  V30 57 1 33 54
M  V30 58 1 33 55
M  V30 END BOND
M  V30 END CTAB
M  END
>  <Dataset>  (274) 
ChEMBL_Kinases

>  <Ligand_Instance>  (274) 
nan

>  <PDB_ID>  (274) 
nan

>  <Standardized_SMILES>  (274) 
O=C(NCC(O)CO)c1ccc2c(c1)C(=O)c1ccc(Nc3ccc(F)cc3F)cc1CC2

>  <Name>  (274) 
nan

>  <Pocket>  (274) 
nan

>  <ATP_Site>  (274) 
nan

>  <Peripheral>  (274) 
nan

>  <Num_H_Atoms_ProtBoundConf>  (274) 
nan

>  <Num_Resolved_Atoms>  (274) 
nan

>  <Num_Not_Resolved_Atoms>  (274) 
nan

$$$$
CHEMBL2316471
     RDKit          3D

  0  0  0  0  0  0  0  0  0  0999 V3000
M  V30 BEGIN CTAB
M  V30 COUNTS 66 70 0 0 0
M  V30 BEGIN ATOM
M  V30 1 C -4.259273 3.304092 3.821665 0
M  V30 2 C -4.199106 2.208669 2.802875 0 CFG=1
M  V30 3 N -2.875339 1.832402 2.402606 0
M  V30 4 C -2.314229 1.798467 1.088410 0
M  V30 5 O -3.116635 2.152857 0.191143 0
M  V30 6 C -0.932431 1.382000 0.865681 0
M  V30 7 C -0.042238 1.017508 1.853752 0
M  V30 8 C 1.251806 0.628913 1.572569 0
M  V30 9 C 1.688163 0.597380 0.266485 0
M  V30 10 C 0.778901 0.968245 -0.725712 0
M  V30 11 C -0.540152 1.367931 -0.481069 0
M  V30 12 C 1.055625 0.997362 -2.178712 0
M  V30 13 O 0.332718 1.777381 -2.867908 0
M  V30 14 C 2.095768 0.190979 -2.843813 0
M  V30 15 C 2.033071 0.381016 -4.206334 0
M  V30 16 C 2.943229 -0.305641 -4.976797 0
M  V30 17 C 3.914032 -1.168463 -4.512759 0
M  V30 18 N 4.837583 -1.907077 -5.284385 0
M  V30 19 C 4.770973 -2.548400 -6.541089 0
M  V30 20 C 3.669074 -2.635748 -7.353537 0
M  V30 21 C 3.623763 -3.259549 -8.593266 0
M  V30 22 C 4.799617 -3.838415 -9.032169 0
M  V30 23 F 4.808212 -4.459930 -10.238088 0
M  V30 24 C 5.927742 -3.773428 -8.246520 0
M  V30 25 C 5.914382 -3.140684 -7.024123 0
M  V30 26 F 7.084704 -3.132399 -6.323696 0
M  V30 27 C 3.891965 -1.289942 -3.120165 0
M  V30 28 C 3.026664 -0.649131 -2.265178 0
M  V30 29 C 3.264425 -0.993320 -0.836866 0
M  V30 30 C 3.092696 0.165062 0.110460 0
M  V30 31 C -4.864326 0.922108 3.294233 0
M  V30 32 C -6.306347 1.086394 3.628901 0
M  V30 33 C -6.789482 -0.151804 4.336333 0
M  V30 34 C -6.124510 -1.355653 3.771389 0
M  V30 35 C -5.739765 -1.197063 2.316157 0
M  V30 36 C -4.754452 -0.057450 2.138719 0
M  V30 37 H -3.565658 4.099942 3.478182 0
M  V30 38 H -5.308951 3.714371 3.794243 0
M  V30 39 H -3.971479 2.979026 4.840787 0
M  V30 40 H -4.843120 2.523143 1.935100 0
M  V30 41 H -2.321570 1.564098 3.245450 0
M  V30 42 H -0.388105 1.043477 2.874913 0
M  V30 43 H 1.913702 0.352661 2.380132 0
M  V30 44 H -1.163642 1.636851 -1.325766 0
M  V30 45 H 1.305707 1.034917 -4.628493 0
M  V30 46 H 2.872604 -0.121847 -6.029961 0
M  V30 47 H 5.763394 -1.956272 -4.761932 0
M  V30 48 H 2.747837 -2.207479 -7.034609 0
M  V30 49 H 2.718081 -3.288741 -9.179878 0
M  V30 50 H 6.856057 -4.237219 -8.605342 0
M  V30 51 H 4.621202 -1.949418 -2.644176 0
M  V30 52 H 2.699357 -1.883689 -0.553751 0
M  V30 53 H 4.356355 -1.262817 -0.776420 0
M  V30 54 H 3.475129 -0.188695 1.090160 0
M  V30 55 H 3.710294 0.985343 -0.272005 0
M  V30 56 H -4.285570 0.561629 4.156924 0
M  V30 57 H -6.510232 1.942827 4.304031 0
M  V30 58 H -6.916967 1.213987 2.709486 0
M  V30 59 H -7.896495 -0.225224 4.358338 0
M  V30 60 H -6.438739 -0.045286 5.403161 0
M  V30 61 H -5.215087 -1.629617 4.358745 0
M  V30 62 H -6.839170 -2.207686 3.830633 0
M  V30 63 H -5.224164 -2.126897 2.009062 0
M  V30 64 H -6.634672 -1.112765 1.681088 0
M  V30 65 H -3.733842 -0.476740 2.075056 0
M  V30 66 H -4.991828 0.401195 1.165559 0
M  V30 END ATOM
M  V30 BEGIN BOND
M  V30 1 1 1 2
M  V30 2 1 2 3
M  V30 3 1 3 4
M  V30 4 2 4 5
M  V30 5 1 4 6
M  V30 6 2 6 7
M  V30 7 1 7 8
M  V30 8 2 8 9
M  V30 9 1 9 10
M  V30 10 2 10 11
M  V30 11 1 10 12
M  V30 12 2 12 13
M  V30 13 1 12 14
M  V30 14 2 14 15
M  V30 15 1 15 16
M  V30 16 2 16 17
M  V30 17 1 17 18
M  V30 18 1 18 19
M  V30 19 2 19 20
M  V30 20 1 20 21
M  V30 21 2 21 22
M  V30 22 1 22 23
M  V30 23 1 22 24
M  V30 24 2 24 25
M  V30 25 1 25 26
M  V30 26 1 17 27
M  V30 27 2 27 28
M  V30 28 1 28 29
M  V30 29 1 29 30
M  V30 30 1 2 31
M  V30 31 1 31 32
M  V30 32 1 32 33
M  V30 33 1 33 34
M  V30 34 1 34 35
M  V30 35 1 35 36
M  V30 36 1 11 6
M  V30 37 1 28 14
M  V30 38 1 36 31
M  V30 39 1 30 9
M  V30 40 1 25 19
M  V30 41 1 1 37
M  V30 42 1 1 38
M  V30 43 1 1 39
M  V30 44 1 2 40 CFG=3
M  V30 45 1 3 41
M  V30 46 1 7 42
M  V30 47 1 8 43
M  V30 48 1 11 44
M  V30 49 1 15 45
M  V30 50 1 16 46
M  V30 51 1 18 47
M  V30 52 1 20 48
M  V30 53 1 21 49
M  V30 54 1 24 50
M  V30 55 1 27 51
M  V30 56 1 29 52
M  V30 57 1 29 53
M  V30 58 1 30 54
M  V30 59 1 30 55
M  V30 60 1 31 56
M  V30 61 1 32 57
M  V30 62 1 32 58
M  V30 63 1 33 59
M  V30 64 1 33 60
M  V30 65 1 34 61
M  V30 66 1 34 62
M  V30 67 1 35 63
M  V30 68 1 35 64
M  V30 69 1 36 65
M  V30 70 1 36 66
M  V30 END BOND
M  V30 END CTAB
M  END
>  <Dataset>  (275) 
ChEMBL_Kinases

>  <Ligand_Instance>  (275) 
nan

>  <PDB_ID>  (275) 
nan

>  <Standardized_SMILES>  (275) 
C[C@@H](NC(=O)c1ccc2c(c1)C(=O)c1ccc(Nc3ccc(F)cc3F)cc1CC2)C1CCCCC1

>  <Name>  (275) 
nan

>  <Pocket>  (275) 
nan

>  <ATP_Site>  (275) 
nan

>  <Peripheral>  (275) 
nan

>  <Num_H_Atoms_ProtBoundConf>  (275) 
nan

>  <Num_Resolved_Atoms>  (275) 
nan

>  <Num_Not_Resolved_Atoms>  (275) 
nan

$$$$
CHEMBL2316472
     RDKit          3D

  0  0  0  0  0  0  0  0  0  0999 V3000
M  V30 BEGIN CTAB
M  V30 COUNTS 50 53 0 0 0
M  V30 BEGIN ATOM
M  V30 1 O 5.424827 1.004152 3.853927 0
M  V30 2 C 4.960684 0.169053 3.039950 0
M  V30 3 N 5.841779 -0.857662 2.607064 0
M  V30 4 C 7.200455 -0.996281 3.033497 0
M  V30 5 C 8.073529 0.195341 2.702718 0
M  V30 6 F 9.365307 -0.014351 3.144310 0
M  V30 7 C 3.574306 0.328188 2.618017 0
M  V30 8 C 2.865696 1.379517 3.135233 0
M  V30 9 C 1.542460 1.592081 2.778166 0
M  V30 10 C 0.872513 0.768225 1.893500 0
M  V30 11 C 1.617855 -0.269913 1.400657 0
M  V30 12 C 2.935057 -0.511952 1.733082 0
M  V30 13 C 1.205246 -1.318682 0.447076 0
M  V30 14 O 2.046490 -2.224267 0.122626 0
M  V30 15 C -0.126536 -1.426791 -0.188267 0
M  V30 16 C -0.061508 -2.182850 -1.340444 0
M  V30 17 C -1.224097 -2.382138 -2.057919 0
M  V30 18 C -2.392350 -1.816538 -1.588614 0
M  V30 19 N -3.584058 -2.015848 -2.316620 0
M  V30 20 C -4.899043 -1.575747 -2.084528 0
M  V30 21 C -5.583423 -0.777130 -2.979264 0
M  V30 22 C -6.857271 -0.329937 -2.792032 0
M  V30 23 C -7.528707 -0.695627 -1.621613 0
M  V30 24 F -8.782810 -0.243869 -1.457696 0
M  V30 25 C -6.860997 -1.487740 -0.725573 0
M  V30 26 C -5.567035 -1.944413 -0.911227 0
M  V30 27 F -5.004196 -2.715322 0.027831 0
M  V30 28 C -2.447254 -1.059014 -0.430629 0
M  V30 29 C -1.298629 -0.842737 0.308312 0
M  V30 30 C -1.461876 -0.025050 1.520773 0
M  V30 31 C -0.507722 1.131152 1.627041 0
M  V30 32 H 5.412198 -1.541487 1.921473 0
M  V30 33 H 7.274509 -1.237840 4.124028 0
M  V30 34 H 7.654935 -1.858371 2.519820 0
M  V30 35 H 8.024713 0.407204 1.626142 0
M  V30 36 H 7.675689 1.073962 3.238542 0
M  V30 37 H 3.297581 2.095419 3.845236 0
M  V30 38 H 1.006945 2.441341 3.210422 0
M  V30 39 H 3.478901 -1.346821 1.314808 0
M  V30 40 H 0.886063 -2.584256 -1.632334 0
M  V30 41 H -1.196869 -2.974132 -2.968283 0
M  V30 42 H -3.608457 -2.572592 -3.198930 0
M  V30 43 H -5.042037 -0.512446 -3.869302 0
M  V30 44 H -7.292170 0.301915 -3.582396 0
M  V30 45 H -7.422072 -1.743486 0.163691 0
M  V30 46 H -3.329715 -0.598427 -0.024318 0
M  V30 47 H -1.289448 -0.665649 2.421362 0
M  V30 48 H -2.509585 0.320547 1.592431 0
M  V30 49 H -0.926648 1.868095 2.341326 0
M  V30 50 H -0.531705 1.631737 0.626190 0
M  V30 END ATOM
M  V30 BEGIN BOND
M  V30 1 2 1 2
M  V30 2 1 2 3
M  V30 3 1 3 4
M  V30 4 1 4 5
M  V30 5 1 5 6
M  V30 6 1 2 7
M  V30 7 2 7 8
M  V30 8 1 8 9
M  V30 9 2 9 10
M  V30 10 1 10 11
M  V30 11 2 11 12
M  V30 12 1 11 13
M  V30 13 2 13 14
M  V30 14 1 13 15
M  V30 15 2 15 16
M  V30 16 1 16 17
M  V30 17 2 17 18
M  V30 18 1 18 19
M  V30 19 1 19 20
M  V30 20 2 20 21
M  V30 21 1 21 22
M  V30 22 2 22 23
M  V30 23 1 23 24
M  V30 24 1 23 25
M  V30 25 2 25 26
M  V30 26 1 26 27
M  V30 27 1 18 28
M  V30 28 2 28 29
M  V30 29 1 29 30
M  V30 30 1 30 31
M  V30 31 1 12 7
M  V30 32 1 29 15
M  V30 33 1 31 10
M  V30 34 1 26 20
M  V30 35 1 3 32
M  V30 36 1 4 33
M  V30 37 1 4 34
M  V30 38 1 5 35
M  V30 39 1 5 36
M  V30 40 1 8 37
M  V30 41 1 9 38
M  V30 42 1 12 39
M  V30 43 1 16 40
M  V30 44 1 17 41
M  V30 45 1 19 42
M  V30 46 1 21 43
M  V30 47 1 22 44
M  V30 48 1 25 45
M  V30 49 1 28 46
M  V30 50 1 30 47
M  V30 51 1 30 48
M  V30 52 1 31 49
M  V30 53 1 31 50
M  V30 END BOND
M  V30 END CTAB
M  END
>  <Dataset>  (276) 
ChEMBL_Kinases

>  <Ligand_Instance>  (276) 
nan

>  <PDB_ID>  (276) 
nan

>  <Standardized_SMILES>  (276) 
O=C(NCCF)c1ccc2c(c1)C(=O)c1ccc(Nc3ccc(F)cc3F)cc1CC2

>  <Name>  (276) 
nan

>  <Pocket>  (276) 
nan

>  <ATP_Site>  (276) 
nan

>  <Peripheral>  (276) 
nan

>  <Num_H_Atoms_ProtBoundConf>  (276) 
nan

>  <Num_Resolved_Atoms>  (276) 
nan

>  <Num_Not_Resolved_Atoms>  (276) 
nan

$$$$
CHEMBL2316473
     RDKit          3D

  0  0  0  0  0  0  0  0  0  0999 V3000
M  V30 BEGIN CTAB
M  V30 COUNTS 50 53 0 0 0
M  V30 BEGIN ATOM
M  V30 1 O 5.666622 0.495353 -0.584714 0
M  V30 2 C 4.800827 0.864997 -1.439575 0
M  V30 3 N 5.364200 1.478138 -2.588708 0
M  V30 4 C 6.812067 1.575590 -2.588930 0
M  V30 5 C 7.312840 2.243207 -3.854044 0
M  V30 6 Cl 9.084358 2.313745 -3.756078 0
M  V30 7 C 3.373884 0.665074 -1.232215 0
M  V30 8 C 2.442089 1.063099 -2.168389 0
M  V30 9 C 1.091014 0.839729 -1.900040 0
M  V30 10 C 0.613894 0.236494 -0.740184 0
M  V30 11 C 1.623382 -0.127490 0.137505 0
M  V30 12 C 2.977546 0.060324 -0.058317 0
M  V30 13 C 1.408551 -0.786409 1.447860 0
M  V30 14 O 2.414778 -0.944649 2.210418 0
M  V30 15 C 0.136697 -1.295906 1.993221 0
M  V30 16 C 0.350784 -2.294309 2.946392 0
M  V30 17 C -0.775067 -2.844240 3.524254 0
M  V30 18 C -2.035257 -2.423421 3.172017 0
M  V30 19 N -3.154637 -3.020936 3.796971 0
M  V30 20 C -4.527263 -2.751223 3.561030 0
M  V30 21 C -5.316860 -2.285289 4.619702 0
M  V30 22 C -6.647549 -2.049628 4.292363 0
M  V30 23 C -7.194336 -2.240316 3.053370 0
M  V30 24 F -8.508870 -1.984463 2.819372 0
M  V30 25 C -6.387386 -2.700291 2.033895 0
M  V30 26 C -5.058481 -2.949619 2.307110 0
M  V30 27 F -4.336418 -3.400492 1.251823 0
M  V30 28 C -2.189195 -1.433739 2.224744 0
M  V30 29 C -1.115249 -0.826223 1.593679 0
M  V30 30 C -1.493005 0.198314 0.622073 0
M  V30 31 C -0.827360 0.119225 -0.700286 0
M  V30 32 H 4.730259 1.814101 -3.345063 0
M  V30 33 H 7.191750 2.158701 -1.735625 0
M  V30 34 H 7.217981 0.547671 -2.506643 0
M  V30 35 H 7.002665 1.691416 -4.758407 0
M  V30 36 H 6.938289 3.277293 -3.940661 0
M  V30 37 H 2.731324 1.537434 -3.091927 0
M  V30 38 H 0.341869 1.154627 -2.642559 0
M  V30 39 H 3.667419 -0.275883 0.718514 0
M  V30 40 H 1.353828 -2.566944 3.166775 0
M  V30 41 H -0.578413 -3.614623 4.258482 0
M  V30 42 H -3.060657 -3.743347 4.516869 0
M  V30 43 H -4.880820 -2.141264 5.576922 0
M  V30 44 H -7.267703 -1.694943 5.079596 0
M  V30 45 H -6.815963 -2.852641 1.052174 0
M  V30 46 H -3.162407 -1.068619 1.915675 0
M  V30 47 H -1.414404 1.232851 1.018958 0
M  V30 48 H -2.595894 0.066388 0.424117 0
M  V30 49 H -1.122756 -0.853739 -1.183536 0
M  V30 50 H -1.281446 0.895438 -1.350717 0
M  V30 END ATOM
M  V30 BEGIN BOND
M  V30 1 2 1 2
M  V30 2 1 2 3
M  V30 3 1 3 4
M  V30 4 1 4 5
M  V30 5 1 5 6
M  V30 6 1 2 7
M  V30 7 2 7 8
M  V30 8 1 8 9
M  V30 9 2 9 10
M  V30 10 1 10 11
M  V30 11 2 11 12
M  V30 12 1 11 13
M  V30 13 2 13 14
M  V30 14 1 13 15
M  V30 15 2 15 16
M  V30 16 1 16 17
M  V30 17 2 17 18
M  V30 18 1 18 19
M  V30 19 1 19 20
M  V30 20 2 20 21
M  V30 21 1 21 22
M  V30 22 2 22 23
M  V30 23 1 23 24
M  V30 24 1 23 25
M  V30 25 2 25 26
M  V30 26 1 26 27
M  V30 27 1 18 28
M  V30 28 2 28 29
M  V30 29 1 29 30
M  V30 30 1 30 31
M  V30 31 1 12 7
M  V30 32 1 29 15
M  V30 33 1 31 10
M  V30 34 1 26 20
M  V30 35 1 3 32
M  V30 36 1 4 33
M  V30 37 1 4 34
M  V30 38 1 5 35
M  V30 39 1 5 36
M  V30 40 1 8 37
M  V30 41 1 9 38
M  V30 42 1 12 39
M  V30 43 1 16 40
M  V30 44 1 17 41
M  V30 45 1 19 42
M  V30 46 1 21 43
M  V30 47 1 22 44
M  V30 48 1 25 45
M  V30 49 1 28 46
M  V30 50 1 30 47
M  V30 51 1 30 48
M  V30 52 1 31 49
M  V30 53 1 31 50
M  V30 END BOND
M  V30 END CTAB
M  END
>  <Dataset>  (277) 
ChEMBL_Kinases

>  <Ligand_Instance>  (277) 
nan

>  <PDB_ID>  (277) 
nan

>  <Standardized_SMILES>  (277) 
O=C(NCCCl)c1ccc2c(c1)C(=O)c1ccc(Nc3ccc(F)cc3F)cc1CC2

>  <Name>  (277) 
nan

>  <Pocket>  (277) 
nan

>  <ATP_Site>  (277) 
nan

>  <Peripheral>  (277) 
nan

>  <Num_H_Atoms_ProtBoundConf>  (277) 
nan

>  <Num_Resolved_Atoms>  (277) 
nan

>  <Num_Not_Resolved_Atoms>  (277) 
nan

$$$$
CHEMBL2316474
     RDKit          3D

  0  0  0  0  0  0  0  0  0  0999 V3000
M  V30 BEGIN CTAB
M  V30 COUNTS 54 57 0 0 0
M  V30 BEGIN ATOM
M  V30 1 C 4.891633 2.692002 6.313323 0
M  V30 2 S 5.138360 3.056670 4.568308 0
M  V30 3 C 6.290920 1.917785 3.781275 0
M  V30 4 C 5.786989 0.511247 3.705739 0
M  V30 5 N 4.578801 0.318185 2.980061 0
M  V30 6 C 4.469416 0.654756 1.613831 0
M  V30 7 O 5.469975 1.138782 1.023630 0
M  V30 8 C 3.254074 0.477357 0.823457 0
M  V30 9 C 3.286903 0.849033 -0.499142 0
M  V30 10 C 2.161092 0.708490 -1.315632 0
M  V30 11 C 0.992110 0.181767 -0.768795 0
M  V30 12 C 0.963980 -0.191132 0.563794 0
M  V30 13 C 2.088847 -0.042320 1.349113 0
M  V30 14 C -0.121276 -0.759303 1.361381 0
M  V30 15 O -0.001738 -0.866878 2.604315 0
M  V30 16 C -1.407556 -1.241849 0.813184 0
M  V30 17 C -2.361840 -1.462860 1.771326 0
M  V30 18 C -3.631025 -1.914842 1.470259 0
M  V30 19 C -3.947750 -2.154708 0.128280 0
M  V30 20 N -5.223627 -2.619383 -0.291064 0
M  V30 21 C -5.633612 -2.932074 -1.616614 0
M  V30 22 C -6.662338 -2.323437 -2.304686 0
M  V30 23 C -6.966297 -2.718467 -3.590723 0
M  V30 24 C -6.269548 -3.720987 -4.236673 0
M  V30 25 F -6.567985 -4.111516 -5.506762 0
M  V30 26 C -5.228679 -4.335798 -3.538784 0
M  V30 27 C -4.925921 -3.943961 -2.260534 0
M  V30 28 F -3.878711 -4.650777 -1.719122 0
M  V30 29 C -2.990166 -1.933551 -0.840809 0
M  V30 30 C -1.720434 -1.478780 -0.513371 0
M  V30 31 C -0.806904 -1.292336 -1.682141 0
M  V30 32 C -0.152700 0.064167 -1.694734 0
M  V30 33 H 4.801064 3.616623 6.927275 0
M  V30 34 H 5.724892 2.115551 6.727251 0
M  V30 35 H 3.911813 2.158799 6.483849 0
M  V30 36 H 7.190020 1.889262 4.432793 0
M  V30 37 H 6.605611 2.345336 2.822188 0
M  V30 38 H 5.710315 0.132837 4.740321 0
M  V30 39 H 6.577472 -0.082400 3.198625 0
M  V30 40 H 3.744307 -0.086153 3.473070 0
M  V30 41 H 4.161379 1.273330 -1.017315 0
M  V30 42 H 2.114207 0.978328 -2.360304 0
M  V30 43 H 2.046644 -0.334816 2.370014 0
M  V30 44 H -2.081993 -1.268240 2.783645 0
M  V30 45 H -4.392284 -2.092548 2.227426 0
M  V30 46 H -5.944284 -2.744478 0.470747 0
M  V30 47 H -7.200090 -1.538621 -1.783644 0
M  V30 48 H -7.787396 -2.210499 -4.098119 0
M  V30 49 H -4.694520 -5.129096 -4.081182 0
M  V30 50 H -3.109139 -2.077672 -1.898252 0
M  V30 51 H -0.104342 -2.117307 -1.815711 0
M  V30 52 H -1.476082 -1.301880 -2.587457 0
M  V30 53 H -0.960899 0.783937 -1.380573 0
M  V30 54 H 0.179272 0.290972 -2.717640 0
M  V30 END ATOM
M  V30 BEGIN BOND
M  V30 1 1 1 2
M  V30 2 1 2 3
M  V30 3 1 3 4
M  V30 4 1 4 5
M  V30 5 1 5 6
M  V30 6 2 6 7
M  V30 7 1 6 8
M  V30 8 2 8 9
M  V30 9 1 9 10
M  V30 10 2 10 11
M  V30 11 1 11 12
M  V30 12 2 12 13
M  V30 13 1 12 14
M  V30 14 2 14 15
M  V30 15 1 14 16
M  V30 16 2 16 17
M  V30 17 1 17 18
M  V30 18 2 18 19
M  V30 19 1 19 20
M  V30 20 1 20 21
M  V30 21 2 21 22
M  V30 22 1 22 23
M  V30 23 2 23 24
M  V30 24 1 24 25
M  V30 25 1 24 26
M  V30 26 2 26 27
M  V30 27 1 27 28
M  V30 28 1 19 29
M  V30 29 2 29 30
M  V30 30 1 30 31
M  V30 31 1 31 32
M  V30 32 1 13 8
M  V30 33 1 30 16
M  V30 34 1 32 11
M  V30 35 1 27 21
M  V30 36 1 1 33
M  V30 37 1 1 34
M  V30 38 1 1 35
M  V30 39 1 3 36
M  V30 40 1 3 37
M  V30 41 1 4 38
M  V30 42 1 4 39
M  V30 43 1 5 40
M  V30 44 1 9 41
M  V30 45 1 10 42
M  V30 46 1 13 43
M  V30 47 1 17 44
M  V30 48 1 18 45
M  V30 49 1 20 46
M  V30 50 1 22 47
M  V30 51 1 23 48
M  V30 52 1 26 49
M  V30 53 1 29 50
M  V30 54 1 31 51
M  V30 55 1 31 52
M  V30 56 1 32 53
M  V30 57 1 32 54
M  V30 END BOND
M  V30 END CTAB
M  END
>  <Dataset>  (278) 
ChEMBL_Kinases

>  <Ligand_Instance>  (278) 
nan

>  <PDB_ID>  (278) 
nan

>  <Standardized_SMILES>  (278) 
CSCCNC(=O)c1ccc2c(c1)C(=O)c1ccc(Nc3ccc(F)cc3F)cc1CC2

>  <Name>  (278) 
nan

>  <Pocket>  (278) 
nan

>  <ATP_Site>  (278) 
nan

>  <Peripheral>  (278) 
nan

>  <Num_H_Atoms_ProtBoundConf>  (278) 
nan

>  <Num_Resolved_Atoms>  (278) 
nan

>  <Num_Not_Resolved_Atoms>  (278) 
nan

$$$$
CHEMBL2316475
     RDKit          3D

  0  0  0  0  0  0  0  0  0  0999 V3000
M  V30 BEGIN CTAB
M  V30 COUNTS 54 57 0 0 0
M  V30 BEGIN ATOM
M  V30 1 C 5.730181 -0.523325 5.487603 0
M  V30 2 O 5.048083 0.668418 5.453686 0
M  V30 3 C 5.675405 1.680919 4.774035 0
M  V30 4 C 5.916007 1.311135 3.307553 0
M  V30 5 N 4.630225 1.055596 2.707876 0
M  V30 6 C 4.612511 0.690432 1.333530 0
M  V30 7 O 5.737293 0.628872 0.781246 0
M  V30 8 C 3.412219 0.395092 0.559201 0
M  V30 9 C 3.616311 0.059229 -0.762864 0
M  V30 10 C 2.524831 -0.237775 -1.573828 0
M  V30 11 C 1.261448 -0.191357 -1.043312 0
M  V30 12 C 1.107943 0.153000 0.296422 0
M  V30 13 C 2.163012 0.456125 1.140660 0
M  V30 14 C -0.165577 0.250057 1.020027 0
M  V30 15 O -0.154373 0.810078 2.141179 0
M  V30 16 C -1.483450 -0.233662 0.594588 0
M  V30 17 C -2.529337 0.173316 1.393693 0
M  V30 18 C -3.842717 -0.176974 1.159500 0
M  V30 19 C -4.088530 -0.977660 0.059357 0
M  V30 20 N -5.416723 -1.379694 -0.246731 0
M  V30 21 C -5.921556 -2.194303 -1.297467 0
M  V30 22 C -6.827670 -1.857906 -2.271189 0
M  V30 23 C -7.228050 -2.751423 -3.229099 0
M  V30 24 C -6.723156 -4.043047 -3.245598 0
M  V30 25 F -7.148001 -4.899298 -4.215566 0
M  V30 26 C -5.807792 -4.395862 -2.268494 0
M  V30 27 C -5.398563 -3.491168 -1.293748 0
M  V30 28 F -4.499045 -4.048239 -0.439588 0
M  V30 29 C -3.041068 -1.387868 -0.744714 0
M  V30 30 C -1.725792 -1.034575 -0.506558 0
M  V30 31 C -0.759439 -1.584001 -1.494085 0
M  V30 32 C 0.177902 -0.534690 -2.030672 0
M  V30 33 H 6.737420 -0.457655 5.970841 0
M  V30 34 H 5.137122 -1.199114 6.171964 0
M  V30 35 H 5.790332 -1.006312 4.490380 0
M  V30 36 H 6.628169 1.970274 5.266915 0
M  V30 37 H 5.028721 2.577576 4.775310 0
M  V30 38 H 6.425939 2.166155 2.797275 0
M  V30 39 H 6.600720 0.443042 3.311551 0
M  V30 40 H 3.713820 1.117835 3.203447 0
M  V30 41 H 4.587902 0.007648 -1.230707 0
M  V30 42 H 2.586316 -0.505897 -2.600559 0
M  V30 43 H 2.009937 0.714933 2.157944 0
M  V30 44 H -2.317421 0.804843 2.257580 0
M  V30 45 H -4.649559 0.153109 1.799046 0
M  V30 46 H -6.206697 -1.062288 0.357014 0
M  V30 47 H -7.193072 -0.840385 -2.217282 0
M  V30 48 H -7.942920 -2.463710 -3.985986 0
M  V30 49 H -5.472099 -5.422663 -2.364605 0
M  V30 50 H -3.173461 -2.017234 -1.622416 0
M  V30 51 H -0.168830 -2.415858 -1.094473 0
M  V30 52 H -1.356963 -1.939433 -2.358171 0
M  V30 53 H -0.373900 0.403030 -2.294799 0
M  V30 54 H 0.646946 -0.940794 -2.928213 0
M  V30 END ATOM
M  V30 BEGIN BOND
M  V30 1 1 1 2
M  V30 2 1 2 3
M  V30 3 1 3 4
M  V30 4 1 4 5
M  V30 5 1 5 6
M  V30 6 2 6 7
M  V30 7 1 6 8
M  V30 8 2 8 9
M  V30 9 1 9 10
M  V30 10 2 10 11
M  V30 11 1 11 12
M  V30 12 2 12 13
M  V30 13 1 12 14
M  V30 14 2 14 15
M  V30 15 1 14 16
M  V30 16 2 16 17
M  V30 17 1 17 18
M  V30 18 2 18 19
M  V30 19 1 19 20
M  V30 20 1 20 21
M  V30 21 2 21 22
M  V30 22 1 22 23
M  V30 23 2 23 24
M  V30 24 1 24 25
M  V30 25 1 24 26
M  V30 26 2 26 27
M  V30 27 1 27 28
M  V30 28 1 19 29
M  V30 29 2 29 30
M  V30 30 1 30 31
M  V30 31 1 31 32
M  V30 32 1 13 8
M  V30 33 1 30 16
M  V30 34 1 32 11
M  V30 35 1 27 21
M  V30 36 1 1 33
M  V30 37 1 1 34
M  V30 38 1 1 35
M  V30 39 1 3 36
M  V30 40 1 3 37
M  V30 41 1 4 38
M  V30 42 1 4 39
M  V30 43 1 5 40
M  V30 44 1 9 41
M  V30 45 1 10 42
M  V30 46 1 13 43
M  V30 47 1 17 44
M  V30 48 1 18 45
M  V30 49 1 20 46
M  V30 50 1 22 47
M  V30 51 1 23 48
M  V30 52 1 26 49
M  V30 53 1 29 50
M  V30 54 1 31 51
M  V30 55 1 31 52
M  V30 56 1 32 53
M  V30 57 1 32 54
M  V30 END BOND
M  V30 END CTAB
M  END
>  <Dataset>  (279) 
ChEMBL_Kinases

>  <Ligand_Instance>  (279) 
nan

>  <PDB_ID>  (279) 
nan

>  <Standardized_SMILES>  (279) 
COCCNC(=O)c1ccc2c(c1)C(=O)c1ccc(Nc3ccc(F)cc3F)cc1CC2

>  <Name>  (279) 
nan

>  <Pocket>  (279) 
nan

>  <ATP_Site>  (279) 
nan

>  <Peripheral>  (279) 
nan

>  <Num_H_Atoms_ProtBoundConf>  (279) 
nan

>  <Num_Resolved_Atoms>  (279) 
nan

>  <Num_Not_Resolved_Atoms>  (279) 
nan

$$$$
CHEMBL2316476
     RDKit          3D

  0  0  0  0  0  0  0  0  0  0999 V3000
M  V30 BEGIN CTAB
M  V30 COUNTS 56 59 0 0 0
M  V30 BEGIN ATOM
M  V30 1 C 7.681391 0.992155 6.106607 0
M  V30 2 S 5.938466 1.212504 6.411036 0
M  V30 3 O 5.516799 0.382825 7.590016 0
M  V30 4 O 5.622798 2.649234 6.717524 0
M  V30 5 C 4.976533 0.684035 4.995431 0
M  V30 6 C 5.343914 1.482063 3.768980 0
M  V30 7 N 4.561079 1.042660 2.636153 0
M  V30 8 C 3.144908 1.072973 2.532683 0
M  V30 9 O 2.536640 1.535377 3.544904 0
M  V30 10 C 2.396056 0.617669 1.369801 0
M  V30 11 C 2.932860 0.097726 0.213689 0
M  V30 12 C 2.199409 -0.322444 -0.863322 0
M  V30 13 C 0.804075 -0.230876 -0.818698 0
M  V30 14 C 0.238917 0.288183 0.331930 0
M  V30 15 C 1.020966 0.698874 1.392529 0
M  V30 16 C -1.190462 0.465998 0.575098 0
M  V30 17 O -1.480489 1.295457 1.474609 0
M  V30 18 C -2.290260 -0.220265 -0.119761 0
M  V30 19 C -3.515588 0.146053 0.398688 0
M  V30 20 C -4.661954 -0.387894 -0.117708 0
M  V30 21 C -4.608870 -1.292120 -1.155038 0
M  V30 22 N -5.804673 -1.838760 -1.682857 0
M  V30 23 C -5.964023 -2.786851 -2.728245 0
M  V30 24 C -6.665817 -2.513215 -3.879859 0
M  V30 25 C -6.790258 -3.487304 -4.875729 0
M  V30 26 C -6.193848 -4.709349 -4.663201 0
M  V30 27 F -6.356914 -5.603221 -5.671565 0
M  V30 28 C -5.485104 -5.019023 -3.526042 0
M  V30 29 C -5.376386 -4.033815 -2.552019 0
M  V30 30 F -4.658807 -4.415427 -1.452378 0
M  V30 31 C -3.370586 -1.633847 -1.646464 0
M  V30 32 C -2.157680 -1.132772 -1.173000 0
M  V30 33 C -0.988116 -1.650681 -1.860416 0
M  V30 34 C 0.167478 -0.719239 -2.043433 0
M  V30 35 H 8.279960 1.882556 6.413666 0
M  V30 36 H 7.843209 0.874614 4.998074 0
M  V30 37 H 8.068686 0.099398 6.603545 0
M  V30 38 H 5.079883 -0.396092 4.841606 0
M  V30 39 H 3.922227 0.864046 5.283350 0
M  V30 40 H 6.404803 1.252856 3.554630 0
M  V30 41 H 5.182081 2.570802 3.939495 0
M  V30 42 H 5.035414 0.650069 1.768916 0
M  V30 43 H 4.001199 0.014590 0.148836 0
M  V30 44 H 2.696279 -0.721980 -1.741559 0
M  V30 45 H 0.498154 1.093253 2.255416 0
M  V30 46 H -3.577824 0.862418 1.222146 0
M  V30 47 H -5.649711 -0.131833 0.255325 0
M  V30 48 H -6.724159 -1.554512 -1.304096 0
M  V30 49 H -7.126741 -1.551530 -4.030595 0
M  V30 50 H -7.346553 -3.220231 -5.749834 0
M  V30 51 H -5.048074 -5.996111 -3.433813 0
M  V30 52 H -3.260802 -2.342072 -2.464956 0
M  V30 53 H -1.319501 -1.907231 -2.903372 0
M  V30 54 H -0.672873 -2.623628 -1.422540 0
M  V30 55 H -0.118724 0.107211 -2.725290 0
M  V30 56 H 0.934117 -1.299138 -2.616047 0
M  V30 END ATOM
M  V30 BEGIN BOND
M  V30 1 1 1 2
M  V30 2 2 2 3
M  V30 3 2 2 4
M  V30 4 1 2 5
M  V30 5 1 5 6
M  V30 6 1 6 7
M  V30 7 1 7 8
M  V30 8 2 8 9
M  V30 9 1 8 10
M  V30 10 2 10 11
M  V30 11 1 11 12
M  V30 12 2 12 13
M  V30 13 1 13 14
M  V30 14 2 14 15
M  V30 15 1 14 16
M  V30 16 2 16 17
M  V30 17 1 16 18
M  V30 18 2 18 19
M  V30 19 1 19 20
M  V30 20 2 20 21
M  V30 21 1 21 22
M  V30 22 1 22 23
M  V30 23 2 23 24
M  V30 24 1 24 25
M  V30 25 2 25 26
M  V30 26 1 26 27
M  V30 27 1 26 28
M  V30 28 2 28 29
M  V30 29 1 29 30
M  V30 30 1 21 31
M  V30 31 2 31 32
M  V30 32 1 32 33
M  V30 33 1 33 34
M  V30 34 1 15 10
M  V30 35 1 32 18
M  V30 36 1 34 13
M  V30 37 1 29 23
M  V30 38 1 1 35
M  V30 39 1 1 36
M  V30 40 1 1 37
M  V30 41 1 5 38
M  V30 42 1 5 39
M  V30 43 1 6 40
M  V30 44 1 6 41
M  V30 45 1 7 42
M  V30 46 1 11 43
M  V30 47 1 12 44
M  V30 48 1 15 45
M  V30 49 1 19 46
M  V30 50 1 20 47
M  V30 51 1 22 48
M  V30 52 1 24 49
M  V30 53 1 25 50
M  V30 54 1 28 51
M  V30 55 1 31 52
M  V30 56 1 33 53
M  V30 57 1 33 54
M  V30 58 1 34 55
M  V30 59 1 34 56
M  V30 END BOND
M  V30 END CTAB
M  END
>  <Dataset>  (280) 
ChEMBL_Kinases

>  <Ligand_Instance>  (280) 
nan

>  <PDB_ID>  (280) 
nan

>  <Standardized_SMILES>  (280) 
CS(=O)(=O)CCNC(=O)c1ccc2c(c1)C(=O)c1ccc(Nc3ccc(F)cc3F)cc1CC2

>  <Name>  (280) 
nan

>  <Pocket>  (280) 
nan

>  <ATP_Site>  (280) 
nan

>  <Peripheral>  (280) 
nan

>  <Num_H_Atoms_ProtBoundConf>  (280) 
nan

>  <Num_Resolved_Atoms>  (280) 
nan

>  <Num_Not_Resolved_Atoms>  (280) 
nan

$$$$
CHEMBL2316477
     RDKit          3D

  0  0  0  0  0  0  0  0  0  0999 V3000
M  V30 BEGIN CTAB
M  V30 COUNTS 63 67 0 0 0
M  V30 BEGIN ATOM
M  V30 1 O 1.312966 3.982982 3.665473 0
M  V30 2 C 1.144840 2.811356 3.241837 0
M  V30 3 N 2.093620 1.837071 3.651599 0
M  V30 4 C 3.230355 2.011046 4.490996 0
M  V30 5 C 4.004064 0.727904 4.702276 0
M  V30 6 N 4.493860 0.167161 3.482119 0
M  V30 7 C 5.531762 0.972275 2.868859 0
M  V30 8 C 5.706354 0.409503 1.457883 0
M  V30 9 O 6.146371 -0.902717 1.571169 0
M  V30 10 C 5.205683 -1.708827 2.204496 0
M  V30 11 C 5.030808 -1.169908 3.631317 0
M  V30 12 C 0.006867 2.541062 2.373909 0
M  V30 13 C -0.858753 3.570347 2.075680 0
M  V30 14 C -1.944931 3.334402 1.252129 0
M  V30 15 C -2.222477 2.101103 0.696204 0
M  V30 16 C -1.339910 1.071170 1.005802 0
M  V30 17 C -0.255050 1.303148 1.827708 0
M  V30 18 C -1.390387 -0.322600 0.558372 0
M  V30 19 O -0.650385 -1.153676 1.187522 0
M  V30 20 C -2.184767 -0.913802 -0.531017 0
M  V30 21 C -2.047744 -2.288237 -0.575552 0
M  V30 22 C -2.754717 -2.977850 -1.567854 0
M  V30 23 C -3.536929 -2.238397 -2.429901 0
M  V30 24 N -4.267666 -2.906863 -3.449563 0
M  V30 25 C -4.284058 -4.299023 -3.732456 0
M  V30 26 C -5.500203 -4.943812 -3.643756 0
M  V30 27 C -5.593788 -6.291225 -3.905638 0
M  V30 28 C -4.476894 -7.007683 -4.257664 0
M  V30 29 F -4.578047 -8.330494 -4.512438 0
M  V30 30 C -3.269513 -6.367559 -4.345628 0
M  V30 31 C -3.147798 -5.003387 -4.085775 0
M  V30 32 F -1.952848 -4.370319 -4.174766 0
M  V30 33 C -3.666900 -0.865807 -2.377034 0
M  V30 34 C -2.979003 -0.159347 -1.405848 0
M  V30 35 C -3.205791 1.293527 -1.463476 0
M  V30 36 C -3.405760 1.987150 -0.157625 0
M  V30 37 H 1.926266 0.873726 3.284540 0
M  V30 38 H 3.909385 2.801691 4.114792 0
M  V30 39 H 2.924177 2.364609 5.516902 0
M  V30 40 H 4.837163 0.908687 5.394735 0
M  V30 41 H 3.362904 -0.038762 5.177435 0
M  V30 42 H 6.490731 0.922906 3.431909 0
M  V30 43 H 5.202793 2.024199 2.747576 0
M  V30 44 H 6.457535 0.980155 0.879405 0
M  V30 45 H 4.675090 0.464163 1.001762 0
M  V30 46 H 5.592515 -2.740471 2.196230 0
M  V30 47 H 4.236366 -1.595223 1.677306 0
M  V30 48 H 6.087830 -1.122754 4.027656 0
M  V30 49 H 4.393404 -1.828684 4.233422 0
M  V30 50 H -0.709774 4.575437 2.474865 0
M  V30 51 H -2.648900 4.115063 0.993932 0
M  V30 52 H 0.386781 0.471960 2.028797 0
M  V30 53 H -1.397279 -2.731760 0.166697 0
M  V30 54 H -2.644364 -4.039132 -1.594512 0
M  V30 55 H -4.893671 -2.416626 -4.123448 0
M  V30 56 H -6.389981 -4.385377 -3.365560 0
M  V30 57 H -6.564143 -6.742681 -3.822499 0
M  V30 58 H -2.412619 -6.960123 -4.624306 0
M  V30 59 H -4.299690 -0.323808 -3.082781 0
M  V30 60 H -4.134559 1.457007 -2.060374 0
M  V30 61 H -2.401619 1.783161 -2.058628 0
M  V30 62 H -3.867165 2.957228 -0.341431 0
M  V30 63 H -4.167875 1.393164 0.416511 0
M  V30 END ATOM
M  V30 BEGIN BOND
M  V30 1 2 1 2
M  V30 2 1 2 3
M  V30 3 1 3 4
M  V30 4 1 4 5
M  V30 5 1 5 6
M  V30 6 1 6 7
M  V30 7 1 7 8
M  V30 8 1 8 9
M  V30 9 1 9 10
M  V30 10 1 10 11
M  V30 11 1 2 12
M  V30 12 2 12 13
M  V30 13 1 13 14
M  V30 14 2 14 15
M  V30 15 1 15 16
M  V30 16 2 16 17
M  V30 17 1 16 18
M  V30 18 2 18 19
M  V30 19 1 18 20
M  V30 20 2 20 21
M  V30 21 1 21 22
M  V30 22 2 22 23
M  V30 23 1 23 24
M  V30 24 1 24 25
M  V30 25 2 25 26
M  V30 26 1 26 27
M  V30 27 2 27 28
M  V30 28 1 28 29
M  V30 29 1 28 30
M  V30 30 2 30 31
M  V30 31 1 31 32
M  V30 32 1 23 33
M  V30 33 2 33 34
M  V30 34 1 34 35
M  V30 35 1 35 36
M  V30 36 1 11 6
M  V30 37 1 17 12
M  V30 38 1 34 20
M  V30 39 1 36 15
M  V30 40 1 31 25
M  V30 41 1 3 37
M  V30 42 1 4 38
M  V30 43 1 4 39
M  V30 44 1 5 40
M  V30 45 1 5 41
M  V30 46 1 7 42
M  V30 47 1 7 43
M  V30 48 1 8 44
M  V30 49 1 8 45
M  V30 50 1 10 46
M  V30 51 1 10 47
M  V30 52 1 11 48
M  V30 53 1 11 49
M  V30 54 1 13 50
M  V30 55 1 14 51
M  V30 56 1 17 52
M  V30 57 1 21 53
M  V30 58 1 22 54
M  V30 59 1 24 55
M  V30 60 1 26 56
M  V30 61 1 27 57
M  V30 62 1 30 58
M  V30 63 1 33 59
M  V30 64 1 35 60
M  V30 65 1 35 61
M  V30 66 1 36 62
M  V30 67 1 36 63
M  V30 END BOND
M  V30 END CTAB
M  END
>  <Dataset>  (281) 
ChEMBL_Kinases

>  <Ligand_Instance>  (281) 
nan

>  <PDB_ID>  (281) 
nan

>  <Standardized_SMILES>  (281) 
O=C(NCCN1CCOCC1)c1ccc2c(c1)C(=O)c1ccc(Nc3ccc(F)cc3F)cc1CC2

>  <Name>  (281) 
nan

>  <Pocket>  (281) 
nan

>  <ATP_Site>  (281) 
nan

>  <Peripheral>  (281) 
nan

>  <Num_H_Atoms_ProtBoundConf>  (281) 
nan

>  <Num_Resolved_Atoms>  (281) 
nan

>  <Num_Not_Resolved_Atoms>  (281) 
nan

$$$$
CHEMBL2316478
     RDKit          3D

  0  0  0  0  0  0  0  0  0  0999 V3000
M  V30 BEGIN CTAB
M  V30 COUNTS 51 54 0 0 0
M  V30 BEGIN ATOM
M  V30 1 O 5.206449 0.435633 2.626644 0
M  V30 2 C 4.886619 -0.779610 2.697762 0
M  V30 3 N 5.827082 -1.717261 3.174241 0
M  V30 4 C 7.166237 -1.379261 3.597333 0
M  V30 5 C 7.908873 -0.752976 2.415745 0
M  V30 6 O 9.220037 -0.421341 2.825090 0
M  V30 7 C 3.539921 -1.150452 2.275884 0
M  V30 8 C 3.061582 -2.444183 2.302607 0
M  V30 9 C 1.790169 -2.804160 1.905803 0
M  V30 10 C 0.922778 -1.830642 1.449845 0
M  V30 11 C 1.358481 -0.521441 1.405633 0
M  V30 12 C 2.645158 -0.224456 1.817427 0
M  V30 13 C 0.634273 0.686595 0.964883 0
M  V30 14 O 1.228881 1.785533 1.061870 0
M  V30 15 C -0.722635 0.682466 0.426360 0
M  V30 16 C -1.268811 1.949642 0.469244 0
M  V30 17 C -2.546725 2.214357 0.017046 0
M  V30 18 C -3.231231 1.123562 -0.477399 0
M  V30 19 N -4.551064 1.340994 -0.955895 0
M  V30 20 C -5.544634 0.504913 -1.520298 0
M  V30 21 C -6.138925 0.597058 -2.760525 0
M  V30 22 C -7.099531 -0.311430 -3.153479 0
M  V30 23 C -7.489734 -1.341672 -2.305284 0
M  V30 24 F -8.435125 -2.214285 -2.724754 0
M  V30 25 C -6.896480 -1.447119 -1.046701 0
M  V30 26 C -5.923671 -0.518705 -0.661533 0
M  V30 27 F -5.463761 -0.780405 0.588456 0
M  V30 28 C -2.723762 -0.157420 -0.538447 0
M  V30 29 C -1.441809 -0.384064 -0.076857 0
M  V30 30 C -0.982526 -1.775667 -0.179638 0
M  V30 31 C -0.402811 -2.357865 1.059222 0
M  V30 32 H 5.553310 -2.718667 3.230065 0
M  V30 33 H 7.120906 -0.677177 4.442404 0
M  V30 34 H 7.738071 -2.269464 3.925084 0
M  V30 35 H 7.449314 0.186114 2.072810 0
M  V30 36 H 8.007971 -1.470223 1.587926 0
M  V30 37 H 9.685587 -0.065714 2.030898 0
M  V30 38 H 3.682470 -3.243886 2.644614 0
M  V30 39 H 1.446081 -3.833313 1.939988 0
M  V30 40 H 2.926692 0.823450 1.758164 0
M  V30 41 H -0.668871 2.736674 0.868022 0
M  V30 42 H -2.998565 3.199544 0.039604 0
M  V30 43 H -5.014094 2.276041 -0.948373 0
M  V30 44 H -5.782826 1.424457 -3.362669 0
M  V30 45 H -7.543109 -0.199906 -4.144342 0
M  V30 46 H -7.251733 -2.265665 -0.456491 0
M  V30 47 H -3.232783 -1.010649 -0.914748 0
M  V30 48 H -1.832677 -2.408248 -0.480400 0
M  V30 49 H -0.216547 -1.904041 -0.993334 0
M  V30 50 H -1.080917 -2.266796 1.934884 0
M  V30 51 H -0.273882 -3.445575 0.870267 0
M  V30 END ATOM
M  V30 BEGIN BOND
M  V30 1 2 1 2
M  V30 2 1 2 3
M  V30 3 1 3 4
M  V30 4 1 4 5
M  V30 5 1 5 6
M  V30 6 1 2 7
M  V30 7 2 7 8
M  V30 8 1 8 9
M  V30 9 2 9 10
M  V30 10 1 10 11
M  V30 11 2 11 12
M  V30 12 1 11 13
M  V30 13 2 13 14
M  V30 14 1 13 15
M  V30 15 2 15 16
M  V30 16 1 16 17
M  V30 17 2 17 18
M  V30 18 1 18 19
M  V30 19 1 19 20
M  V30 20 2 20 21
M  V30 21 1 21 22
M  V30 22 2 22 23
M  V30 23 1 23 24
M  V30 24 1 23 25
M  V30 25 2 25 26
M  V30 26 1 26 27
M  V30 27 1 18 28
M  V30 28 2 28 29
M  V30 29 1 29 30
M  V30 30 1 30 31
M  V30 31 1 12 7
M  V30 32 1 29 15
M  V30 33 1 31 10
M  V30 34 1 26 20
M  V30 35 1 3 32
M  V30 36 1 4 33
M  V30 37 1 4 34
M  V30 38 1 5 35
M  V30 39 1 5 36
M  V30 40 1 6 37
M  V30 41 1 8 38
M  V30 42 1 9 39
M  V30 43 1 12 40
M  V30 44 1 16 41
M  V30 45 1 17 42
M  V30 46 1 19 43
M  V30 47 1 21 44
M  V30 48 1 22 45
M  V30 49 1 25 46
M  V30 50 1 28 47
M  V30 51 1 30 48
M  V30 52 1 30 49
M  V30 53 1 31 50
M  V30 54 1 31 51
M  V30 END BOND
M  V30 END CTAB
M  END
>  <Dataset>  (282) 
ChEMBL_Kinases

>  <Ligand_Instance>  (282) 
nan

>  <PDB_ID>  (282) 
nan

>  <Standardized_SMILES>  (282) 
O=C(NCCO)c1ccc2c(c1)C(=O)c1ccc(Nc3ccc(F)cc3F)cc1CC2

>  <Name>  (282) 
nan

>  <Pocket>  (282) 
nan

>  <ATP_Site>  (282) 
nan

>  <Peripheral>  (282) 
nan

>  <Num_H_Atoms_ProtBoundConf>  (282) 
nan

>  <Num_Resolved_Atoms>  (282) 
nan

>  <Num_Not_Resolved_Atoms>  (282) 
nan

$$$$
CHEMBL2316470
     RDKit          3D

  0  0  0  0  0  0  0  0  0  0999 V3000
M  V30 BEGIN CTAB
M  V30 COUNTS 47 50 0 0 0
M  V30 BEGIN ATOM
M  V30 1 C 3.356310 -1.306654 -6.910861 0
M  V30 2 N 2.433466 -1.499697 -5.798106 0
M  V30 3 C 2.637447 -0.887660 -4.532413 0
M  V30 4 O 3.678216 -0.177854 -4.480863 0
M  V30 5 C 1.726122 -1.068341 -3.407139 0
M  V30 6 C 0.585860 -1.842231 -3.453711 0
M  V30 7 C -0.253697 -1.984355 -2.352476 0
M  V30 8 C 0.046015 -1.339102 -1.167114 0
M  V30 9 C 1.202030 -0.566834 -1.152591 0
M  V30 10 C 2.062167 -0.402788 -2.231864 0
M  V30 11 C 1.721921 0.210050 -0.005471 0
M  V30 12 O 2.774089 0.885192 -0.124007 0
M  V30 13 C 1.110751 0.287223 1.339950 0
M  V30 14 C 2.004017 0.687727 2.321658 0
M  V30 15 C 1.604977 0.814076 3.636385 0
M  V30 16 C 0.283862 0.521391 3.905511 0
M  V30 17 N -0.143712 0.646516 5.255274 0
M  V30 18 C -1.404978 0.430305 5.877010 0
M  V30 19 C -2.176821 1.338880 6.572334 0
M  V30 20 C -3.374171 0.973002 7.114010 0
M  V30 21 C -3.887612 -0.296122 7.009883 0
M  V30 22 F -5.082134 -0.615499 7.564076 0
M  V30 23 C -3.116915 -1.207027 6.314479 0
M  V30 24 C -1.893191 -0.874441 5.748363 0
M  V30 25 F -1.291303 -1.923474 5.103160 0
M  V30 26 C -0.626704 0.121337 2.951932 0
M  V30 27 C -0.216710 -0.003137 1.631795 0
M  V30 28 C -1.303332 -0.437757 0.739606 0
M  V30 29 C -0.956276 -1.614862 -0.134078 0
M  V30 30 H 3.424893 -2.303871 -7.426415 0
M  V30 31 H 2.949097 -0.587811 -7.651324 0
M  V30 32 H 4.383490 -1.039982 -6.560440 0
M  V30 33 H 1.605500 -2.108891 -5.957293 0
M  V30 34 H 0.340219 -2.352449 -4.375767 0
M  V30 35 H -1.138357 -2.609361 -2.453890 0
M  V30 36 H 2.938549 0.201689 -2.170367 0
M  V30 37 H 3.018609 0.895915 2.019690 0
M  V30 38 H 2.321839 1.128107 4.381817 0
M  V30 39 H 0.471628 0.939441 6.027985 0
M  V30 40 H -1.735867 2.341389 6.635313 0
M  V30 41 H -3.945555 1.708250 7.647695 0
M  V30 42 H -3.550070 -2.215499 6.245455 0
M  V30 43 H -1.649028 -0.109416 3.135667 0
M  V30 44 H -1.560983 0.405031 0.054182 0
M  V30 45 H -2.176912 -0.736096 1.350118 0
M  V30 46 H -1.903615 -1.904505 -0.646538 0
M  V30 47 H -0.703044 -2.464075 0.530976 0
M  V30 END ATOM
M  V30 BEGIN BOND
M  V30 1 1 1 2
M  V30 2 1 2 3
M  V30 3 2 3 4
M  V30 4 1 3 5
M  V30 5 2 5 6
M  V30 6 1 6 7
M  V30 7 2 7 8
M  V30 8 1 8 9
M  V30 9 2 9 10
M  V30 10 1 9 11
M  V30 11 2 11 12
M  V30 12 1 11 13
M  V30 13 2 13 14
M  V30 14 1 14 15
M  V30 15 2 15 16
M  V30 16 1 16 17
M  V30 17 1 17 18
M  V30 18 2 18 19
M  V30 19 1 19 20
M  V30 20 2 20 21
M  V30 21 1 21 22
M  V30 22 1 21 23
M  V30 23 2 23 24
M  V30 24 1 24 25
M  V30 25 1 16 26
M  V30 26 2 26 27
M  V30 27 1 27 28
M  V30 28 1 28 29
M  V30 29 1 10 5
M  V30 30 1 27 13
M  V30 31 1 29 8
M  V30 32 1 24 18
M  V30 33 1 1 30
M  V30 34 1 1 31
M  V30 35 1 1 32
M  V30 36 1 2 33
M  V30 37 1 6 34
M  V30 38 1 7 35
M  V30 39 1 10 36
M  V30 40 1 14 37
M  V30 41 1 15 38
M  V30 42 1 17 39
M  V30 43 1 19 40
M  V30 44 1 20 41
M  V30 45 1 23 42
M  V30 46 1 26 43
M  V30 47 1 28 44
M  V30 48 1 28 45
M  V30 49 1 29 46
M  V30 50 1 29 47
M  V30 END BOND
M  V30 END CTAB
M  END
>  <Dataset>  (283) 
ChEMBL_Kinases

>  <Ligand_Instance>  (283) 
nan

>  <PDB_ID>  (283) 
nan

>  <Standardized_SMILES>  (283) 
CNC(=O)c1ccc2c(c1)C(=O)c1ccc(Nc3ccc(F)cc3F)cc1CC2

>  <Name>  (283) 
nan

>  <Pocket>  (283) 
nan

>  <ATP_Site>  (283) 
nan

>  <Peripheral>  (283) 
nan

>  <Num_H_Atoms_ProtBoundConf>  (283) 
nan

>  <Num_Resolved_Atoms>  (283) 
nan

>  <Num_Not_Resolved_Atoms>  (283) 
nan

$$$$
CHEMBL221824
     RDKit          3D

  0  0  0  0  0  0  0  0  0  0999 V3000
M  V30 BEGIN CTAB
M  V30 COUNTS 66 69 0 0 0
M  V30 BEGIN ATOM
M  V30 1 C 4.878795 -1.571598 2.176946 0
M  V30 2 C 4.535098 -0.137457 2.319010 0
M  V30 3 C 5.358904 0.808738 2.879693 0
M  V30 4 C 5.070759 2.146037 3.026207 0
M  V30 5 C 3.839485 2.512308 2.554441 0
M  V30 6 C 3.428863 3.904853 2.641215 0
M  V30 7 N 4.308153 4.919640 3.085723 0
M  V30 8 O 2.377380 4.592920 2.409662 0
M  V30 9 C 2.934336 1.665796 1.978327 0
M  V30 10 C 3.320100 0.328042 1.874417 0
M  V30 11 N 2.428759 -0.587632 1.276693 0
M  V30 12 C 1.133573 -0.542712 0.695285 0
M  V30 13 N 1.213407 -0.187790 -0.598997 0
M  V30 14 C 0.115093 -0.078319 -1.376567 0
M  V30 15 N 0.182571 0.297575 -2.752404 0
M  V30 16 C -0.994471 0.417550 -3.589290 0 CFG=1
M  V30 17 C -1.959864 1.463249 -3.048057 0
M  V30 18 C -2.739815 1.828657 -4.293589 0
M  V30 19 N -1.902700 1.474573 -5.422007 0
M  V30 20 C -0.627957 1.056304 -4.915229 0
M  V30 21 N -1.106642 -0.324854 -0.871303 0
M  V30 22 C -1.178947 -0.679382 0.422062 0
M  V30 23 N -2.424976 -0.971206 1.091700 0
M  V30 24 C -2.819188 0.282624 1.731173 0
M  V30 25 C -3.280838 -2.089099 1.260370 0
M  V30 26 C -2.913440 -3.369047 0.589574 0
M  V30 27 C -3.910986 -4.476404 0.855022 0
M  V30 28 C -3.576137 -5.375217 1.984970 0
M  V30 29 C -2.529121 -4.912496 2.937073 0
M  V30 30 C -1.324625 -4.313076 2.285423 0
M  V30 31 C -1.566693 -3.912558 0.850712 0
M  V30 32 N -0.078726 -0.794865 1.224153 0
M  V30 33 H 4.697661 -1.932228 1.125555 0
M  V30 34 H 5.944435 -1.766813 2.440726 0
M  V30 35 H 4.251900 -2.147321 2.897010 0
M  V30 36 H 6.338175 0.471437 3.245703 0
M  V30 37 H 5.749732 2.857823 3.474600 0
M  V30 38 H 4.959467 5.652342 3.409200 0
M  V30 39 H 5.232361 5.316731 3.348476 0
M  V30 40 H 1.988178 2.063452 1.639468 0
M  V30 41 H 2.649906 -1.595777 1.167509 0
M  V30 42 H 1.150822 0.487403 -3.137917 0
M  V30 43 H -1.439326 -0.567506 -3.729398 0
M  V30 44 H -1.339007 2.291894 -2.673265 0
M  V30 45 H -2.629237 1.016150 -2.270901 0
M  V30 46 H -3.058978 2.898693 -4.306496 0
M  V30 47 H -3.637702 1.145747 -4.285248 0
M  V30 48 H -2.324317 0.692626 -5.967330 0
M  V30 49 H -0.154068 0.349309 -5.611903 0
M  V30 50 H 0.052020 1.914426 -4.734483 0
M  V30 51 H -2.008983 0.691139 2.383393 0
M  V30 52 H -3.778705 0.193963 2.265325 0
M  V30 53 H -3.005878 1.010894 0.904351 0
M  V30 54 H -3.360579 -2.318993 2.360611 0
M  V30 55 H -4.305366 -1.756549 0.994229 0
M  V30 56 H -2.961774 -3.164166 -0.500579 0
M  V30 57 H -4.897971 -3.989045 1.032393 0
M  V30 58 H -4.020437 -5.053988 -0.085198 0
M  V30 59 H -3.257317 -6.373116 1.559697 0
M  V30 60 H -4.510101 -5.607089 2.563482 0
M  V30 61 H -3.002422 -4.258941 3.718564 0
M  V30 62 H -2.208203 -5.804655 3.515311 0
M  V30 63 H -1.029943 -3.392795 2.834282 0
M  V30 64 H -0.463501 -5.007840 2.362680 0
M  V30 65 H -0.714669 -3.368616 0.407078 0
M  V30 66 H -1.539539 -4.898044 0.287907 0
M  V30 END ATOM
M  V30 BEGIN BOND
M  V30 1 1 1 2
M  V30 2 2 2 3
M  V30 3 1 3 4
M  V30 4 2 4 5
M  V30 5 1 5 6
M  V30 6 1 6 7
M  V30 7 2 6 8
M  V30 8 1 5 9
M  V30 9 2 9 10
M  V30 10 1 10 11
M  V30 11 1 11 12
M  V30 12 2 12 13
M  V30 13 1 13 14
M  V30 14 1 14 15
M  V30 15 1 15 16
M  V30 16 1 16 17
M  V30 17 1 17 18
M  V30 18 1 18 19
M  V30 19 1 19 20
M  V30 20 2 14 21
M  V30 21 1 21 22
M  V30 22 1 22 23
M  V30 23 1 23 24
M  V30 24 1 23 25
M  V30 25 1 25 26
M  V30 26 1 26 27
M  V30 27 1 27 28
M  V30 28 1 28 29
M  V30 29 1 29 30
M  V30 30 1 30 31
M  V30 31 2 22 32
M  V30 32 1 10 2
M  V30 33 1 32 12
M  V30 34 1 20 16
M  V30 35 1 31 26
M  V30 36 1 1 33
M  V30 37 1 1 34
M  V30 38 1 1 35
M  V30 39 1 3 36
M  V30 40 1 4 37
M  V30 41 1 7 38
M  V30 42 1 7 39
M  V30 43 1 9 40
M  V30 44 1 11 41
M  V30 45 1 15 42
M  V30 46 1 16 43 CFG=3
M  V30 47 1 17 44
M  V30 48 1 17 45
M  V30 49 1 18 46
M  V30 50 1 18 47
M  V30 51 1 19 48
M  V30 52 1 20 49
M  V30 53 1 20 50
M  V30 54 1 24 51
M  V30 55 1 24 52
M  V30 56 1 24 53
M  V30 57 1 25 54
M  V30 58 1 25 55
M  V30 59 1 26 56
M  V30 60 1 27 57
M  V30 61 1 27 58
M  V30 62 1 28 59
M  V30 63 1 28 60
M  V30 64 1 29 61
M  V30 65 1 29 62
M  V30 66 1 30 63
M  V30 67 1 30 64
M  V30 68 1 31 65
M  V30 69 1 31 66
M  V30 END BOND
M  V30 END CTAB
M  END
>  <Dataset>  (284) 
ChEMBL_Kinases

>  <Ligand_Instance>  (284) 
nan

>  <PDB_ID>  (284) 
nan

>  <Standardized_SMILES>  (284) 
Cc1ccc(C(N)=O)cc1Nc1nc(N[C@H]2CCNC2)nc(N(C)CC2CCCCC2)n1

>  <Name>  (284) 
nan

>  <Pocket>  (284) 
nan

>  <ATP_Site>  (284) 
nan

>  <Peripheral>  (284) 
nan

>  <Num_H_Atoms_ProtBoundConf>  (284) 
nan

>  <Num_Resolved_Atoms>  (284) 
nan

>  <Num_Not_Resolved_Atoms>  (284) 
nan

$$$$
CHEMBL221788
     RDKit          3D

  0  0  0  0  0  0  0  0  0  0999 V3000
M  V30 BEGIN CTAB
M  V30 COUNTS 56 60 0 0 0
M  V30 BEGIN ATOM
M  V30 1 N 6.232725 0.067341 -3.144138 0
M  V30 2 C 6.543725 0.298172 -2.038075 0
M  V30 3 C 6.906444 0.586869 -0.679391 0
M  V30 4 C 8.159415 1.100341 -0.412774 0
M  V30 5 C 8.483848 1.371543 0.921171 0
M  V30 6 C 7.624363 1.154538 1.975317 0
M  V30 7 C 6.371214 0.636412 1.666619 0
M  V30 8 N 5.495537 0.406835 2.663066 0
M  V30 9 C 4.273878 -0.093987 2.401577 0
M  V30 10 O 3.490044 -0.291841 3.363711 0
M  V30 11 C 3.839876 -0.400724 1.130235 0
M  V30 12 C 2.528736 -0.944508 0.793326 0
M  V30 13 C 1.491504 -1.252209 1.647807 0
M  V30 14 C 0.430267 -1.742578 0.915883 0
M  V30 15 C -0.835290 -2.198738 1.221149 0
M  V30 16 C -1.737791 -2.651228 0.275458 0
M  V30 17 C -3.085085 -3.134646 0.620690 0
M  V30 18 N -4.000646 -2.036337 0.591720 0
M  V30 19 C -5.354928 -2.355251 0.911612 0
M  V30 20 C -6.233963 -1.444523 0.056470 0
M  V30 21 C -5.478334 -0.140283 -0.126472 0
M  V30 22 C -6.526877 0.913525 -0.410099 0
M  V30 23 N -7.223592 0.501722 -1.624072 0
M  V30 24 C -4.688700 0.168859 1.118024 0
M  V30 25 C -3.506266 -0.809026 1.140459 0
M  V30 26 C -1.265146 -2.609928 -1.019076 0
M  V30 27 C -0.001465 -2.162362 -1.396423 0
M  V30 28 C 0.858289 -1.720841 -0.399765 0
M  V30 29 N 2.113320 -1.240611 -0.446338 0
M  V30 30 C 4.768288 -0.150063 0.140272 0
M  V30 31 C 6.027649 0.360792 0.360095 0
M  V30 32 H 8.907740 1.307291 -1.165864 0
M  V30 33 H 9.452504 1.777991 1.214221 0
M  V30 34 H 7.890130 1.368693 2.994835 0
M  V30 35 H 5.793823 0.628887 3.639722 0
M  V30 36 H 1.442292 -1.155908 2.703266 0
M  V30 37 H -1.099543 -2.186879 2.264546 0
M  V30 38 H -3.398503 -3.910718 -0.114628 0
M  V30 39 H -3.094472 -3.665273 1.613755 0
M  V30 40 H -5.532906 -2.047329 1.962172 0
M  V30 41 H -5.529528 -3.424192 0.721050 0
M  V30 42 H -6.363481 -1.986068 -0.923950 0
M  V30 43 H -7.234767 -1.281369 0.500991 0
M  V30 44 H -4.762846 -0.236339 -0.968644 0
M  V30 45 H -6.105526 1.906397 -0.595689 0
M  V30 46 H -7.280277 0.889833 0.395458 0
M  V30 47 H -7.724823 -0.415214 -1.420885 0
M  V30 48 H -6.480420 0.281034 -2.322886 0
M  V30 49 H -5.275789 -0.014772 2.047707 0
M  V30 50 H -4.356275 1.211039 1.173883 0
M  V30 51 H -2.687859 -0.454133 0.479908 0
M  V30 52 H -3.172235 -0.980980 2.190926 0
M  V30 53 H -1.936036 -2.956159 -1.812843 0
M  V30 54 H 0.306614 -2.156393 -2.432022 0
M  V30 55 H 2.658801 -1.127603 -1.342403 0
M  V30 56 H 4.505845 -0.364966 -0.897823 0
M  V30 END ATOM
M  V30 BEGIN BOND
M  V30 1 3 1 2
M  V30 2 1 2 3
M  V30 3 2 3 4
M  V30 4 1 4 5
M  V30 5 2 5 6
M  V30 6 1 6 7
M  V30 7 1 7 8
M  V30 8 1 8 9
M  V30 9 2 9 10
M  V30 10 1 9 11
M  V30 11 1 11 12
M  V30 12 2 12 13
M  V30 13 1 13 14
M  V30 14 2 14 15
M  V30 15 1 15 16
M  V30 16 1 16 17
M  V30 17 1 17 18
M  V30 18 1 18 19
M  V30 19 1 19 20
M  V30 20 1 20 21
M  V30 21 1 21 22
M  V30 22 1 22 23
M  V30 23 1 21 24
M  V30 24 1 24 25
M  V30 25 2 16 26
M  V30 26 1 26 27
M  V30 27 2 27 28
M  V30 28 1 28 29
M  V30 29 2 11 30
M  V30 30 1 30 31
M  V30 31 1 31 3
M  V30 32 2 31 7
M  V30 33 1 29 12
M  V30 34 1 28 14
M  V30 35 1 25 18
M  V30 36 1 4 32
M  V30 37 1 5 33
M  V30 38 1 6 34
M  V30 39 1 8 35
M  V30 40 1 13 36
M  V30 41 1 15 37
M  V30 42 1 17 38
M  V30 43 1 17 39
M  V30 44 1 19 40
M  V30 45 1 19 41
M  V30 46 1 20 42
M  V30 47 1 20 43
M  V30 48 1 21 44
M  V30 49 1 22 45
M  V30 50 1 22 46
M  V30 51 1 23 47
M  V30 52 1 23 48
M  V30 53 1 24 49
M  V30 54 1 24 50
M  V30 55 1 25 51
M  V30 56 1 25 52
M  V30 57 1 26 53
M  V30 58 1 27 54
M  V30 59 1 29 55
M  V30 60 1 30 56
M  V30 END BOND
M  V30 END CTAB
M  END
>  <Dataset>  (285) 
ChEMBL_Kinases

>  <Ligand_Instance>  (285) 
nan

>  <PDB_ID>  (285) 
nan

>  <Standardized_SMILES>  (285) 
N#Cc1cccc2[nH]c(=O)c(-c3cc4cc(CN5CCC(CN)CC5)ccc4[nH]3)cc12

>  <Name>  (285) 
nan

>  <Pocket>  (285) 
nan

>  <ATP_Site>  (285) 
nan

>  <Peripheral>  (285) 
nan

>  <Num_H_Atoms_ProtBoundConf>  (285) 
nan

>  <Num_Resolved_Atoms>  (285) 
nan

>  <Num_Not_Resolved_Atoms>  (285) 
nan

$$$$
CHEMBL221771
     RDKit          3D

  0  0  0  0  0  0  0  0  0  0999 V3000
M  V30 BEGIN CTAB
M  V30 COUNTS 62 64 0 0 0
M  V30 BEGIN ATOM
M  V30 1 C 3.398335 -3.275355 3.482791 0
M  V30 2 C 3.557828 -1.827543 3.118268 0
M  V30 3 C 4.692269 -1.165557 3.509972 0
M  V30 4 C 4.888215 0.159492 3.200773 0
M  V30 5 C 3.912914 0.814134 2.483036 0
M  V30 6 C 4.114717 2.216554 2.150720 0
M  V30 7 N 5.278843 2.905994 2.568174 0
M  V30 8 O 3.403398 3.019253 1.509828 0
M  V30 9 C 2.790999 0.106909 2.112166 0
M  V30 10 C 2.529078 -1.222753 2.388102 0
M  V30 11 N 1.355314 -1.883557 1.974420 0
M  V30 12 C 0.225577 -1.436030 1.244837 0
M  V30 13 N 0.046121 -0.193582 0.773110 0
M  V30 14 C -1.057500 0.130644 0.096098 0
M  V30 15 N -1.360401 1.392187 -0.441592 0
M  V30 16 C -0.645312 2.605440 -0.425560 0 CFG=1
M  V30 17 C -0.347668 3.169849 0.956204 0
M  V30 18 C 0.551399 4.342124 0.527099 0
M  V30 19 N 1.206307 3.916924 -0.668095 0
M  V30 20 C 0.769241 2.554170 -0.970412 0
M  V30 21 N -1.961211 -0.850091 -0.079459 0
M  V30 22 C -1.838092 -2.103115 0.366161 0
M  V30 23 N -2.861950 -3.087943 0.132951 0
M  V30 24 C -2.626871 -4.405512 0.646973 0
M  V30 25 C -4.041192 -2.713635 -0.581747 0
M  V30 26 C -4.196805 -3.339221 -1.935595 0
M  V30 27 C -5.499196 -2.826501 -2.542994 0
M  V30 28 C -4.230027 -4.850040 -1.878815 0
M  V30 29 C -3.084281 -2.936004 -2.877230 0
M  V30 30 N -0.718708 -2.369210 1.033633 0
M  V30 31 H 2.662066 -3.394182 4.307686 0
M  V30 32 H 4.361257 -3.665503 3.874378 0
M  V30 33 H 3.157333 -3.883726 2.586743 0
M  V30 34 H 5.421086 -1.727494 4.068917 0
M  V30 35 H 5.776196 0.693814 3.502502 0
M  V30 36 H 6.293221 3.087152 2.401703 0
M  V30 37 H 5.078402 3.513226 3.413724 0
M  V30 38 H 2.080698 0.700257 1.554852 0
M  V30 39 H 1.385278 -2.899360 2.301621 0
M  V30 40 H -2.284992 1.502778 -0.964063 0
M  V30 41 H -1.138069 3.435375 -0.971032 0
M  V30 42 H -1.302451 3.527818 1.392856 0
M  V30 43 H 0.230724 2.497754 1.591085 0
M  V30 44 H -0.169648 5.142035 0.229529 0
M  V30 45 H 1.237541 4.668451 1.300498 0
M  V30 46 H 2.214613 4.064399 -0.730570 0
M  V30 47 H 1.420951 1.879563 -0.412342 0
M  V30 48 H 0.779590 2.368118 -2.064256 0
M  V30 49 H -3.523317 -5.023409 0.702170 0
M  V30 50 H -1.795506 -4.950376 0.121742 0
M  V30 51 H -2.251580 -4.289752 1.701979 0
M  V30 52 H -4.923265 -2.877567 0.068863 0
M  V30 53 H -4.045976 -1.599275 -0.764726 0
M  V30 54 H -6.221229 -3.689728 -2.629444 0
M  V30 55 H -5.341634 -2.360850 -3.532304 0
M  V30 56 H -5.948496 -2.052016 -1.894434 0
M  V30 57 H -4.573934 -5.174368 -2.905104 0
M  V30 58 H -3.220079 -5.268606 -1.779402 0
M  V30 59 H -4.975535 -5.244619 -1.191212 0
M  V30 60 H -3.341753 -2.019164 -3.450688 0
M  V30 61 H -2.102916 -2.876811 -2.378768 0
M  V30 62 H -2.991097 -3.754196 -3.642611 0
M  V30 END ATOM
M  V30 BEGIN BOND
M  V30 1 1 1 2
M  V30 2 2 2 3
M  V30 3 1 3 4
M  V30 4 2 4 5
M  V30 5 1 5 6
M  V30 6 1 6 7
M  V30 7 2 6 8
M  V30 8 1 5 9
M  V30 9 2 9 10
M  V30 10 1 10 11
M  V30 11 1 11 12
M  V30 12 2 12 13
M  V30 13 1 13 14
M  V30 14 1 14 15
M  V30 15 1 15 16
M  V30 16 1 16 17
M  V30 17 1 17 18
M  V30 18 1 18 19
M  V30 19 1 19 20
M  V30 20 2 14 21
M  V30 21 1 21 22
M  V30 22 1 22 23
M  V30 23 1 23 24
M  V30 24 1 23 25
M  V30 25 1 25 26
M  V30 26 1 26 27
M  V30 27 1 26 28
M  V30 28 1 26 29
M  V30 29 2 22 30
M  V30 30 1 10 2
M  V30 31 1 30 12
M  V30 32 1 20 16
M  V30 33 1 1 31
M  V30 34 1 1 32
M  V30 35 1 1 33
M  V30 36 1 3 34
M  V30 37 1 4 35
M  V30 38 1 7 36
M  V30 39 1 7 37
M  V30 40 1 9 38
M  V30 41 1 11 39
M  V30 42 1 15 40
M  V30 43 1 16 41 CFG=3
M  V30 44 1 17 42
M  V30 45 1 17 43
M  V30 46 1 18 44
M  V30 47 1 18 45
M  V30 48 1 19 46
M  V30 49 1 20 47
M  V30 50 1 20 48
M  V30 51 1 24 49
M  V30 52 1 24 50
M  V30 53 1 24 51
M  V30 54 1 25 52
M  V30 55 1 25 53
M  V30 56 1 27 54
M  V30 57 1 27 55
M  V30 58 1 27 56
M  V30 59 1 28 57
M  V30 60 1 28 58
M  V30 61 1 28 59
M  V30 62 1 29 60
M  V30 63 1 29 61
M  V30 64 1 29 62
M  V30 END BOND
M  V30 END CTAB
M  END
>  <Dataset>  (286) 
ChEMBL_Kinases

>  <Ligand_Instance>  (286) 
nan

>  <PDB_ID>  (286) 
nan

>  <Standardized_SMILES>  (286) 
Cc1ccc(C(N)=O)cc1Nc1nc(N[C@H]2CCNC2)nc(N(C)CC(C)(C)C)n1

>  <Name>  (286) 
nan

>  <Pocket>  (286) 
nan

>  <ATP_Site>  (286) 
nan

>  <Peripheral>  (286) 
nan

>  <Num_H_Atoms_ProtBoundConf>  (286) 
nan

>  <Num_Resolved_Atoms>  (286) 
nan

>  <Num_Not_Resolved_Atoms>  (286) 
nan

$$$$
CHEMBL221758
     RDKit          3D

  0  0  0  0  0  0  0  0  0  0999 V3000
M  V30 BEGIN CTAB
M  V30 COUNTS 58 62 0 0 0
M  V30 BEGIN ATOM
M  V30 1 C 0.645918 -0.395537 4.087909 0
M  V30 2 C 1.534978 0.711698 3.562243 0 CFG=1
M  V30 3 C 2.894205 0.203714 3.252958 0
M  V30 4 C 4.084588 0.882645 3.317753 0
M  V30 5 C 5.276232 0.289212 3.002336 0
M  V30 6 C 5.271718 -1.030090 2.608700 0
M  V30 7 C 4.102745 -1.771375 2.522837 0
M  V30 8 C 2.914962 -1.135258 2.850559 0
M  V30 9 C 0.875651 1.291737 2.363162 0
M  V30 10 N 0.993160 2.610680 2.067303 0
M  V30 11 C 0.361315 3.043589 0.960814 0
M  V30 12 C -0.378656 2.191928 0.151884 0
M  V30 13 C -0.478564 0.852418 0.481584 0
M  V30 14 C -1.266583 0.011178 -0.404281 0
M  V30 15 C -2.606370 0.043994 -0.727328 0
M  V30 16 C -3.556233 1.011434 -0.191839 0
M  V30 17 C -4.262057 1.907154 -0.963930 0
M  V30 18 C -5.153088 2.798264 -0.358090 0
M  V30 19 C -5.317862 2.772917 1.007097 0
M  V30 20 F -6.191471 3.652349 1.561273 0
M  V30 21 C -4.608166 1.869309 1.802343 0
M  V30 22 C -3.732157 0.995173 1.194544 0
M  V30 23 N -2.853549 -0.954567 -1.600158 0
M  V30 24 C -1.706505 -1.627161 -1.845397 0
M  V30 25 C -1.380745 -2.710244 -2.637808 0
M  V30 26 C -0.096790 -3.216904 -2.713553 0
M  V30 27 C 0.247294 -4.379500 -3.565650 0
M  V30 28 N 0.115562 -5.647007 -2.875363 0
M  V30 29 C 0.987798 -5.697885 -1.722379 0
M  V30 30 O -1.164091 -5.927787 -2.565557 0
M  V30 31 C 0.866214 -2.586283 -1.951637 0
M  V30 32 C 0.530782 -1.505886 -1.163926 0
M  V30 33 N -0.744582 -1.027543 -1.108943 0
M  V30 34 N 0.159365 0.443761 1.588663 0
M  V30 35 H -0.132047 0.080881 4.714755 0
M  V30 36 H 0.134375 -0.872645 3.218122 0
M  V30 37 H 1.219931 -1.151053 4.664188 0
M  V30 38 H 1.608747 1.472051 4.383100 0
M  V30 39 H 3.979507 1.902099 3.634612 0
M  V30 40 H 6.199568 0.853825 3.063934 0
M  V30 41 H 6.245048 -1.465980 2.365973 0
M  V30 42 H 4.128914 -2.809134 2.209888 0
M  V30 43 H 2.020951 -1.745316 2.771637 0
M  V30 44 H 0.403215 4.087343 0.650023 0
M  V30 45 H -0.870074 2.578482 -0.726935 0
M  V30 46 H -4.106826 1.898329 -2.039719 0
M  V30 47 H -5.696517 3.494078 -0.995214 0
M  V30 48 H -4.750501 1.861330 2.891511 0
M  V30 49 H -3.207686 0.314116 1.870238 0
M  V30 50 H -2.176507 -3.164283 -3.212811 0
M  V30 51 H 1.333596 -4.286652 -3.841400 0
M  V30 52 H -0.289372 -4.423408 -4.518068 0
M  V30 53 H 1.093080 -6.716830 -1.322102 0
M  V30 54 H 1.990212 -5.354315 -2.097875 0
M  V30 55 H 0.710975 -5.025947 -0.910953 0
M  V30 56 H -1.702875 -5.549897 -3.326397 0
M  V30 57 H 1.905401 -2.938964 -1.966341 0
M  V30 58 H 1.338474 -1.046085 -0.581026 0
M  V30 END ATOM
M  V30 BEGIN BOND
M  V30 1 1 1 2
M  V30 2 1 2 3
M  V30 3 2 3 4
M  V30 4 1 4 5
M  V30 5 2 5 6
M  V30 6 1 6 7
M  V30 7 2 7 8
M  V30 8 1 2 9
M  V30 9 2 9 10
M  V30 10 1 10 11
M  V30 11 2 11 12
M  V30 12 1 12 13
M  V30 13 1 13 14
M  V30 14 2 14 15
M  V30 15 1 15 16
M  V30 16 2 16 17
M  V30 17 1 17 18
M  V30 18 2 18 19
M  V30 19 1 19 20
M  V30 20 1 19 21
M  V30 21 2 21 22
M  V30 22 1 15 23
M  V30 23 2 23 24
M  V30 24 1 24 25
M  V30 25 2 25 26
M  V30 26 1 26 27
M  V30 27 1 27 28
M  V30 28 1 28 29
M  V30 29 1 28 30
M  V30 30 1 26 31
M  V30 31 2 31 32
M  V30 32 1 32 33
M  V30 33 2 13 34
M  V30 34 1 8 3
M  V30 35 1 34 9
M  V30 36 1 33 14
M  V30 37 1 22 16
M  V30 38 1 33 24
M  V30 39 1 1 35
M  V30 40 1 1 36
M  V30 41 1 1 37
M  V30 42 1 2 38 CFG=1
M  V30 43 1 4 39
M  V30 44 1 5 40
M  V30 45 1 6 41
M  V30 46 1 7 42
M  V30 47 1 8 43
M  V30 48 1 11 44
M  V30 49 1 12 45
M  V30 50 1 17 46
M  V30 51 1 18 47
M  V30 52 1 21 48
M  V30 53 1 22 49
M  V30 54 1 25 50
M  V30 55 1 27 51
M  V30 56 1 27 52
M  V30 57 1 29 53
M  V30 58 1 29 54
M  V30 59 1 29 55
M  V30 60 1 30 56
M  V30 61 1 31 57
M  V30 62 1 32 58
M  V30 END BOND
M  V30 END CTAB
M  END
>  <Dataset>  (287) 
ChEMBL_Kinases

>  <Ligand_Instance>  (287) 
nan

>  <PDB_ID>  (287) 
nan

>  <Standardized_SMILES>  (287) 
C[C@@H](c1ccccc1)c1nccc(-c2c(-c3ccc(F)cc3)nc3cc(CN(C)O)ccn23)n1

>  <Name>  (287) 
nan

>  <Pocket>  (287) 
nan

>  <ATP_Site>  (287) 
nan

>  <Peripheral>  (287) 
nan

>  <Num_H_Atoms_ProtBoundConf>  (287) 
nan

>  <Num_Resolved_Atoms>  (287) 
nan

>  <Num_Not_Resolved_Atoms>  (287) 
nan

$$$$
CHEMBL221736
     RDKit          3D

  0  0  0  0  0  0  0  0  0  0999 V3000
M  V30 BEGIN CTAB
M  V30 COUNTS 32 35 0 0 0
M  V30 BEGIN ATOM
M  V30 1 O 0.401049 -0.553081 3.454547 0
M  V30 2 C 0.835982 -1.226387 2.488991 0
M  V30 3 N 1.688246 -2.237757 2.731675 0
M  V30 4 C 2.209121 -3.017389 1.760505 0
M  V30 5 C 3.078856 -4.045345 2.036949 0
M  V30 6 C 3.568274 -4.795527 1.002268 0
M  V30 7 C 3.202655 -4.536240 -0.311921 0
M  V30 8 C 2.317469 -3.488750 -0.584490 0
M  V30 9 C 1.820157 -2.728931 0.449811 0
M  V30 10 C 0.948730 -1.691308 0.226022 0
M  V30 11 C 0.417279 -0.895665 1.218173 0
M  V30 12 C -0.502364 0.185647 0.887026 0
M  V30 13 C -1.120193 1.068253 1.746613 0
M  V30 14 C -1.906493 1.928503 1.018203 0
M  V30 15 C -2.749285 2.998777 1.264498 0
M  V30 16 C -3.423827 3.683947 0.273806 0
M  V30 17 C -3.256195 3.288658 -1.038988 0
M  V30 18 C -2.410095 2.209257 -1.320386 0
M  V30 19 C -1.750115 1.546238 -0.300093 0
M  V30 20 N -0.905331 0.501428 -0.352923 0
M  V30 21 H 1.971349 -2.442946 3.718792 0
M  V30 22 H 3.356382 -4.237377 3.067672 0
M  V30 23 H 4.253733 -5.598294 1.271308 0
M  V30 24 H 3.597129 -5.136892 -1.118174 0
M  V30 25 H 2.047551 -3.305390 -1.610620 0
M  V30 26 H 0.689754 -1.522842 -0.810101 0
M  V30 27 H -1.050649 1.135438 2.803680 0
M  V30 28 H -2.848361 3.270783 2.306291 0
M  V30 29 H -4.080850 4.524291 0.507247 0
M  V30 30 H -3.796195 3.839257 -1.817594 0
M  V30 31 H -2.287611 1.911451 -2.341829 0
M  V30 32 H -0.618266 0.023895 -1.219583 0
M  V30 END ATOM
M  V30 BEGIN BOND
M  V30 1 2 1 2
M  V30 2 1 2 3
M  V30 3 1 3 4
M  V30 4 2 4 5
M  V30 5 1 5 6
M  V30 6 2 6 7
M  V30 7 1 7 8
M  V30 8 2 8 9
M  V30 9 1 9 10
M  V30 10 2 10 11
M  V30 11 1 11 12
M  V30 12 2 12 13
M  V30 13 1 13 14
M  V30 14 2 14 15
M  V30 15 1 15 16
M  V30 16 2 16 17
M  V30 17 1 17 18
M  V30 18 2 18 19
M  V30 19 1 19 20
M  V30 20 1 11 2
M  V30 21 1 20 12
M  V30 22 1 9 4
M  V30 23 1 19 14
M  V30 24 1 3 21
M  V30 25 1 5 22
M  V30 26 1 6 23
M  V30 27 1 7 24
M  V30 28 1 8 25
M  V30 29 1 10 26
M  V30 30 1 13 27
M  V30 31 1 15 28
M  V30 32 1 16 29
M  V30 33 1 17 30
M  V30 34 1 18 31
M  V30 35 1 20 32
M  V30 END BOND
M  V30 END CTAB
M  END
>  <Dataset>  (288) 
ChEMBL_Kinases

>  <Ligand_Instance>  (288) 
nan

>  <PDB_ID>  (288) 
nan

>  <Standardized_SMILES>  (288) 
O=c1[nH]c2ccccc2cc1-c1cc2ccccc2[nH]1

>  <Name>  (288) 
nan

>  <Pocket>  (288) 
nan

>  <ATP_Site>  (288) 
nan

>  <Peripheral>  (288) 
nan

>  <Num_H_Atoms_ProtBoundConf>  (288) 
nan

>  <Num_Resolved_Atoms>  (288) 
nan

>  <Num_Not_Resolved_Atoms>  (288) 
nan

$$$$
CHEMBL221735
     RDKit          3D

  0  0  0  0  0  0  0  0  0  0999 V3000
M  V30 BEGIN CTAB
M  V30 COUNTS 55 59 0 0 0
M  V30 BEGIN ATOM
M  V30 1 N 1.435579 -2.013697 6.662799 0
M  V30 2 C 2.647326 -2.157405 5.879900 0
M  V30 3 C 2.495045 -1.610704 4.473824 0
M  V30 4 C 3.794058 -1.807434 3.756940 0
M  V30 5 C 3.695963 -2.259672 2.350635 0
M  V30 6 N 2.707690 -3.222868 2.139269 0
M  V30 7 C 2.469823 -3.675877 0.831702 0
M  V30 8 C 2.065820 -2.511354 -0.003341 0
M  V30 9 C 2.937971 -1.692718 -0.719683 0
M  V30 10 C 2.458323 -0.635063 -1.465083 0
M  V30 11 C 1.113509 -0.336582 -1.539797 0
M  V30 12 N 0.390259 0.605712 -2.170289 0
M  V30 13 C -0.923390 0.468638 -1.919102 0
M  V30 14 C -2.091122 1.222107 -2.356619 0
M  V30 15 C -3.377089 0.903874 -1.971973 0
M  V30 16 C -4.464228 1.635141 -2.401231 0
M  V30 17 C -5.722291 1.272433 -1.986156 0
M  V30 18 C -6.839072 1.987780 -2.400055 0
M  V30 19 C -6.599414 3.057700 -3.233956 0
M  V30 20 C -5.379243 3.484372 -3.693022 0
M  V30 21 C -4.315831 2.732679 -3.245689 0
M  V30 22 N -3.061835 3.042016 -3.620023 0
M  V30 23 C -2.016107 2.317448 -3.191194 0
M  V30 24 O -0.905565 2.711868 -3.613639 0
M  V30 25 C -1.011581 -0.625499 -1.082761 0
M  V30 26 C 0.247300 -1.134234 -0.839955 0
M  V30 27 C 0.725607 -2.191211 -0.094962 0
M  V30 28 C 1.872112 -3.630481 3.187790 0
M  V30 29 C 1.341607 -2.346862 3.838975 0
M  V30 30 H 0.990223 -2.946669 6.789451 0
M  V30 31 H 0.778436 -1.348431 6.187713 0
M  V30 32 H 3.517903 -1.684628 6.407894 0
M  V30 33 H 2.937042 -3.246255 5.823023 0
M  V30 34 H 2.207846 -0.532651 4.583749 0
M  V30 35 H 4.278257 -0.786395 3.728952 0
M  V30 36 H 4.505155 -2.417107 4.352511 0
M  V30 37 H 4.712129 -2.604473 2.039448 0
M  V30 38 H 3.495972 -1.387779 1.661520 0
M  V30 39 H 3.402162 -4.114849 0.394673 0
M  V30 40 H 1.651881 -4.400460 0.794996 0
M  V30 41 H 3.986366 -1.946197 -0.645788 0
M  V30 42 H 3.145211 -0.006924 -2.016744 0
M  V30 43 H 0.781180 1.344399 -2.772208 0
M  V30 44 H -3.547841 0.060106 -1.316562 0
M  V30 45 H -5.865439 0.417482 -1.325218 0
M  V30 46 H -7.853916 1.748929 -2.105830 0
M  V30 47 H -7.486349 3.622813 -3.560457 0
M  V30 48 H -5.272119 4.337551 -4.348568 0
M  V30 49 H -2.959269 3.866645 -4.253462 0
M  V30 50 H -1.929942 -1.043312 -0.664012 0
M  V30 51 H 0.012894 -2.797956 0.443352 0
M  V30 52 H 0.988085 -4.150594 2.796311 0
M  V30 53 H 2.310477 -4.259881 3.979522 0
M  V30 54 H 0.527043 -2.538489 4.541014 0
M  V30 55 H 0.940473 -1.715920 3.018665 0
M  V30 END ATOM
M  V30 BEGIN BOND
M  V30 1 1 1 2
M  V30 2 1 2 3
M  V30 3 1 3 4
M  V30 4 1 4 5
M  V30 5 1 5 6
M  V30 6 1 6 7
M  V30 7 1 7 8
M  V30 8 2 8 9
M  V30 9 1 9 10
M  V30 10 2 10 11
M  V30 11 1 11 12
M  V30 12 1 12 13
M  V30 13 1 13 14
M  V30 14 2 14 15
M  V30 15 1 15 16
M  V30 16 2 16 17
M  V30 17 1 17 18
M  V30 18 2 18 19
M  V30 19 1 19 20
M  V30 20 2 20 21
M  V30 21 1 21 22
M  V30 22 1 22 23
M  V30 23 2 23 24
M  V30 24 2 13 25
M  V30 25 1 25 26
M  V30 26 2 26 27
M  V30 27 1 6 28
M  V30 28 1 28 29
M  V30 29 1 29 3
M  V30 30 1 27 8
M  V30 31 1 26 11
M  V30 32 1 23 14
M  V30 33 1 21 16
M  V30 34 1 1 30
M  V30 35 1 1 31
M  V30 36 1 2 32
M  V30 37 1 2 33
M  V30 38 1 3 34
M  V30 39 1 4 35
M  V30 40 1 4 36
M  V30 41 1 5 37
M  V30 42 1 5 38
M  V30 43 1 7 39
M  V30 44 1 7 40
M  V30 45 1 9 41
M  V30 46 1 10 42
M  V30 47 1 12 43
M  V30 48 1 15 44
M  V30 49 1 17 45
M  V30 50 1 18 46
M  V30 51 1 19 47
M  V30 52 1 20 48
M  V30 53 1 22 49
M  V30 54 1 25 50
M  V30 55 1 27 51
M  V30 56 1 28 52
M  V30 57 1 28 53
M  V30 58 1 29 54
M  V30 59 1 29 55
M  V30 END BOND
M  V30 END CTAB
M  END
>  <Dataset>  (289) 
ChEMBL_Kinases

>  <Ligand_Instance>  (289) 
nan

>  <PDB_ID>  (289) 
nan

>  <Standardized_SMILES>  (289) 
NCC1CCN(Cc2ccc3[nH]c(-c4cc5ccccc5[nH]c4=O)cc3c2)CC1

>  <Name>  (289) 
nan

>  <Pocket>  (289) 
nan

>  <ATP_Site>  (289) 
nan

>  <Peripheral>  (289) 
nan

>  <Num_H_Atoms_ProtBoundConf>  (289) 
nan

>  <Num_Resolved_Atoms>  (289) 
nan

>  <Num_Not_Resolved_Atoms>  (289) 
nan

$$$$
CHEMBL221689
     RDKit          3D

  0  0  0  0  0  0  0  0  0  0999 V3000
M  V30 BEGIN CTAB
M  V30 COUNTS 66 70 0 0 0
M  V30 BEGIN ATOM
M  V30 1 C 2.371468 2.126441 3.982750 0
M  V30 2 C 3.438828 1.916844 2.941798 0 CFG=1
M  V30 3 C 3.989948 0.530045 3.149973 0
M  V30 4 C 5.260211 0.158189 2.822247 0
M  V30 5 C 5.747952 -1.113967 3.018519 0
M  V30 6 C 4.917261 -2.087165 3.579926 0
M  V30 7 C 3.617115 -1.737459 3.924231 0
M  V30 8 C 3.153278 -0.440946 3.712793 0
M  V30 9 C 2.854155 1.881056 1.556771 0
M  V30 10 N 3.644263 2.217016 0.511079 0
M  V30 11 C 3.220636 2.217028 -0.768465 0
M  V30 12 C 1.906601 1.851248 -1.000905 0
M  V30 13 C 1.067482 1.499245 0.061571 0
M  V30 14 C -0.315081 1.097902 -0.030051 0
M  V30 15 C -1.445806 1.683017 0.490289 0
M  V30 16 C -1.475697 2.904015 1.288159 0
M  V30 17 C -1.952828 2.916307 2.586636 0
M  V30 18 C -1.984913 4.078316 3.356486 0
M  V30 19 C -1.526036 5.279357 2.820485 0
M  V30 20 F -1.545510 6.423740 3.546010 0
M  V30 21 C -1.042849 5.283304 1.515105 0
M  V30 22 C -1.025551 4.129810 0.790295 0
M  V30 23 N -2.518115 0.923824 0.128929 0
M  V30 24 C -2.012593 -0.098787 -0.598696 0
M  V30 25 C -2.661391 -1.168494 -1.213916 0
M  V30 26 C -1.947349 -2.134904 -1.930268 0
M  V30 27 C -2.660789 -3.273905 -2.581611 0
M  V30 28 N -2.737748 -4.368058 -1.639316 0
M  V30 29 C -3.408162 -5.533078 -2.150685 0
M  V30 30 C -3.402749 -6.581075 -1.049310 0
M  V30 31 C -2.712620 -6.160991 -3.340254 0
M  V30 32 C -4.857701 -5.299341 -2.495280 0
M  V30 33 C -0.578170 -2.031844 -2.032462 0
M  V30 34 C 0.010097 -0.953254 -1.404078 0
M  V30 35 N -0.667752 -0.014919 -0.710336 0
M  V30 36 N 1.589733 1.532923 1.295591 0
M  V30 37 H 1.422249 1.705959 3.591501 0
M  V30 38 H 2.271829 3.191494 4.277520 0
M  V30 39 H 2.616507 1.533078 4.902401 0
M  V30 40 H 4.233091 2.671148 2.959896 0
M  V30 41 H 5.926502 0.906935 2.381678 0
M  V30 42 H 6.747158 -1.411899 2.761687 0
M  V30 43 H 5.252090 -3.100258 3.754588 0
M  V30 44 H 2.994391 -2.500486 4.354277 0
M  V30 45 H 2.120819 -0.240841 4.007942 0
M  V30 46 H 3.854405 2.486575 -1.605714 0
M  V30 47 H 1.454497 1.813072 -1.978248 0
M  V30 48 H -2.317586 1.981786 3.023021 0
M  V30 49 H -2.370090 4.060414 4.388152 0
M  V30 50 H -0.699565 6.231793 1.143537 0
M  V30 51 H -0.643626 4.148458 -0.231766 0
M  V30 52 H -3.745733 -1.240753 -1.126848 0
M  V30 53 H -3.619741 -3.007444 -3.020575 0
M  V30 54 H -2.017831 -3.614197 -3.421890 0
M  V30 55 H -1.815982 -4.670911 -1.298394 0
M  V30 56 H -3.363716 -6.076444 -0.080158 0
M  V30 57 H -2.472397 -7.198103 -1.162490 0
M  V30 58 H -4.257341 -7.280550 -1.147462 0
M  V30 59 H -3.355768 -7.017469 -3.649153 0
M  V30 60 H -2.623008 -5.481227 -4.205619 0
M  V30 61 H -1.736426 -6.618537 -3.063582 0
M  V30 62 H -5.011055 -4.757456 -3.425075 0
M  V30 63 H -5.329832 -6.298161 -2.622683 0
M  V30 64 H -5.388471 -4.806001 -1.655402 0
M  V30 65 H 0.035677 -2.758367 -2.579984 0
M  V30 66 H 1.086116 -0.877351 -1.487931 0
M  V30 END ATOM
M  V30 BEGIN BOND
M  V30 1 1 1 2
M  V30 2 1 2 3
M  V30 3 2 3 4
M  V30 4 1 4 5
M  V30 5 2 5 6
M  V30 6 1 6 7
M  V30 7 2 7 8
M  V30 8 1 2 9
M  V30 9 2 9 10
M  V30 10 1 10 11
M  V30 11 2 11 12
M  V30 12 1 12 13
M  V30 13 1 13 14
M  V30 14 2 14 15
M  V30 15 1 15 16
M  V30 16 2 16 17
M  V30 17 1 17 18
M  V30 18 2 18 19
M  V30 19 1 19 20
M  V30 20 1 19 21
M  V30 21 2 21 22
M  V30 22 1 15 23
M  V30 23 2 23 24
M  V30 24 1 24 25
M  V30 25 2 25 26
M  V30 26 1 26 27
M  V30 27 1 27 28
M  V30 28 1 28 29
M  V30 29 1 29 30
M  V30 30 1 29 31
M  V30 31 1 29 32
M  V30 32 1 26 33
M  V30 33 2 33 34
M  V30 34 1 34 35
M  V30 35 2 13 36
M  V30 36 1 8 3
M  V30 37 1 36 9
M  V30 38 1 35 14
M  V30 39 1 22 16
M  V30 40 1 35 24
M  V30 41 1 1 37
M  V30 42 1 1 38
M  V30 43 1 1 39
M  V30 44 1 2 40 CFG=3
M  V30 45 1 4 41
M  V30 46 1 5 42
M  V30 47 1 6 43
M  V30 48 1 7 44
M  V30 49 1 8 45
M  V30 50 1 11 46
M  V30 51 1 12 47
M  V30 52 1 17 48
M  V30 53 1 18 49
M  V30 54 1 21 50
M  V30 55 1 22 51
M  V30 56 1 25 52
M  V30 57 1 27 53
M  V30 58 1 27 54
M  V30 59 1 28 55
M  V30 60 1 30 56
M  V30 61 1 30 57
M  V30 62 1 30 58
M  V30 63 1 31 59
M  V30 64 1 31 60
M  V30 65 1 31 61
M  V30 66 1 32 62
M  V30 67 1 32 63
M  V30 68 1 32 64
M  V30 69 1 33 65
M  V30 70 1 34 66
M  V30 END BOND
M  V30 END CTAB
M  END
>  <Dataset>  (290) 
ChEMBL_Kinases

>  <Ligand_Instance>  (290) 
nan

>  <PDB_ID>  (290) 
nan

>  <Standardized_SMILES>  (290) 
C[C@@H](c1ccccc1)c1nccc(-c2c(-c3ccc(F)cc3)nc3cc(CNC(C)(C)C)ccn23)n1

>  <Name>  (290) 
nan

>  <Pocket>  (290) 
nan

>  <ATP_Site>  (290) 
nan

>  <Peripheral>  (290) 
nan

>  <Num_H_Atoms_ProtBoundConf>  (290) 
nan

>  <Num_Resolved_Atoms>  (290) 
nan

>  <Num_Not_Resolved_Atoms>  (290) 
nan

$$$$
CHEMBL2216829
     RDKit          3D

  0  0  0  0  0  0  0  0  0  0999 V3000
M  V30 BEGIN CTAB
M  V30 COUNTS 60 62 0 0 0
M  V30 BEGIN ATOM
M  V30 1 C 0.405726 -2.682578 6.472126 0
M  V30 2 C 0.562828 -2.698717 4.995538 0
M  V30 3 C 1.817989 -2.529009 4.447495 0
M  V30 4 C 1.945632 -2.545855 3.076748 0
M  V30 5 C 0.896266 -2.722525 2.204714 0
M  V30 6 C 0.790939 -2.766050 0.759822 0
M  V30 7 C 0.480220 -1.756890 -0.114836 0
M  V30 8 C 0.183887 -0.364215 -0.035226 0
M  V30 9 C 0.732746 0.677574 0.513630 0
M  V30 10 C 1.968194 0.437691 1.246418 0
M  V30 11 N 2.943990 0.242521 1.803335 0
M  V30 12 C 0.244465 2.046127 0.470145 0
M  V30 13 O 0.871978 2.976977 1.044875 0
M  V30 14 N -0.928839 2.516792 -0.178029 0
M  V30 15 C -1.340410 3.898665 -0.171867 0
M  V30 16 C -1.587217 4.433225 1.239553 0
M  V30 17 C -2.701056 3.971140 -0.880123 0
M  V30 18 C -0.418068 4.802300 -0.957949 0
M  V30 19 N 0.517095 -2.361374 -1.333607 0
M  V30 20 C 0.259723 -1.785176 -2.666409 0
M  V30 21 C -1.212159 -1.958082 -2.977246 0
M  V30 22 C -1.523239 -1.378702 -4.334130 0
M  V30 23 O -1.199242 -0.028463 -4.306713 0
M  V30 24 C 0.829758 -3.664154 -1.247559 0
M  V30 25 N 0.989261 -4.668640 -2.128011 0
M  V30 26 C 1.313588 -5.916629 -1.751656 0
M  V30 27 N 1.499063 -6.235848 -0.458642 0
M  V30 28 C 1.348417 -5.259010 0.454402 0
M  V30 29 N 1.531417 -5.542668 1.827996 0
M  V30 30 C 1.014904 -3.959912 0.111788 0
M  V30 31 C -0.350848 -2.889681 2.826658 0
M  V30 32 C -0.563171 -2.885013 4.187336 0
M  V30 33 H 1.272174 -2.234734 6.974949 0
M  V30 34 H -0.568513 -2.213141 6.725899 0
M  V30 35 H 0.347091 -3.756371 6.806110 0
M  V30 36 H 2.718722 -2.382437 5.008166 0
M  V30 37 H 2.875272 -2.430077 2.520687 0
M  V30 38 H -0.737533 -0.056390 -0.550983 0
M  V30 39 H -1.509676 1.782715 -0.684789 0
M  V30 40 H -0.644476 4.916273 1.568260 0
M  V30 41 H -2.454419 5.128777 1.223140 0
M  V30 42 H -1.752946 3.554730 1.892919 0
M  V30 43 H -2.582722 3.331521 -1.785252 0
M  V30 44 H -2.829914 5.020206 -1.214183 0
M  V30 45 H -3.520919 3.590666 -0.256685 0
M  V30 46 H -0.513406 5.824890 -0.508534 0
M  V30 47 H -0.792597 4.854320 -2.011436 0
M  V30 48 H 0.639247 4.530597 -0.910639 0
M  V30 49 H 0.918655 -2.225501 -3.411894 0
M  V30 50 H 0.417776 -0.691191 -2.522974 0
M  V30 51 H -1.517081 -3.034941 -2.913797 0
M  V30 52 H -1.775270 -1.363745 -2.230841 0
M  V30 53 H -2.583139 -1.479500 -4.585952 0
M  V30 54 H -0.835126 -1.910086 -5.046234 0
M  V30 55 H -1.974763 0.531011 -4.029284 0
M  V30 56 H 1.394829 -6.580926 -2.610924 0
M  V30 57 H 2.466587 -5.949540 2.037822 0
M  V30 58 H 0.978450 -5.451208 2.687432 0
M  V30 59 H -1.297893 -3.042855 2.283960 0
M  V30 60 H -1.505577 -3.011849 4.669348 0
M  V30 END ATOM
M  V30 BEGIN BOND
M  V30 1 1 1 2
M  V30 2 2 2 3
M  V30 3 1 3 4
M  V30 4 2 4 5
M  V30 5 1 5 6
M  V30 6 2 6 7
M  V30 7 1 7 8
M  V30 8 2 8 9
M  V30 9 1 9 10
M  V30 10 3 10 11
M  V30 11 1 9 12
M  V30 12 2 12 13
M  V30 13 1 12 14
M  V30 14 1 14 15
M  V30 15 1 15 16
M  V30 16 1 15 17
M  V30 17 1 15 18
M  V30 18 1 7 19
M  V30 19 1 19 20
M  V30 20 1 20 21
M  V30 21 1 21 22
M  V30 22 1 22 23
M  V30 23 1 19 24
M  V30 24 2 24 25
M  V30 25 1 25 26
M  V30 26 2 26 27
M  V30 27 1 27 28
M  V30 28 1 28 29
M  V30 29 2 28 30
M  V30 30 1 5 31
M  V30 31 2 31 32
M  V30 32 1 32 2
M  V30 33 1 30 6
M  V30 34 1 30 24
M  V30 35 1 1 33
M  V30 36 1 1 34
M  V30 37 1 1 35
M  V30 38 1 3 36
M  V30 39 1 4 37
M  V30 40 1 8 38
M  V30 41 1 14 39
M  V30 42 1 16 40
M  V30 43 1 16 41
M  V30 44 1 16 42
M  V30 45 1 17 43
M  V30 46 1 17 44
M  V30 47 1 17 45
M  V30 48 1 18 46
M  V30 49 1 18 47
M  V30 50 1 18 48
M  V30 51 1 20 49
M  V30 52 1 20 50
M  V30 53 1 21 51
M  V30 54 1 21 52
M  V30 55 1 22 53
M  V30 56 1 22 54
M  V30 57 1 23 55
M  V30 58 1 26 56
M  V30 59 1 29 57
M  V30 60 1 29 58
M  V30 61 1 31 59
M  V30 62 1 32 60
M  V30 END BOND
M  V30 END CTAB
M  END
>  <Dataset>  (291) 
ChEMBL_Kinases

>  <Ligand_Instance>  (291) 
nan

>  <PDB_ID>  (291) 
nan

>  <Standardized_SMILES>  (291) 
Cc1ccc(-c2c(/C=C(\C#N)C(=O)NC(C)(C)C)n(CCCO)c3ncnc(N)c23)cc1

>  <Name>  (291) 
nan

>  <Pocket>  (291) 
nan

>  <ATP_Site>  (291) 
nan

>  <Peripheral>  (291) 
nan

>  <Num_H_Atoms_ProtBoundConf>  (291) 
nan

>  <Num_Resolved_Atoms>  (291) 
nan

>  <Num_Not_Resolved_Atoms>  (291) 
nan

$$$$
CHEMBL221636
     RDKit          3D

  0  0  0  0  0  0  0  0  0  0999 V3000
M  V30 BEGIN CTAB
M  V30 COUNTS 63 67 0 0 0
M  V30 BEGIN ATOM
M  V30 1 C 2.730844 -1.077684 6.374509 0
M  V30 2 C 1.783781 -0.290580 5.457216 0
M  V30 3 N 2.470357 0.910524 5.096491 0
M  V30 4 C 3.613278 0.679571 4.240082 0
M  V30 5 C 1.617678 1.970110 4.607048 0
M  V30 6 C 0.859503 1.577326 3.401911 0
M  V30 7 C 1.414888 1.786589 2.175040 0
M  V30 8 C 0.702195 1.417587 1.053722 0
M  V30 9 N -0.518340 0.861939 1.167154 0
M  V30 10 C -1.412250 0.417245 0.266033 0
M  V30 11 C -1.209354 0.450906 -1.188911 0
M  V30 12 C -1.963587 1.124896 -2.135784 0
M  V30 13 C -1.604456 1.021381 -3.440993 0
M  V30 14 N -0.558562 0.305349 -3.891162 0
M  V30 15 C 0.171767 -0.349347 -2.954731 0
M  V30 16 C 1.374629 -1.201270 -3.263611 0 CFG=1
M  V30 17 C 2.520705 -0.946875 -2.349998 0
M  V30 18 C 0.940229 -2.602922 -3.369248 0
M  V30 19 C 0.625614 -3.352426 -4.484084 0
M  V30 20 C 0.229491 -4.665623 -4.364949 0
M  V30 21 C 0.126156 -5.296943 -3.136663 0
M  V30 22 C 0.440089 -4.553973 -1.995756 0
M  V30 23 C 0.840400 -3.226867 -2.121410 0
M  V30 24 N -0.147349 -0.278019 -1.629503 0
M  V30 25 C -2.524031 -0.070425 0.880158 0
M  V30 26 C -3.696654 -0.633998 0.204436 0
M  V30 27 C -3.767772 -1.759456 -0.588389 0
M  V30 28 C -4.965383 -2.140077 -1.144285 0
M  V30 29 C -6.082646 -1.367311 -0.886673 0
M  V30 30 F -7.273921 -1.754354 -1.446260 0
M  V30 31 C -6.089828 -0.227856 -0.103556 0
M  V30 32 C -4.847188 0.118191 0.440134 0
M  V30 33 N -2.272366 0.094482 2.193810 0
M  V30 34 C -1.066370 0.655003 2.370195 0
M  V30 35 C -0.408239 1.000839 3.545691 0
M  V30 36 H 2.936803 -0.417941 7.224083 0
M  V30 37 H 2.247766 -1.997174 6.733828 0
M  V30 38 H 3.675657 -1.313585 5.838414 0
M  V30 39 H 0.927351 0.002076 6.093415 0
M  V30 40 H 1.439329 -0.912038 4.614357 0
M  V30 41 H 4.456269 0.386592 4.929874 0
M  V30 42 H 3.476368 -0.176835 3.557146 0
M  V30 43 H 3.928761 1.592332 3.716307 0
M  V30 44 H 0.876910 2.165961 5.419831 0
M  V30 45 H 2.251379 2.835994 4.369298 0
M  V30 46 H 2.382365 2.223046 1.985359 0
M  V30 47 H 1.074566 1.550038 0.043853 0
M  V30 48 H -2.785260 1.680683 -1.726300 0
M  V30 49 H -2.213870 1.561782 -4.167988 0
M  V30 50 H 1.709820 -0.906387 -4.294164 0
M  V30 51 H 3.471985 -1.255669 -2.874797 0
M  V30 52 H 2.575633 0.175399 -2.229503 0
M  V30 53 H 2.483533 -1.421275 -1.372899 0
M  V30 54 H 0.731303 -2.789139 -5.401072 0
M  V30 55 H -0.004911 -5.204058 -5.286841 0
M  V30 56 H -0.187377 -6.328544 -3.082307 0
M  V30 57 H 0.336978 -5.105317 -1.090013 0
M  V30 58 H 1.036613 -2.818642 -1.143315 0
M  V30 59 H -2.845768 -2.267835 -0.712255 0
M  V30 60 H -5.009578 -3.019935 -1.761169 0
M  V30 61 H -6.979638 0.356692 0.081261 0
M  V30 62 H -4.885449 1.025773 1.055507 0
M  V30 63 H -0.816311 0.849506 4.522717 0
M  V30 END ATOM
M  V30 BEGIN BOND
M  V30 1 1 1 2
M  V30 2 1 2 3
M  V30 3 1 3 4
M  V30 4 1 3 5
M  V30 5 1 5 6
M  V30 6 1 6 7
M  V30 7 2 7 8
M  V30 8 1 8 9
M  V30 9 1 9 10
M  V30 10 1 10 11
M  V30 11 2 11 12
M  V30 12 1 12 13
M  V30 13 2 13 14
M  V30 14 1 14 15
M  V30 15 1 15 16
M  V30 16 1 16 17
M  V30 17 1 16 18
M  V30 18 2 18 19
M  V30 19 1 19 20
M  V30 20 2 20 21
M  V30 21 1 21 22
M  V30 22 2 22 23
M  V30 23 2 15 24
M  V30 24 2 10 25
M  V30 25 1 25 26
M  V30 26 2 26 27
M  V30 27 1 27 28
M  V30 28 2 28 29
M  V30 29 1 29 30
M  V30 30 1 29 31
M  V30 31 2 31 32
M  V30 32 1 25 33
M  V30 33 2 33 34
M  V30 34 1 34 35
M  V30 35 2 35 6
M  V30 36 1 34 9
M  V30 37 1 24 11
M  V30 38 1 32 26
M  V30 39 1 23 18
M  V30 40 1 1 36
M  V30 41 1 1 37
M  V30 42 1 1 38
M  V30 43 1 2 39
M  V30 44 1 2 40
M  V30 45 1 4 41
M  V30 46 1 4 42
M  V30 47 1 4 43
M  V30 48 1 5 44
M  V30 49 1 5 45
M  V30 50 1 7 46
M  V30 51 1 8 47
M  V30 52 1 12 48
M  V30 53 1 13 49
M  V30 54 1 16 50 CFG=3
M  V30 55 1 17 51
M  V30 56 1 17 52
M  V30 57 1 17 53
M  V30 58 1 19 54
M  V30 59 1 20 55
M  V30 60 1 21 56
M  V30 61 1 22 57
M  V30 62 1 23 58
M  V30 63 1 27 59
M  V30 64 1 28 60
M  V30 65 1 31 61
M  V30 66 1 32 62
M  V30 67 1 35 63
M  V30 END BOND
M  V30 END CTAB
M  END
>  <Dataset>  (292) 
ChEMBL_Kinases

>  <Ligand_Instance>  (292) 
nan

>  <PDB_ID>  (292) 
nan

>  <Standardized_SMILES>  (292) 
CCN(C)Cc1ccn2c(-c3ccnc([C@@H](C)c4ccccc4)n3)c(-c3ccc(F)cc3)nc2c1

>  <Name>  (292) 
nan

>  <Pocket>  (292) 
nan

>  <ATP_Site>  (292) 
nan

>  <Peripheral>  (292) 
nan

>  <Num_H_Atoms_ProtBoundConf>  (292) 
nan

>  <Num_Resolved_Atoms>  (292) 
nan

>  <Num_Not_Resolved_Atoms>  (292) 
nan

$$$$
CHEMBL221635
     RDKit          3D

  0  0  0  0  0  0  0  0  0  0999 V3000
M  V30 BEGIN CTAB
M  V30 COUNTS 64 68 0 0 0
M  V30 BEGIN ATOM
M  V30 1 C 1.860646 1.552141 4.228782 0
M  V30 2 C 2.981117 1.558364 3.222794 0 CFG=1
M  V30 3 C 3.684943 0.253515 3.271829 0
M  V30 4 C 5.065265 0.213171 3.037179 0
M  V30 5 C 5.704728 -1.018097 3.085636 0
M  V30 6 C 5.076127 -2.212316 3.349700 0
M  V30 7 C 3.724745 -2.166701 3.578732 0
M  V30 8 C 3.063836 -0.951745 3.536044 0
M  V30 9 C 2.391612 1.742487 1.861645 0
M  V30 10 N 2.985363 2.408463 0.856271 0
M  V30 11 C 2.415429 2.541541 -0.354605 0
M  V30 12 C 1.166952 1.980850 -0.607251 0
M  V30 13 C 0.556940 1.288748 0.446663 0
M  V30 14 C -0.740957 0.732398 0.081959 0
M  V30 15 C -2.071635 0.895017 0.483524 0
M  V30 16 C -2.353750 1.853208 1.543278 0
M  V30 17 C -1.926915 1.796626 2.870590 0
M  V30 18 C -2.284521 2.797974 3.753235 0
M  V30 19 C -3.064051 3.842352 3.296465 0
M  V30 20 F -3.367674 4.777708 4.225654 0
M  V30 21 C -3.503497 3.928496 1.989944 0
M  V30 22 C -3.141391 2.925967 1.119452 0
M  V30 23 N -2.863278 0.080181 -0.237050 0
M  V30 24 C -2.067106 -0.599548 -1.090014 0
M  V30 25 C -2.514015 -1.543480 -2.005544 0
M  V30 26 C -1.539243 -2.130997 -2.792883 0
M  V30 27 C -1.903570 -3.173299 -3.814957 0
M  V30 28 N -1.853307 -4.484639 -3.310947 0
M  V30 29 C -0.592669 -4.929490 -2.825203 0
M  V30 30 C -2.939250 -5.019318 -2.607669 0
M  V30 31 C -4.199896 -5.300597 -3.301392 0
M  V30 32 O -5.160329 -5.834790 -2.408624 0
M  V30 33 C -0.219770 -1.761754 -2.633520 0
M  V30 34 C 0.106429 -0.811634 -1.690221 0
M  V30 35 N -0.802020 -0.211823 -0.901535 0
M  V30 36 N 1.185668 1.195653 1.632358 0
M  V30 37 H 1.856331 0.668729 4.899304 0
M  V30 38 H 0.853112 1.553990 3.722730 0
M  V30 39 H 1.868122 2.484447 4.841936 0
M  V30 40 H 3.682546 2.385419 3.466399 0
M  V30 41 H 5.626142 1.100636 2.824483 0
M  V30 42 H 6.783318 -1.052147 2.902443 0
M  V30 43 H 5.635214 -3.135819 3.372230 0
M  V30 44 H 3.150478 -3.078648 3.795591 0
M  V30 45 H 1.999772 -0.968976 3.721683 0
M  V30 46 H 2.922072 3.083740 -1.141594 0
M  V30 47 H 0.770650 2.128254 -1.602843 0
M  V30 48 H -1.335624 0.904184 3.011232 0
M  V30 49 H -1.902173 2.650400 4.739395 0
M  V30 50 H -4.116111 4.790818 1.717457 0
M  V30 51 H -3.522049 3.060070 0.112552 0
M  V30 52 H -3.525514 -1.833037 -2.133299 0
M  V30 53 H -2.845703 -2.929990 -4.314843 0
M  V30 54 H -1.125102 -3.082943 -4.602713 0
M  V30 55 H 0.258843 -4.687688 -3.498509 0
M  V30 56 H -0.629741 -6.032718 -2.707191 0
M  V30 57 H -0.415683 -4.512180 -1.812375 0
M  V30 58 H -3.147231 -4.361681 -1.715428 0
M  V30 59 H -2.581544 -5.977840 -2.140653 0
M  V30 60 H -4.062445 -6.122882 -4.061244 0
M  V30 61 H -4.690178 -4.479148 -3.815123 0
M  V30 62 H -4.845618 -5.584625 -1.493914 0
M  V30 63 H 0.534908 -2.214349 -3.240923 0
M  V30 64 H 1.152716 -0.556027 -1.603385 0
M  V30 END ATOM
M  V30 BEGIN BOND
M  V30 1 1 1 2
M  V30 2 1 2 3
M  V30 3 2 3 4
M  V30 4 1 4 5
M  V30 5 2 5 6
M  V30 6 1 6 7
M  V30 7 2 7 8
M  V30 8 1 2 9
M  V30 9 2 9 10
M  V30 10 1 10 11
M  V30 11 2 11 12
M  V30 12 1 12 13
M  V30 13 1 13 14
M  V30 14 2 14 15
M  V30 15 1 15 16
M  V30 16 2 16 17
M  V30 17 1 17 18
M  V30 18 2 18 19
M  V30 19 1 19 20
M  V30 20 1 19 21
M  V30 21 2 21 22
M  V30 22 1 15 23
M  V30 23 2 23 24
M  V30 24 1 24 25
M  V30 25 2 25 26
M  V30 26 1 26 27
M  V30 27 1 27 28
M  V30 28 1 28 29
M  V30 29 1 28 30
M  V30 30 1 30 31
M  V30 31 1 31 32
M  V30 32 1 26 33
M  V30 33 2 33 34
M  V30 34 1 34 35
M  V30 35 2 13 36
M  V30 36 1 8 3
M  V30 37 1 36 9
M  V30 38 1 35 14
M  V30 39 1 22 16
M  V30 40 1 35 24
M  V30 41 1 1 37
M  V30 42 1 1 38
M  V30 43 1 1 39
M  V30 44 1 2 40 CFG=1
M  V30 45 1 4 41
M  V30 46 1 5 42
M  V30 47 1 6 43
M  V30 48 1 7 44
M  V30 49 1 8 45
M  V30 50 1 11 46
M  V30 51 1 12 47
M  V30 52 1 17 48
M  V30 53 1 18 49
M  V30 54 1 21 50
M  V30 55 1 22 51
M  V30 56 1 25 52
M  V30 57 1 27 53
M  V30 58 1 27 54
M  V30 59 1 29 55
M  V30 60 1 29 56
M  V30 61 1 29 57
M  V30 62 1 30 58
M  V30 63 1 30 59
M  V30 64 1 31 60
M  V30 65 1 31 61
M  V30 66 1 32 62
M  V30 67 1 33 63
M  V30 68 1 34 64
M  V30 END BOND
M  V30 END CTAB
M  END
>  <Dataset>  (293) 
ChEMBL_Kinases

>  <Ligand_Instance>  (293) 
nan

>  <PDB_ID>  (293) 
nan

>  <Standardized_SMILES>  (293) 
C[C@@H](c1ccccc1)c1nccc(-c2c(-c3ccc(F)cc3)nc3cc(CN(C)CCO)ccn23)n1

>  <Name>  (293) 
nan

>  <Pocket>  (293) 
nan

>  <ATP_Site>  (293) 
nan

>  <Peripheral>  (293) 
nan

>  <Num_H_Atoms_ProtBoundConf>  (293) 
nan

>  <Num_Resolved_Atoms>  (293) 
nan

>  <Num_Not_Resolved_Atoms>  (293) 
nan

$$$$
CHEMBL221603
     RDKit          3D

  0  0  0  0  0  0  0  0  0  0999 V3000
M  V30 BEGIN CTAB
M  V30 COUNTS 58 63 0 0 0
M  V30 BEGIN ATOM
M  V30 1 C 7.900374 0.146271 6.511673 0
M  V30 2 N 7.373790 1.269723 5.742519 0
M  V30 3 N 7.856747 2.457699 5.385007 0
M  V30 4 N 6.919834 3.075335 4.678269 0
M  V30 5 C 5.831884 2.291371 4.576933 0
M  V30 6 C 4.604892 2.662549 3.861052 0
M  V30 7 C 4.106254 3.961522 3.983795 0
M  V30 8 C 2.938613 4.339465 3.311392 0
M  V30 9 C 2.330271 3.380333 2.544521 0
M  V30 10 N 1.204834 3.692447 1.877583 0
M  V30 11 C 0.533374 2.823941 1.099622 0
M  V30 12 O -0.511713 3.197521 0.510487 0
M  V30 13 C 0.947887 1.522171 0.917610 0
M  V30 14 C 0.277498 0.523664 0.093627 0
M  V30 15 C -0.870887 0.655141 -0.653937 0
M  V30 16 C -1.186452 -0.537536 -1.302166 0
M  V30 17 C -2.186691 -0.969300 -2.150103 0
M  V30 18 C -2.165356 -2.290146 -2.611262 0
M  V30 19 C -3.271692 -2.688156 -3.520866 0
M  V30 20 N -4.389442 -3.205394 -2.787496 0
M  V30 21 C -4.092932 -4.358380 -2.005657 0
M  V30 22 C -5.284167 -4.777916 -1.174077 0
M  V30 23 C -6.502263 -5.021730 -2.036371 0
M  V30 24 C -6.258420 -4.587251 -3.468688 0
M  V30 25 C -5.606056 -3.246385 -3.531189 0
M  V30 26 C -1.138888 -3.112304 -2.196991 0
M  V30 27 C -0.139004 -2.686165 -1.351322 0
M  V30 28 C -0.161304 -1.383165 -0.897263 0
M  V30 29 N 0.691555 -0.744978 -0.076922 0
M  V30 30 C 2.102861 1.196886 1.600257 0
M  V30 31 C 2.776253 2.089730 2.388332 0
M  V30 32 C 3.940097 1.736670 3.067077 0
M  V30 33 N 6.142700 1.151935 5.259209 0
M  V30 34 H 8.934563 0.354803 6.865422 0
M  V30 35 H 7.202555 -0.114736 7.313815 0
M  V30 36 H 8.006951 -0.737957 5.829003 0
M  V30 37 H 4.602629 4.690265 4.590124 0
M  V30 38 H 2.557796 5.347896 3.411041 0
M  V30 39 H 0.822316 4.674420 1.966519 0
M  V30 40 H -1.493044 1.531505 -0.768794 0
M  V30 41 H -2.949833 -0.277063 -2.428924 0
M  V30 42 H -3.536283 -1.921180 -4.246605 0
M  V30 43 H -2.861364 -3.545010 -4.130627 0
M  V30 44 H -3.806569 -5.193059 -2.660638 0
M  V30 45 H -3.232326 -4.105534 -1.358964 0
M  V30 46 H -5.508002 -3.916284 -0.513864 0
M  V30 47 H -5.052567 -5.657275 -0.571813 0
M  V30 48 H -6.681752 -6.120745 -2.064018 0
M  V30 49 H -7.377481 -4.549584 -1.594141 0
M  V30 50 H -7.265103 -4.519074 -3.937917 0
M  V30 51 H -5.591793 -5.312002 -3.971655 0
M  V30 52 H -5.337812 -3.031787 -4.589247 0
M  V30 53 H -6.265425 -2.445362 -3.110123 0
M  V30 54 H -1.161111 -4.139648 -2.582562 0
M  V30 55 H 0.636111 -3.388990 -1.068034 0
M  V30 56 H 1.538462 -1.175391 0.354206 0
M  V30 57 H 2.522122 0.203406 1.532624 0
M  V30 58 H 4.327114 0.744965 2.977784 0
M  V30 END ATOM
M  V30 BEGIN BOND
M  V30 1 1 1 2
M  V30 2 1 2 3
M  V30 3 2 3 4
M  V30 4 1 4 5
M  V30 5 1 5 6
M  V30 6 2 6 7
M  V30 7 1 7 8
M  V30 8 2 8 9
M  V30 9 1 9 10
M  V30 10 1 10 11
M  V30 11 2 11 12
M  V30 12 1 11 13
M  V30 13 1 13 14
M  V30 14 2 14 15
M  V30 15 1 15 16
M  V30 16 2 16 17
M  V30 17 1 17 18
M  V30 18 1 18 19
M  V30 19 1 19 20
M  V30 20 1 20 21
M  V30 21 1 21 22
M  V30 22 1 22 23
M  V30 23 1 23 24
M  V30 24 1 24 25
M  V30 25 2 18 26
M  V30 26 1 26 27
M  V30 27 2 27 28
M  V30 28 1 28 29
M  V30 29 2 13 30
M  V30 30 1 30 31
M  V30 31 2 31 32
M  V30 32 2 5 33
M  V30 33 1 33 2
M  V30 34 1 32 6
M  V30 35 1 31 9
M  V30 36 1 29 14
M  V30 37 1 28 16
M  V30 38 1 25 20
M  V30 39 1 1 34
M  V30 40 1 1 35
M  V30 41 1 1 36
M  V30 42 1 7 37
M  V30 43 1 8 38
M  V30 44 1 10 39
M  V30 45 1 15 40
M  V30 46 1 17 41
M  V30 47 1 19 42
M  V30 48 1 19 43
M  V30 49 1 21 44
M  V30 50 1 21 45
M  V30 51 1 22 46
M  V30 52 1 22 47
M  V30 53 1 23 48
M  V30 54 1 23 49
M  V30 55 1 24 50
M  V30 56 1 24 51
M  V30 57 1 25 52
M  V30 58 1 25 53
M  V30 59 1 26 54
M  V30 60 1 27 55
M  V30 61 1 29 56
M  V30 62 1 30 57
M  V30 63 1 32 58
M  V30 END BOND
M  V30 END CTAB
M  END
>  <Dataset>  (294) 
ChEMBL_Kinases

>  <Ligand_Instance>  (294) 
nan

>  <PDB_ID>  (294) 
nan

>  <Standardized_SMILES>  (294) 
Cn1nnc(-c2ccc3[nH]c(=O)c(-c4cc5cc(CN6CCCCC6)ccc5[nH]4)cc3c2)n1

>  <Name>  (294) 
nan

>  <Pocket>  (294) 
nan

>  <ATP_Site>  (294) 
nan

>  <Peripheral>  (294) 
nan

>  <Num_H_Atoms_ProtBoundConf>  (294) 
nan

>  <Num_Resolved_Atoms>  (294) 
nan

>  <Num_Not_Resolved_Atoms>  (294) 
nan

$$$$
CHEMBL221584
     RDKit          3D

  0  0  0  0  0  0  0  0  0  0999 V3000
M  V30 BEGIN CTAB
M  V30 COUNTS 67 71 0 0 0
M  V30 BEGIN ATOM
M  V30 1 C 5.811991 -3.407634 4.281160 0
M  V30 2 C 5.115948 -3.996502 3.090130 0
M  V30 3 N 4.092042 -3.203842 2.531042 0
M  V30 4 C 2.909587 -2.998556 3.277894 0
M  V30 5 C 2.111885 -4.304163 3.411490 0
M  V30 6 O 0.939024 -4.100210 4.151323 0
M  V30 7 C 4.515845 -2.150588 1.665300 0
M  V30 8 C 3.426349 -1.335124 1.088787 0
M  V30 9 C 2.876943 -1.729450 -0.122432 0
M  V30 10 C 1.855686 -1.053567 -0.760688 0
M  V30 11 N 1.404518 0.055924 -0.114259 0
M  V30 12 C 0.425322 0.889038 -0.511268 0
M  V30 13 C -0.424359 0.873037 -1.694788 0
M  V30 14 C -0.555641 1.747832 -2.754709 0
M  V30 15 C -1.465835 1.460751 -3.745952 0
M  V30 16 N -2.228169 0.335931 -3.691505 0
M  V30 17 C -2.098375 -0.527729 -2.645062 0
M  V30 18 C -2.962727 -1.738284 -2.647321 0 CFG=1
M  V30 19 C -2.206450 -2.866585 -1.997651 0
M  V30 20 C -4.224633 -1.525555 -1.893999 0
M  V30 21 C -4.221329 -1.837697 -0.547932 0
M  V30 22 C -5.300347 -1.703889 0.304190 0
M  V30 23 C -6.484475 -1.215255 -0.238644 0
M  V30 24 C -6.505450 -0.898294 -1.581745 0
M  V30 25 C -5.415986 -1.038310 -2.421573 0
M  V30 26 N -1.205925 -0.248504 -1.670981 0
M  V30 27 C 0.260629 1.896661 0.416410 0
M  V30 28 C -0.577711 3.072937 0.605967 0
M  V30 29 C -0.652870 4.234967 -0.127315 0
M  V30 30 C -1.516992 5.258605 0.199422 0
M  V30 31 C -2.337611 5.109500 1.305304 0
M  V30 32 F -3.183555 6.130360 1.609126 0
M  V30 33 C -2.302999 3.966912 2.074141 0
M  V30 34 C -1.424806 2.962410 1.716818 0
M  V30 35 N 1.185983 1.625503 1.383598 0
M  V30 36 C 1.876299 0.512603 1.061083 0
M  V30 37 C 2.903745 -0.193385 1.673395 0
M  V30 38 H 5.311395 -2.553322 4.733948 0
M  V30 39 H 5.969078 -4.165813 5.097545 0
M  V30 40 H 6.832413 -3.078066 3.981170 0
M  V30 41 H 4.702561 -4.976182 3.407267 0
M  V30 42 H 5.852050 -4.223147 2.276429 0
M  V30 43 H 2.242095 -2.341401 2.681095 0
M  V30 44 H 3.035271 -2.514335 4.248605 0
M  V30 45 H 1.798291 -4.668044 2.412976 0
M  V30 46 H 2.720158 -5.100711 3.873693 0
M  V30 47 H 0.135685 -4.008172 3.597233 0
M  V30 48 H 5.072282 -2.629326 0.811606 0
M  V30 49 H 5.267632 -1.556178 2.213107 0
M  V30 50 H 3.268659 -2.618958 -0.598608 0
M  V30 51 H 1.437889 -1.369335 -1.700270 0
M  V30 52 H 0.107325 2.573105 -2.653755 0
M  V30 53 H -1.504767 2.192242 -4.532247 0
M  V30 54 H -3.199677 -2.041924 -3.692284 0
M  V30 55 H -1.611839 -2.441500 -1.163285 0
M  V30 56 H -2.952538 -3.575385 -1.551188 0
M  V30 57 H -1.539755 -3.413942 -2.705107 0
M  V30 58 H -3.326589 -2.220909 -0.073486 0
M  V30 59 H -5.238491 -1.965916 1.355525 0
M  V30 60 H -7.352228 -1.095840 0.395766 0
M  V30 61 H -7.424884 -0.510560 -2.041126 0
M  V30 62 H -5.396117 -0.802882 -3.464118 0
M  V30 63 H 0.030273 4.250857 -0.966675 0
M  V30 64 H -1.500665 6.128489 -0.439347 0
M  V30 65 H -2.970396 3.931926 2.910398 0
M  V30 66 H -1.486035 2.107307 2.399268 0
M  V30 67 H 3.316137 0.127861 2.611885 0
M  V30 END ATOM
M  V30 BEGIN BOND
M  V30 1 1 1 2
M  V30 2 1 2 3
M  V30 3 1 3 4
M  V30 4 1 4 5
M  V30 5 1 5 6
M  V30 6 1 3 7
M  V30 7 1 7 8
M  V30 8 1 8 9
M  V30 9 2 9 10
M  V30 10 1 10 11
M  V30 11 1 11 12
M  V30 12 1 12 13
M  V30 13 2 13 14
M  V30 14 1 14 15
M  V30 15 2 15 16
M  V30 16 1 16 17
M  V30 17 1 17 18
M  V30 18 1 18 19
M  V30 19 1 18 20
M  V30 20 2 20 21
M  V30 21 1 21 22
M  V30 22 2 22 23
M  V30 23 1 23 24
M  V30 24 2 24 25
M  V30 25 2 17 26
M  V30 26 2 12 27
M  V30 27 1 27 28
M  V30 28 2 28 29
M  V30 29 1 29 30
M  V30 30 2 30 31
M  V30 31 1 31 32
M  V30 32 1 31 33
M  V30 33 2 33 34
M  V30 34 1 27 35
M  V30 35 2 35 36
M  V30 36 1 36 37
M  V30 37 2 37 8
M  V30 38 1 36 11
M  V30 39 1 26 13
M  V30 40 1 34 28
M  V30 41 1 25 20
M  V30 42 1 1 38
M  V30 43 1 1 39
M  V30 44 1 1 40
M  V30 45 1 2 41
M  V30 46 1 2 42
M  V30 47 1 4 43
M  V30 48 1 4 44
M  V30 49 1 5 45
M  V30 50 1 5 46
M  V30 51 1 6 47
M  V30 52 1 7 48
M  V30 53 1 7 49
M  V30 54 1 9 50
M  V30 55 1 10 51
M  V30 56 1 14 52
M  V30 57 1 15 53
M  V30 58 1 18 54 CFG=3
M  V30 59 1 19 55
M  V30 60 1 19 56
M  V30 61 1 19 57
M  V30 62 1 21 58
M  V30 63 1 22 59
M  V30 64 1 23 60
M  V30 65 1 24 61
M  V30 66 1 25 62
M  V30 67 1 29 63
M  V30 68 1 30 64
M  V30 69 1 33 65
M  V30 70 1 34 66
M  V30 71 1 37 67
M  V30 END BOND
M  V30 END CTAB
M  END
>  <Dataset>  (295) 
ChEMBL_Kinases

>  <Ligand_Instance>  (295) 
nan

>  <PDB_ID>  (295) 
nan

>  <Standardized_SMILES>  (295) 
CCN(CCO)Cc1ccn2c(-c3ccnc([C@@H](C)c4ccccc4)n3)c(-c3ccc(F)cc3)nc2c1

>  <Name>  (295) 
nan

>  <Pocket>  (295) 
nan

>  <ATP_Site>  (295) 
nan

>  <Peripheral>  (295) 
nan

>  <Num_H_Atoms_ProtBoundConf>  (295) 
nan

>  <Num_Resolved_Atoms>  (295) 
nan

>  <Num_Not_Resolved_Atoms>  (295) 
nan

$$$$
CHEMBL221583
     RDKit          3D

  0  0  0  0  0  0  0  0  0  0999 V3000
M  V30 BEGIN CTAB
M  V30 COUNTS 58 62 0 0 0
M  V30 BEGIN ATOM
M  V30 1 C 3.497836 -2.332596 4.531200 0
M  V30 2 N 4.041538 -0.998036 4.539697 0
M  V30 3 C 3.160983 -0.039279 5.165168 0
M  V30 4 C 4.536988 -0.560299 3.268241 0
M  V30 5 C 3.553587 -0.522094 2.185473 0
M  V30 6 C 2.843200 0.671245 2.008994 0
M  V30 7 C 1.879502 0.820186 1.005284 0
M  V30 8 N 1.677934 -0.254271 0.220471 0
M  V30 9 C 0.807464 -0.342539 -0.802279 0
M  V30 10 C -0.156730 0.566926 -1.411634 0
M  V30 11 C -0.089015 1.012977 -2.711994 0
M  V30 12 C -1.089793 1.869660 -3.116739 0
M  V30 13 N -2.076611 2.247834 -2.286781 0
M  V30 14 C -2.130518 1.800736 -1.009234 0
M  V30 15 O -3.239633 2.348745 -0.400077 0
M  V30 16 C -3.572657 2.074097 0.938437 0
M  V30 17 C -3.822052 0.640104 1.218614 0
M  V30 18 C -2.943719 -0.322888 1.666327 0
M  V30 19 C -3.352238 -1.622914 1.865209 0
M  V30 20 C -4.632962 -2.034463 1.635579 0
M  V30 21 C -5.557367 -1.118875 1.187459 0
M  V30 22 C -5.123114 0.170871 0.997399 0
M  V30 23 N -1.166509 0.979817 -0.630622 0
M  V30 24 C 0.924140 -1.618209 -1.334749 0
M  V30 25 C 0.218283 -2.261829 -2.462318 0
M  V30 26 C 0.984540 -2.691119 -3.538426 0
M  V30 27 C 0.334912 -3.296241 -4.602875 0
M  V30 28 C -1.043390 -3.482197 -4.621674 0
M  V30 29 F -1.658023 -4.081430 -5.683165 0
M  V30 30 C -1.792050 -3.043926 -3.531826 0
M  V30 31 C -1.169493 -2.438848 -2.460394 0
M  V30 32 N 1.862149 -2.280994 -0.626815 0
M  V30 33 C 2.314141 -1.437040 0.319247 0
M  V30 34 C 3.257168 -1.542412 1.322399 0
M  V30 35 H 3.734732 -2.780149 5.519700 0
M  V30 36 H 3.953226 -2.981230 3.764687 0
M  V30 37 H 2.373272 -2.345763 4.469222 0
M  V30 38 H 3.502630 0.982925 4.918899 0
M  V30 39 H 3.317109 -0.152642 6.276391 0
M  V30 40 H 2.100183 -0.209954 4.946642 0
M  V30 41 H 5.049890 0.414336 3.432599 0
M  V30 42 H 5.359335 -1.262238 2.969481 0
M  V30 43 H 3.002544 1.539956 2.639268 0
M  V30 44 H 1.338089 1.740855 0.876604 0
M  V30 45 H 0.747762 0.641230 -3.281358 0
M  V30 46 H -0.991608 2.197273 -4.161196 0
M  V30 47 H -4.520212 2.633760 1.189389 0
M  V30 48 H -2.754392 2.431948 1.635575 0
M  V30 49 H -1.940705 0.027646 1.846029 0
M  V30 50 H -2.582566 -2.316982 2.222460 0
M  V30 51 H -4.942917 -3.058636 1.795248 0
M  V30 52 H -6.576216 -1.397323 0.993411 0
M  V30 53 H -5.886587 0.872983 0.639795 0
M  V30 54 H 2.051061 -2.553658 -3.536803 0
M  V30 55 H 0.950699 -3.629221 -5.443180 0
M  V30 56 H -2.874692 -3.170651 -3.507095 0
M  V30 57 H -1.723624 -2.084925 -1.593410 0
M  V30 58 H 3.779102 -2.458095 1.431313 0
M  V30 END ATOM
M  V30 BEGIN BOND
M  V30 1 1 1 2
M  V30 2 1 2 3
M  V30 3 1 2 4
M  V30 4 1 4 5
M  V30 5 1 5 6
M  V30 6 2 6 7
M  V30 7 1 7 8
M  V30 8 1 8 9
M  V30 9 1 9 10
M  V30 10 2 10 11
M  V30 11 1 11 12
M  V30 12 2 12 13
M  V30 13 1 13 14
M  V30 14 1 14 15
M  V30 15 1 15 16
M  V30 16 1 16 17
M  V30 17 2 17 18
M  V30 18 1 18 19
M  V30 19 2 19 20
M  V30 20 1 20 21
M  V30 21 2 21 22
M  V30 22 2 14 23
M  V30 23 2 9 24
M  V30 24 1 24 25
M  V30 25 2 25 26
M  V30 26 1 26 27
M  V30 27 2 27 28
M  V30 28 1 28 29
M  V30 29 1 28 30
M  V30 30 2 30 31
M  V30 31 1 24 32
M  V30 32 2 32 33
M  V30 33 1 33 34
M  V30 34 2 34 5
M  V30 35 1 33 8
M  V30 36 1 23 10
M  V30 37 1 31 25
M  V30 38 1 22 17
M  V30 39 1 1 35
M  V30 40 1 1 36
M  V30 41 1 1 37
M  V30 42 1 3 38
M  V30 43 1 3 39
M  V30 44 1 3 40
M  V30 45 1 4 41
M  V30 46 1 4 42
M  V30 47 1 6 43
M  V30 48 1 7 44
M  V30 49 1 11 45
M  V30 50 1 12 46
M  V30 51 1 16 47
M  V30 52 1 16 48
M  V30 53 1 18 49
M  V30 54 1 19 50
M  V30 55 1 20 51
M  V30 56 1 21 52
M  V30 57 1 22 53
M  V30 58 1 26 54
M  V30 59 1 27 55
M  V30 60 1 30 56
M  V30 61 1 31 57
M  V30 62 1 34 58
M  V30 END BOND
M  V30 END CTAB
M  END
>  <Dataset>  (296) 
ChEMBL_Kinases

>  <Ligand_Instance>  (296) 
nan

>  <PDB_ID>  (296) 
nan

>  <Standardized_SMILES>  (296) 
CN(C)Cc1ccn2c(-c3ccnc(OCc4ccccc4)n3)c(-c3ccc(F)cc3)nc2c1

>  <Name>  (296) 
nan

>  <Pocket>  (296) 
nan

>  <ATP_Site>  (296) 
nan

>  <Peripheral>  (296) 
nan

>  <Num_H_Atoms_ProtBoundConf>  (296) 
nan

>  <Num_Resolved_Atoms>  (296) 
nan

>  <Num_Not_Resolved_Atoms>  (296) 
nan

$$$$
CHEMBL221577
     RDKit          3D

  0  0  0  0  0  0  0  0  0  0999 V3000
M  V30 BEGIN CTAB
M  V30 COUNTS 61 65 0 0 0
M  V30 BEGIN ATOM
M  V30 1 C 4.172049 -2.806245 4.123389 0
M  V30 2 O 4.126422 -1.915549 5.185333 0
M  V30 3 N 4.823564 -0.809341 5.015839 0
M  V30 4 C 5.653072 -0.775388 3.845788 0
M  V30 5 C 3.934996 0.337301 5.029625 0
M  V30 6 C 2.915812 0.272436 3.957153 0
M  V30 7 C 3.231236 0.838279 2.740260 0
M  V30 8 C 2.207716 0.728390 1.793645 0
M  V30 9 N 1.031533 0.123533 2.062981 0
M  V30 10 C -0.063913 -0.071340 1.269941 0
M  V30 11 C -0.158973 0.370729 -0.094182 0
M  V30 12 C -0.044317 1.705590 -0.445068 0
M  V30 13 C -0.124760 2.223072 -1.742191 0
M  V30 14 N -0.333130 1.319250 -2.719205 0
M  V30 15 C -0.452476 -0.004394 -2.423376 0
M  V30 16 C -0.681971 -0.969211 -3.538615 0 CFG=1
M  V30 17 C -0.238207 -2.336982 -3.024609 0
M  V30 18 C -2.139461 -1.103085 -3.824375 0
M  V30 19 C -2.999861 -1.989012 -3.225723 0
M  V30 20 C -4.339801 -2.052292 -3.545529 0
M  V30 21 C -4.804282 -1.165842 -4.520503 0
M  V30 22 C -3.943092 -0.281049 -5.117931 0
M  V30 23 C -2.591710 -0.214937 -4.797456 0
M  V30 24 N -0.364165 -0.428991 -1.153451 0
M  V30 25 C -1.000437 -0.748211 2.038244 0
M  V30 26 C -2.312844 -1.138623 1.530595 0
M  V30 27 C -2.563050 -2.516058 1.509599 0
M  V30 28 C -3.756563 -3.012712 1.056262 0
M  V30 29 C -4.742857 -2.142975 0.607266 0
M  V30 30 F -5.918407 -2.616510 0.160023 0
M  V30 31 C -4.435665 -0.811582 0.653988 0
M  V30 32 C -3.265305 -0.233308 1.093131 0
M  V30 33 N -0.480720 -0.962603 3.284833 0
M  V30 34 C 0.772783 -0.417182 3.278357 0
M  V30 35 C 1.738094 -0.356210 4.292121 0
M  V30 36 H 3.652534 -2.382923 3.219988 0
M  V30 37 H 3.565108 -3.689276 4.415114 0
M  V30 38 H 5.185274 -3.179917 3.900938 0
M  V30 39 H 6.449699 -1.561722 3.991449 0
M  V30 40 H 6.218224 0.177875 3.811727 0
M  V30 41 H 5.159876 -1.031817 2.913837 0
M  V30 42 H 3.455121 0.345176 6.049667 0
M  V30 43 H 4.553449 1.239021 4.899578 0
M  V30 44 H 4.176811 1.314578 2.551331 0
M  V30 45 H 2.398708 1.161859 0.799711 0
M  V30 46 H 0.125043 2.442849 0.346694 0
M  V30 47 H -0.019549 3.288035 -1.894758 0
M  V30 48 H -0.111139 -0.688431 -4.443540 0
M  V30 49 H -0.846852 -3.145283 -3.488898 0
M  V30 50 H -0.494825 -2.362773 -1.934952 0
M  V30 51 H 0.844566 -2.491722 -3.141826 0
M  V30 52 H -2.576156 -2.650139 -2.476303 0
M  V30 53 H -4.966978 -2.772142 -3.038126 0
M  V30 54 H -5.852282 -1.209494 -4.776150 0
M  V30 55 H -4.327651 0.394296 -5.869830 0
M  V30 56 H -1.991867 0.519641 -5.326249 0
M  V30 57 H -1.812684 -3.233139 1.854566 0
M  V30 58 H -3.961274 -4.075816 1.035040 0
M  V30 59 H -5.217686 -0.141294 0.299047 0
M  V30 60 H -3.051388 0.805325 1.119288 0
M  V30 61 H 1.566793 -0.772330 5.261932 0
M  V30 END ATOM
M  V30 BEGIN BOND
M  V30 1 1 1 2
M  V30 2 1 2 3
M  V30 3 1 3 4
M  V30 4 1 3 5
M  V30 5 1 5 6
M  V30 6 1 6 7
M  V30 7 2 7 8
M  V30 8 1 8 9
M  V30 9 1 9 10
M  V30 10 1 10 11
M  V30 11 2 11 12
M  V30 12 1 12 13
M  V30 13 2 13 14
M  V30 14 1 14 15
M  V30 15 1 15 16
M  V30 16 1 16 17
M  V30 17 1 16 18
M  V30 18 2 18 19
M  V30 19 1 19 20
M  V30 20 2 20 21
M  V30 21 1 21 22
M  V30 22 2 22 23
M  V30 23 2 15 24
M  V30 24 2 10 25
M  V30 25 1 25 26
M  V30 26 2 26 27
M  V30 27 1 27 28
M  V30 28 2 28 29
M  V30 29 1 29 30
M  V30 30 1 29 31
M  V30 31 2 31 32
M  V30 32 1 25 33
M  V30 33 2 33 34
M  V30 34 1 34 35
M  V30 35 2 35 6
M  V30 36 1 34 9
M  V30 37 1 24 11
M  V30 38 1 32 26
M  V30 39 1 23 18
M  V30 40 1 1 36
M  V30 41 1 1 37
M  V30 42 1 1 38
M  V30 43 1 4 39
M  V30 44 1 4 40
M  V30 45 1 4 41
M  V30 46 1 5 42
M  V30 47 1 5 43
M  V30 48 1 7 44
M  V30 49 1 8 45
M  V30 50 1 12 46
M  V30 51 1 13 47
M  V30 52 1 16 48 CFG=3
M  V30 53 1 17 49
M  V30 54 1 17 50
M  V30 55 1 17 51
M  V30 56 1 19 52
M  V30 57 1 20 53
M  V30 58 1 21 54
M  V30 59 1 22 55
M  V30 60 1 23 56
M  V30 61 1 27 57
M  V30 62 1 28 58
M  V30 63 1 31 59
M  V30 64 1 32 60
M  V30 65 1 35 61
M  V30 END BOND
M  V30 END CTAB
M  END
>  <Dataset>  (297) 
ChEMBL_Kinases

>  <Ligand_Instance>  (297) 
nan

>  <PDB_ID>  (297) 
nan

>  <Standardized_SMILES>  (297) 
CON(C)Cc1ccn2c(-c3ccnc([C@@H](C)c4ccccc4)n3)c(-c3ccc(F)cc3)nc2c1

>  <Name>  (297) 
nan

>  <Pocket>  (297) 
nan

>  <ATP_Site>  (297) 
nan

>  <Peripheral>  (297) 
nan

>  <Num_H_Atoms_ProtBoundConf>  (297) 
nan

>  <Num_Resolved_Atoms>  (297) 
nan

>  <Num_Not_Resolved_Atoms>  (297) 
nan

$$$$
CHEMBL221568
     RDKit          3D

  0  0  0  0  0  0  0  0  0  0999 V3000
M  V30 BEGIN CTAB
M  V30 COUNTS 60 63 0 0 0
M  V30 BEGIN ATOM
M  V30 1 C 0.446656 -3.857783 4.788858 0
M  V30 2 S 1.037919 -4.125914 3.079789 0
M  V30 3 C 1.483463 -2.545094 2.378539 0
M  V30 4 N 2.722472 -1.978079 2.461975 0
M  V30 5 C 2.622002 -0.788559 1.799416 0
M  V30 6 C 3.768507 0.104746 1.684677 0
M  V30 7 C 4.399981 0.530134 0.535341 0
M  V30 8 C 5.481695 1.381831 0.586178 0
M  V30 9 C 5.970343 1.839785 1.813590 0
M  V30 10 F 7.045731 2.685665 1.848588 0
M  V30 11 C 5.326995 1.404692 2.958649 0
M  V30 12 C 4.239678 0.548755 2.908908 0
M  V30 13 C 1.322999 -0.618382 1.305927 0
M  V30 14 C 0.996098 0.595919 0.569131 0
M  V30 15 C 1.053930 1.708569 1.420897 0
M  V30 16 C 0.792063 2.989975 0.986272 0
M  V30 17 N 0.467399 3.164033 -0.318514 0
M  V30 18 C 0.406268 2.104805 -1.155605 0
M  V30 19 N 0.067715 2.232375 -2.532085 0
M  V30 20 C -1.367758 2.088743 -2.568139 0
M  V30 21 C -2.364370 2.118520 -3.688297 0
M  V30 22 O -2.034163 1.893103 -1.494565 0
M  V30 23 C 0.666639 0.819557 -0.730281 0
M  V30 24 N 0.667401 -1.726665 1.690781 0
M  V30 25 C -0.731909 -1.915083 1.353699 0
M  V30 26 C -0.937367 -2.646387 0.051665 0
M  V30 27 N -2.336256 -2.800988 -0.241740 0
M  V30 28 C -3.055381 -3.678798 0.622391 0
M  V30 29 C -4.517426 -3.628510 0.200432 0
M  V30 30 C -4.765985 -2.502253 -0.797670 0
M  V30 31 C -3.907724 -2.662055 -2.045122 0
M  V30 32 C -2.558584 -3.205995 -1.617324 0
M  V30 33 H 0.850306 -4.612204 5.491556 0
M  V30 34 H -0.649760 -3.810020 4.846191 0
M  V30 35 H 0.819922 -2.874484 5.183136 0
M  V30 36 H 3.973125 0.140486 -0.371732 0
M  V30 37 H 5.944791 1.689059 -0.341302 0
M  V30 38 H 5.711317 1.762466 3.884224 0
M  V30 39 H 3.822784 0.278861 3.853429 0
M  V30 40 H 1.303222 1.701742 2.492001 0
M  V30 41 H 0.822708 3.872533 1.594321 0
M  V30 42 H 0.397519 2.380424 -3.496732 0
M  V30 43 H -3.135994 2.913280 -3.472717 0
M  V30 44 H -1.919723 2.299451 -4.665789 0
M  V30 45 H -2.950948 1.158863 -3.704504 0
M  V30 46 H 0.647428 -0.070794 -1.308248 0
M  V30 47 H -1.310107 -0.992984 1.421453 0
M  V30 48 H -1.157947 -2.587458 2.155275 0
M  V30 49 H -0.483329 -2.083391 -0.760665 0
M  V30 50 H -0.469890 -3.656450 0.066107 0
M  V30 51 H -2.703537 -4.722408 0.394323 0
M  V30 52 H -2.940764 -3.422415 1.678485 0
M  V30 53 H -5.122308 -3.348225 1.099907 0
M  V30 54 H -4.905579 -4.593353 -0.148422 0
M  V30 55 H -4.490468 -1.549876 -0.322825 0
M  V30 56 H -5.837771 -2.507312 -1.016072 0
M  V30 57 H -3.823662 -1.658166 -2.504075 0
M  V30 58 H -4.423354 -3.348048 -2.757145 0
M  V30 59 H -1.746518 -2.907263 -2.288217 0
M  V30 60 H -2.673821 -4.327940 -1.593454 0
M  V30 END ATOM
M  V30 BEGIN BOND
M  V30 1 1 1 2
M  V30 2 1 2 3
M  V30 3 2 3 4
M  V30 4 1 4 5
M  V30 5 1 5 6
M  V30 6 2 6 7
M  V30 7 1 7 8
M  V30 8 2 8 9
M  V30 9 1 9 10
M  V30 10 1 9 11
M  V30 11 2 11 12
M  V30 12 2 5 13
M  V30 13 1 13 14
M  V30 14 2 14 15
M  V30 15 1 15 16
M  V30 16 2 16 17
M  V30 17 1 17 18
M  V30 18 1 18 19
M  V30 19 1 19 20
M  V30 20 1 20 21
M  V30 21 2 20 22
M  V30 22 2 18 23
M  V30 23 1 13 24
M  V30 24 1 24 25
M  V30 25 1 25 26
M  V30 26 1 26 27
M  V30 27 1 27 28
M  V30 28 1 28 29
M  V30 29 1 29 30
M  V30 30 1 30 31
M  V30 31 1 31 32
M  V30 32 1 24 3
M  V30 33 1 32 27
M  V30 34 1 12 6
M  V30 35 1 23 14
M  V30 36 1 1 33
M  V30 37 1 1 34
M  V30 38 1 1 35
M  V30 39 1 7 36
M  V30 40 1 8 37
M  V30 41 1 11 38
M  V30 42 1 12 39
M  V30 43 1 15 40
M  V30 44 1 16 41
M  V30 45 1 19 42
M  V30 46 1 21 43
M  V30 47 1 21 44
M  V30 48 1 21 45
M  V30 49 1 23 46
M  V30 50 1 25 47
M  V30 51 1 25 48
M  V30 52 1 26 49
M  V30 53 1 26 50
M  V30 54 1 28 51
M  V30 55 1 28 52
M  V30 56 1 29 53
M  V30 57 1 29 54
M  V30 58 1 30 55
M  V30 59 1 30 56
M  V30 60 1 31 57
M  V30 61 1 31 58
M  V30 62 1 32 59
M  V30 63 1 32 60
M  V30 END BOND
M  V30 END CTAB
M  END
>  <Dataset>  (298) 
ChEMBL_Kinases

>  <Ligand_Instance>  (298) 
nan

>  <PDB_ID>  (298) 
nan

>  <Standardized_SMILES>  (298) 
CSc1nc(-c2ccc(F)cc2)c(-c2ccnc(NC(C)=O)c2)n1CCN1CCCCC1

>  <Name>  (298) 
nan

>  <Pocket>  (298) 
nan

>  <ATP_Site>  (298) 
nan

>  <Peripheral>  (298) 
nan

>  <Num_H_Atoms_ProtBoundConf>  (298) 
nan

>  <Num_Resolved_Atoms>  (298) 
nan

>  <Num_Not_Resolved_Atoms>  (298) 
nan

$$$$
CHEMBL228652
     RDKit          3D

  0  0  0  0  0  0  0  0  0  0999 V3000
M  V30 BEGIN CTAB
M  V30 COUNTS 47 50 0 0 0
M  V30 BEGIN ATOM
M  V30 1 N 2.368334 -3.810292 5.453749 0
M  V30 2 C 3.385051 -3.935201 4.443097 0
M  V30 3 C 3.929805 -2.622133 4.056997 0
M  V30 4 C 4.989436 -2.040011 4.679546 0
M  V30 5 C 5.495487 -0.802477 4.300823 0
M  V30 6 C 4.927624 -0.089938 3.245698 0
M  V30 7 C 3.854653 -0.639585 2.587302 0
M  V30 8 C 3.134836 -0.028336 1.446660 0
M  V30 9 C 3.638231 0.795166 0.450647 0
M  V30 10 N 2.634401 1.115670 -0.382036 0
M  V30 11 C 1.473612 0.541265 0.012399 0
M  V30 12 C 0.173019 0.603011 -0.637520 0
M  V30 13 C -0.987811 0.917020 -0.100167 0
M  V30 14 C -1.174286 1.276816 1.293611 0
M  V30 15 O -0.295553 1.366294 2.170434 0
M  V30 16 N -2.559261 1.517828 1.494613 0
M  V30 17 C -3.222105 1.309685 0.237177 0
M  V30 18 C -4.575134 1.442265 0.022083 0
M  V30 19 C -5.060274 1.200183 -1.253227 0
M  V30 20 C -4.126517 0.841322 -2.210325 0
M  V30 21 N -4.672689 0.590991 -3.522846 0
M  V30 22 C -4.978817 -0.817565 -3.469281 0
M  V30 23 N -5.540385 -1.749994 -4.397763 0
M  V30 24 O -4.739333 -1.490820 -2.408141 0
M  V30 25 C -2.771228 0.710080 -1.987891 0
M  V30 26 C -2.301929 0.952513 -0.720285 0
M  V30 27 C 1.793091 -0.181911 1.168944 0
M  V30 28 C 3.392577 -1.889657 3.017557 0
M  V30 29 H 1.658801 -3.125022 5.125990 0
M  V30 30 H 1.950070 -4.749721 5.648744 0
M  V30 31 H 2.936010 -4.474838 3.566996 0
M  V30 32 H 4.250860 -4.533894 4.821918 0
M  V30 33 H 5.486157 -2.547264 5.519692 0
M  V30 34 H 6.341367 -0.357554 4.810592 0
M  V30 35 H 5.260466 0.873389 2.892454 0
M  V30 36 H 4.697560 1.095773 0.412854 0
M  V30 37 H 2.743310 1.730921 -1.224385 0
M  V30 38 H 0.182999 0.357802 -1.690214 0
M  V30 39 H -2.967187 1.794864 2.412303 0
M  V30 40 H -5.277684 1.725401 0.794729 0
M  V30 41 H -6.111169 1.288852 -1.479351 0
M  V30 42 H -4.940214 0.930861 -4.453018 0
M  V30 43 H -6.531563 -1.855111 -4.761952 0
M  V30 44 H -4.911560 -2.473942 -4.818824 0
M  V30 45 H -2.065673 0.429923 -2.743058 0
M  V30 46 H 1.171549 -0.801945 1.801894 0
M  V30 47 H 2.531153 -2.334952 2.492375 0
M  V30 END ATOM
M  V30 BEGIN BOND
M  V30 1 1 1 2
M  V30 2 1 2 3
M  V30 3 2 3 4
M  V30 4 1 4 5
M  V30 5 2 5 6
M  V30 6 1 6 7
M  V30 7 1 7 8
M  V30 8 2 8 9
M  V30 9 1 9 10
M  V30 10 1 10 11
M  V30 11 1 11 12
M  V30 12 2 12 13
M  V30 13 1 13 14
M  V30 14 2 14 15
M  V30 15 1 14 16
M  V30 16 1 16 17
M  V30 17 2 17 18
M  V30 18 1 18 19
M  V30 19 2 19 20
M  V30 20 1 20 21
M  V30 21 1 21 22
M  V30 22 1 22 23
M  V30 23 2 22 24
M  V30 24 1 20 25
M  V30 25 2 25 26
M  V30 26 2 11 27
M  V30 27 2 7 28
M  V30 28 1 28 3
M  V30 29 1 27 8
M  V30 30 1 26 13
M  V30 31 1 26 17
M  V30 32 1 1 29
M  V30 33 1 1 30
M  V30 34 1 2 31
M  V30 35 1 2 32
M  V30 36 1 4 33
M  V30 37 1 5 34
M  V30 38 1 6 35
M  V30 39 1 9 36
M  V30 40 1 10 37
M  V30 41 1 12 38
M  V30 42 1 16 39
M  V30 43 1 18 40
M  V30 44 1 19 41
M  V30 45 1 21 42
M  V30 46 1 23 43
M  V30 47 1 23 44
M  V30 48 1 25 45
M  V30 49 1 27 46
M  V30 50 1 28 47
M  V30 END BOND
M  V30 END CTAB
M  END
>  <Dataset>  (299) 
ChEMBL_Kinases

>  <Ligand_Instance>  (299) 
nan

>  <PDB_ID>  (299) 
nan

>  <Standardized_SMILES>  (299) 
NCc1cccc(-c2c[nH]c(/C=C3\C(=O)Nc4ccc(NC(N)=O)cc43)c2)c1

>  <Name>  (299) 
nan

>  <Pocket>  (299) 
nan

>  <ATP_Site>  (299) 
nan

>  <Peripheral>  (299) 
nan

>  <Num_H_Atoms_ProtBoundConf>  (299) 
nan

>  <Num_Resolved_Atoms>  (299) 
nan

>  <Num_Not_Resolved_Atoms>  (299) 
nan

$$$$
CHEMBL221194
     RDKit          3D

  0  0  0  0  0  0  0  0  0  0999 V3000
M  V30 BEGIN CTAB
M  V30 COUNTS 54 58 0 0 0
M  V30 BEGIN ATOM
M  V30 1 C 4.052266 1.674409 1.102901 0
M  V30 2 C 2.966303 0.642279 1.420834 0 CFG=1
M  V30 3 C 2.859168 0.575427 2.863021 0
M  V30 4 C 3.080986 1.586032 3.771792 0
M  V30 5 C 2.949819 1.417140 5.137040 0
M  V30 6 C 2.576738 0.167591 5.607235 0
M  V30 7 C 2.331822 -0.913304 4.759961 0
M  V30 8 C 2.488056 -0.648721 3.414738 0
M  V30 9 C 1.786096 1.004717 0.660857 0
M  V30 10 N 1.412495 2.252767 0.309711 0
M  V30 11 C 0.297360 2.519593 -0.400699 0
M  V30 12 C -0.529345 1.468040 -0.805353 0
M  V30 13 C -0.156945 0.186971 -0.451730 0
M  V30 14 C -0.961115 -0.971764 -0.831912 0
M  V30 15 C -2.240529 -1.023623 -0.318742 0
M  V30 16 C -3.032683 -0.165587 0.554255 0
M  V30 17 C -4.192450 0.351114 -0.005467 0
M  V30 18 C -5.010321 1.175129 0.742356 0
M  V30 19 C -4.731178 1.524030 2.053455 0
M  V30 20 F -5.551363 2.334652 2.763869 0
M  V30 21 C -3.571805 0.996699 2.586127 0
M  V30 22 C -2.735923 0.171166 1.863249 0
M  V30 23 N -2.798347 -2.172802 -0.797827 0
M  V30 24 C -1.879207 -2.789727 -1.574581 0
M  V30 25 C -1.930303 -3.983797 -2.297584 0
M  V30 26 C -0.787882 -4.319148 -2.993790 0
M  V30 27 C -0.893184 -5.605257 -3.750643 0
M  V30 28 N -0.472534 -6.709638 -2.937147 0
M  V30 29 C 0.344706 -3.544912 -2.993713 0
M  V30 30 C 0.371857 -2.356492 -2.264025 0
M  V30 31 N -0.758135 -2.061001 -1.597980 0
M  V30 32 N 0.973546 0.019748 0.258363 0
M  V30 33 H 4.415627 1.596773 0.065677 0
M  V30 34 H 3.677716 2.701805 1.346613 0
M  V30 35 H 4.905302 1.478422 1.784710 0
M  V30 36 H 3.357015 -0.323693 1.037604 0
M  V30 37 H 3.369973 2.542838 3.360423 0
M  V30 38 H 3.131274 2.229219 5.817772 0
M  V30 39 H 2.458597 -0.022035 6.670302 0
M  V30 40 H 2.046619 -1.866492 5.128588 0
M  V30 41 H 2.291417 -1.510324 2.764279 0
M  V30 42 H 0.008436 3.526171 -0.676249 0
M  V30 43 H -1.427790 1.653083 -1.374879 0
M  V30 44 H -4.474240 0.115975 -1.037883 0
M  V30 45 H -5.909764 1.561966 0.273641 0
M  V30 46 H -3.311503 1.245756 3.619010 0
M  V30 47 H -1.821912 -0.251860 2.265175 0
M  V30 48 H -2.838511 -4.577908 -2.280847 0
M  V30 49 H -1.920195 -5.818779 -4.083435 0
M  V30 50 H -0.222194 -5.573539 -4.636677 0
M  V30 51 H -1.059328 -6.772215 -2.065089 0
M  V30 52 H 0.512406 -6.665440 -2.615646 0
M  V30 53 H 1.195911 -3.871755 -3.560461 0
M  V30 54 H 1.248134 -1.723153 -2.242497 0
M  V30 END ATOM
M  V30 BEGIN BOND
M  V30 1 1 1 2
M  V30 2 1 2 3
M  V30 3 2 3 4
M  V30 4 1 4 5
M  V30 5 2 5 6
M  V30 6 1 6 7
M  V30 7 2 7 8
M  V30 8 1 2 9
M  V30 9 2 9 10
M  V30 10 1 10 11
M  V30 11 2 11 12
M  V30 12 1 12 13
M  V30 13 1 13 14
M  V30 14 2 14 15
M  V30 15 1 15 16
M  V30 16 2 16 17
M  V30 17 1 17 18
M  V30 18 2 18 19
M  V30 19 1 19 20
M  V30 20 1 19 21
M  V30 21 2 21 22
M  V30 22 1 15 23
M  V30 23 2 23 24
M  V30 24 1 24 25
M  V30 25 2 25 26
M  V30 26 1 26 27
M  V30 27 1 27 28
M  V30 28 1 26 29
M  V30 29 2 29 30
M  V30 30 1 30 31
M  V30 31 2 13 32
M  V30 32 1 8 3
M  V30 33 1 32 9
M  V30 34 1 31 14
M  V30 35 1 22 16
M  V30 36 1 31 24
M  V30 37 1 1 33
M  V30 38 1 1 34
M  V30 39 1 1 35
M  V30 40 1 2 36 CFG=3
M  V30 41 1 4 37
M  V30 42 1 5 38
M  V30 43 1 6 39
M  V30 44 1 7 40
M  V30 45 1 8 41
M  V30 46 1 11 42
M  V30 47 1 12 43
M  V30 48 1 17 44
M  V30 49 1 18 45
M  V30 50 1 21 46
M  V30 51 1 22 47
M  V30 52 1 25 48
M  V30 53 1 27 49
M  V30 54 1 27 50
M  V30 55 1 28 51
M  V30 56 1 28 52
M  V30 57 1 29 53
M  V30 58 1 30 54
M  V30 END BOND
M  V30 END CTAB
M  END
>  <Dataset>  (300) 
ChEMBL_Kinases

>  <Ligand_Instance>  (300) 
nan

>  <PDB_ID>  (300) 
nan

>  <Standardized_SMILES>  (300) 
C[C@@H](c1ccccc1)c1nccc(-c2c(-c3ccc(F)cc3)nc3cc(CN)ccn23)n1

>  <Name>  (300) 
nan

>  <Pocket>  (300) 
nan

>  <ATP_Site>  (300) 
nan

>  <Peripheral>  (300) 
nan

>  <Num_H_Atoms_ProtBoundConf>  (300) 
nan

>  <Num_Resolved_Atoms>  (300) 
nan

>  <Num_Not_Resolved_Atoms>  (300) 
nan

$$$$
CHEMBL221221
     RDKit          3D

  0  0  0  0  0  0  0  0  0  0999 V3000
M  V30 BEGIN CTAB
M  V30 COUNTS 45 48 0 0 0
M  V30 BEGIN ATOM
M  V30 1 C 0.549397 -2.763817 2.138076 0
M  V30 2 C 1.939130 -3.218407 2.192957 0
M  V30 3 N 2.476659 -3.972865 3.161212 0
M  V30 4 C 3.745132 -4.164852 2.782662 0
M  V30 5 N 3.962594 -3.547575 1.629573 0
M  V30 6 C 2.826802 -2.920399 1.206064 0
M  V30 7 C 2.945561 -2.165083 -0.055916 0
M  V30 8 N 3.200543 -0.769185 0.190041 0
M  V30 9 C 2.549764 0.431302 0.575257 0
M  V30 10 C 3.217669 1.646855 0.777381 0
M  V30 11 C 2.467876 2.741359 1.122044 0
M  V30 12 C 1.106089 2.717397 1.280405 0
M  V30 13 N 0.450336 3.839732 1.621052 0
M  V30 14 C -0.881583 3.884556 1.792597 0
M  V30 15 C -1.593230 2.700629 1.602672 0
M  V30 16 C -3.025680 2.659413 1.766920 0
M  V30 17 N -4.199227 2.642370 1.890192 0
M  V30 18 C -0.965587 1.500201 1.246045 0
M  V30 19 N -1.604602 0.273170 1.035027 0
M  V30 20 C -2.202909 -0.384168 -0.067545 0
M  V30 21 C -2.705910 -1.653670 0.129576 0
M  V30 22 C -3.281655 -2.253248 -0.969837 0
M  V30 23 C -3.363237 -1.648295 -2.196333 0
M  V30 24 F -3.931841 -2.238733 -3.282567 0
M  V30 25 C -2.850282 -0.358521 -2.385267 0
M  V30 26 Cl -2.898803 0.515144 -3.915753 0
M  V30 27 C -2.271793 0.242489 -1.280165 0
M  V30 28 C 0.402878 1.522982 1.086269 0
M  V30 29 C 1.183361 0.442439 0.740810 0
M  V30 30 H 0.385231 -1.801455 2.658787 0
M  V30 31 H 0.188979 -2.738685 1.074284 0
M  V30 32 H -0.082739 -3.498296 2.720960 0
M  V30 33 H 1.942322 -4.300729 4.004725 0
M  V30 34 H 4.440447 -4.752952 3.383758 0
M  V30 35 H 3.724086 -2.560902 -0.731787 0
M  V30 36 H 1.961079 -2.244918 -0.635067 0
M  V30 37 H 4.241510 -0.571143 0.033502 0
M  V30 38 H 4.291713 1.669795 0.652845 0
M  V30 39 H 3.079144 3.633441 1.256512 0
M  V30 40 H -1.425868 4.780718 2.067568 0
M  V30 41 H -1.541598 -0.123784 2.009915 0
M  V30 42 H -2.641506 -2.129672 1.095052 0
M  V30 43 H -3.697440 -3.256725 -0.879170 0
M  V30 44 H -1.860289 1.253452 -1.397846 0
M  V30 45 H 0.576312 -0.432367 0.592657 0
M  V30 END ATOM
M  V30 BEGIN BOND
M  V30 1 1 1 2
M  V30 2 1 2 3
M  V30 3 1 3 4
M  V30 4 2 4 5
M  V30 5 1 5 6
M  V30 6 1 6 7
M  V30 7 1 7 8
M  V30 8 1 8 9
M  V30 9 2 9 10
M  V30 10 1 10 11
M  V30 11 2 11 12
M  V30 12 1 12 13
M  V30 13 2 13 14
M  V30 14 1 14 15
M  V30 15 1 15 16
M  V30 16 3 16 17
M  V30 17 2 15 18
M  V30 18 1 18 19
M  V30 19 1 19 20
M  V30 20 2 20 21
M  V30 21 1 21 22
M  V30 22 2 22 23
M  V30 23 1 23 24
M  V30 24 1 23 25
M  V30 25 1 25 26
M  V30 26 2 25 27
M  V30 27 1 18 28
M  V30 28 2 28 29
M  V30 29 2 6 2
M  V30 30 1 29 9
M  V30 31 1 28 12
M  V30 32 1 27 20
M  V30 33 1 1 30
M  V30 34 1 1 31
M  V30 35 1 1 32
M  V30 36 1 3 33
M  V30 37 1 4 34
M  V30 38 1 7 35
M  V30 39 1 7 36
M  V30 40 1 8 37
M  V30 41 1 10 38
M  V30 42 1 11 39
M  V30 43 1 14 40
M  V30 44 1 19 41
M  V30 45 1 21 42
M  V30 46 1 22 43
M  V30 47 1 27 44
M  V30 48 1 29 45
M  V30 END BOND
M  V30 END CTAB
M  END
>  <Dataset>  (301) 
ChEMBL_Kinases

>  <Ligand_Instance>  (301) 
nan

>  <PDB_ID>  (301) 
nan

>  <Standardized_SMILES>  (301) 
Cc1[nH]cnc1CNc1ccc2ncc(C#N)c(Nc3ccc(F)c(Cl)c3)c2c1

>  <Name>  (301) 
nan

>  <Pocket>  (301) 
nan

>  <ATP_Site>  (301) 
nan

>  <Peripheral>  (301) 
nan

>  <Num_H_Atoms_ProtBoundConf>  (301) 
nan

>  <Num_Resolved_Atoms>  (301) 
nan

>  <Num_Not_Resolved_Atoms>  (301) 
nan

$$$$
CHEMBL221269
     RDKit          3D

  0  0  0  0  0  0  0  0  0  0999 V3000
M  V30 BEGIN CTAB
M  V30 COUNTS 41 44 0 0 0
M  V30 BEGIN ATOM
M  V30 1 N 0.670845 -2.982964 5.437783 0
M  V30 2 C 1.166602 -2.758601 4.401962 0
M  V30 3 C 1.791098 -2.500575 3.127390 0
M  V30 4 C 2.982786 -3.134644 2.763779 0
M  V30 5 N 3.520551 -2.845780 1.543800 0
M  V30 6 C 2.933177 -1.985030 0.716295 0
M  V30 7 C 3.538209 -1.752700 -0.486150 0
M  V30 8 C 2.982450 -0.876288 -1.382539 0
M  V30 9 C 1.791637 -0.198217 -1.100365 0
M  V30 10 N 1.236088 0.688971 -2.050111 0
M  V30 11 C 0.084078 1.528443 -2.038678 0
M  V30 12 C 0.249754 2.671124 -1.032917 0
M  V30 13 N 0.747709 3.688508 -1.205977 0
M  V30 14 C 0.911795 4.715556 -0.402441 0
M  V30 15 C 0.384932 4.512757 0.867440 0
M  V30 16 S -0.297020 2.832547 0.747605 0
M  V30 17 C 1.256397 -0.487881 0.116949 0
M  V30 18 C 1.766784 -1.356455 1.057561 0
M  V30 19 C 1.166832 -1.601191 2.276242 0
M  V30 20 N -0.046420 -0.930052 2.599383 0
M  V30 21 C -1.287383 -1.536553 2.248350 0
M  V30 22 C -2.525237 -0.981905 2.509413 0
M  V30 23 C -3.693481 -1.625444 2.140681 0
M  V30 24 C -3.671274 -2.853902 1.493734 0
M  V30 25 F -4.766614 -3.546547 1.100964 0
M  V30 26 C -2.445985 -3.453629 1.208593 0
M  V30 27 Cl -2.285801 -5.007552 0.393586 0
M  V30 28 C -1.313375 -2.767350 1.598952 0
M  V30 29 H 3.395418 -3.818969 3.491364 0
M  V30 30 H 4.461825 -2.243226 -0.769982 0
M  V30 31 H 3.479177 -0.706535 -2.331220 0
M  V30 32 H 1.764736 0.766084 -2.969710 0
M  V30 33 H -0.793869 0.910409 -1.710228 0
M  V30 34 H -0.145097 2.022030 -2.973891 0
M  V30 35 H 1.421007 5.642270 -0.720766 0
M  V30 36 H 0.477735 5.368081 1.663155 0
M  V30 37 H 0.331200 -0.016849 0.414421 0
M  V30 38 H -0.106721 -0.007535 3.084134 0
M  V30 39 H -2.564772 -0.025866 3.012334 0
M  V30 40 H -4.668186 -1.207478 2.336351 0
M  V30 41 H -0.348751 -3.233110 1.377835 0
M  V30 END ATOM
M  V30 BEGIN BOND
M  V30 1 3 1 2
M  V30 2 1 2 3
M  V30 3 2 3 4
M  V30 4 1 4 5
M  V30 5 2 5 6
M  V30 6 1 6 7
M  V30 7 2 7 8
M  V30 8 1 8 9
M  V30 9 1 9 10
M  V30 10 1 10 11
M  V30 11 1 11 12
M  V30 12 2 12 13
M  V30 13 1 13 14
M  V30 14 2 14 15
M  V30 15 1 15 16
M  V30 16 2 9 17
M  V30 17 1 17 18
M  V30 18 2 18 19
M  V30 19 1 19 20
M  V30 20 1 20 21
M  V30 21 2 21 22
M  V30 22 1 22 23
M  V30 23 2 23 24
M  V30 24 1 24 25
M  V30 25 1 24 26
M  V30 26 1 26 27
M  V30 27 2 26 28
M  V30 28 1 19 3
M  V30 29 1 28 21
M  V30 30 1 18 6
M  V30 31 1 16 12
M  V30 32 1 4 29
M  V30 33 1 7 30
M  V30 34 1 8 31
M  V30 35 1 10 32
M  V30 36 1 11 33
M  V30 37 1 11 34
M  V30 38 1 14 35
M  V30 39 1 15 36
M  V30 40 1 17 37
M  V30 41 1 20 38
M  V30 42 1 22 39
M  V30 43 1 23 40
M  V30 44 1 28 41
M  V30 END BOND
M  V30 END CTAB
M  END
>  <Dataset>  (302) 
ChEMBL_Kinases

>  <Ligand_Instance>  (302) 
nan

>  <PDB_ID>  (302) 
nan

>  <Standardized_SMILES>  (302) 
N#Cc1cnc2ccc(NCc3nccs3)cc2c1Nc1ccc(F)c(Cl)c1

>  <Name>  (302) 
nan

>  <Pocket>  (302) 
nan

>  <ATP_Site>  (302) 
nan

>  <Peripheral>  (302) 
nan

>  <Num_H_Atoms_ProtBoundConf>  (302) 
nan

>  <Num_Resolved_Atoms>  (302) 
nan

>  <Num_Not_Resolved_Atoms>  (302) 
nan

$$$$
CHEMBL221274
     RDKit          3D

  0  0  0  0  0  0  0  0  0  0999 V3000
M  V30 BEGIN CTAB
M  V30 COUNTS 46 49 0 0 0
M  V30 BEGIN ATOM
M  V30 1 N 4.242690 -5.446537 2.421280 0
M  V30 2 C 4.316644 -4.298505 2.300311 0
M  V30 3 C 4.405342 -2.876972 2.129270 0
M  V30 4 C 4.880448 -2.164206 3.199374 0
M  V30 5 C 4.971203 -0.801814 3.049968 0
M  V30 6 C 4.609881 -0.164809 1.895995 0
M  V30 7 C 4.127957 -0.843365 0.799456 0
M  V30 8 C 3.659196 -0.397227 -0.529362 0
M  V30 9 N 2.230198 -0.241133 -0.638551 0
M  V30 10 C 1.299516 0.638600 -0.038932 0
M  V30 11 C 1.610529 1.645068 0.845533 0
M  V30 12 C 0.724353 2.509257 1.448977 0
M  V30 13 C -0.605863 2.338972 1.126124 0
M  V30 14 N -1.521919 3.143551 1.675528 0
M  V30 15 C -2.825639 3.001759 1.380036 0
M  V30 16 C -3.245066 2.022731 0.503495 0
M  V30 17 C -4.644564 1.888592 0.201423 0
M  V30 18 N -5.769798 1.783463 -0.041254 0
M  V30 19 C -2.312487 1.184883 -0.071520 0
M  V30 20 N -2.720266 0.172589 -0.974334 0
M  V30 21 C -3.020100 -1.061916 -0.363658 0
M  V30 22 C -2.914857 -1.242174 1.018509 0
M  V30 23 C -3.212171 -2.465264 1.621328 0
M  V30 24 C -3.621719 -3.533576 0.847626 0
M  V30 25 F -3.905275 -4.713549 1.457654 0
M  V30 26 C -3.741048 -3.405644 -0.520601 0
M  V30 27 Cl -4.259197 -4.763097 -1.484276 0
M  V30 28 C -3.435271 -2.178851 -1.059630 0
M  V30 29 C -0.979499 1.348353 0.246089 0
M  V30 30 C -0.041065 0.526942 -0.314291 0
M  V30 31 C 4.044717 -2.220000 0.972221 0
M  V30 32 H 5.200211 -2.532047 4.164147 0
M  V30 33 H 5.333170 -0.129686 3.827952 0
M  V30 34 H 4.679235 0.898345 1.739723 0
M  V30 35 H 4.012817 -1.113319 -1.295316 0
M  V30 36 H 4.179209 0.567668 -0.823940 0
M  V30 37 H 1.794128 -0.944223 -1.316831 0
M  V30 38 H 2.637643 1.808001 1.112125 0
M  V30 39 H 1.043482 3.279669 2.137259 0
M  V30 40 H -3.569055 3.658646 1.829195 0
M  V30 41 H -2.824545 0.223625 -2.010982 0
M  V30 42 H -2.596436 -0.423557 1.651270 0
M  V30 43 H -3.106721 -2.525558 2.693155 0
M  V30 44 H -3.524901 -2.063684 -2.136966 0
M  V30 45 H -0.403373 -0.228168 -0.995610 0
M  V30 46 H 3.686560 -2.908301 0.208927 0
M  V30 END ATOM
M  V30 BEGIN BOND
M  V30 1 3 1 2
M  V30 2 1 2 3
M  V30 3 2 3 4
M  V30 4 1 4 5
M  V30 5 2 5 6
M  V30 6 1 6 7
M  V30 7 1 7 8
M  V30 8 1 8 9
M  V30 9 1 9 10
M  V30 10 2 10 11
M  V30 11 1 11 12
M  V30 12 2 12 13
M  V30 13 1 13 14
M  V30 14 2 14 15
M  V30 15 1 15 16
M  V30 16 1 16 17
M  V30 17 3 17 18
M  V30 18 2 16 19
M  V30 19 1 19 20
M  V30 20 1 20 21
M  V30 21 2 21 22
M  V30 22 1 22 23
M  V30 23 2 23 24
M  V30 24 1 24 25
M  V30 25 1 24 26
M  V30 26 1 26 27
M  V30 27 2 26 28
M  V30 28 1 19 29
M  V30 29 2 29 30
M  V30 30 2 7 31
M  V30 31 1 31 3
M  V30 32 1 30 10
M  V30 33 1 29 13
M  V30 34 1 28 21
M  V30 35 1 4 32
M  V30 36 1 5 33
M  V30 37 1 6 34
M  V30 38 1 8 35
M  V30 39 1 8 36
M  V30 40 1 9 37
M  V30 41 1 11 38
M  V30 42 1 12 39
M  V30 43 1 15 40
M  V30 44 1 20 41
M  V30 45 1 22 42
M  V30 46 1 23 43
M  V30 47 1 28 44
M  V30 48 1 30 45
M  V30 49 1 31 46
M  V30 END BOND
M  V30 END CTAB
M  END
>  <Dataset>  (303) 
ChEMBL_Kinases

>  <Ligand_Instance>  (303) 
nan

>  <PDB_ID>  (303) 
nan

>  <Standardized_SMILES>  (303) 
N#Cc1cccc(CNc2ccc3ncc(C#N)c(Nc4ccc(F)c(Cl)c4)c3c2)c1

>  <Name>  (303) 
nan

>  <Pocket>  (303) 
nan

>  <ATP_Site>  (303) 
nan

>  <Peripheral>  (303) 
nan

>  <Num_H_Atoms_ProtBoundConf>  (303) 
nan

>  <Num_Resolved_Atoms>  (303) 
nan

>  <Num_Not_Resolved_Atoms>  (303) 
nan

$$$$
CHEMBL221287
     RDKit          3D

  0  0  0  0  0  0  0  0  0  0999 V3000
M  V30 BEGIN CTAB
M  V30 COUNTS 56 61 0 0 0
M  V30 BEGIN ATOM
M  V30 1 O -1.281011 -2.567559 -2.814073 0
M  V30 2 C -1.160663 -1.367913 -3.117995 0
M  V30 3 N -1.249131 -1.031168 -4.422186 0
M  V30 4 C -1.128059 0.253554 -4.825138 0
M  V30 5 C -1.215471 0.615110 -6.150099 0
M  V30 6 C -1.088606 1.945446 -6.552381 0
M  V30 7 C -0.868417 2.933403 -5.594953 0
M  V30 8 N -0.740267 4.299573 -6.028945 0
M  V30 9 C -1.758766 5.203236 -6.037429 0
M  V30 10 C -1.209983 6.390865 -6.525204 0
M  V30 11 N 0.094039 6.167137 -6.788718 0
M  V30 12 N 0.351951 4.903024 -6.482178 0
M  V30 13 C -0.777120 2.586350 -4.249710 0
M  V30 14 C -0.909177 1.256298 -3.899484 0
M  V30 15 C -0.826266 0.863135 -2.580287 0
M  V30 16 C -0.943999 -0.434746 -2.127352 0
M  V30 17 C -0.841464 -0.751478 -0.708912 0
M  V30 18 C -0.928863 -1.952030 -0.082541 0
M  V30 19 C -0.771760 -1.804977 1.299255 0
M  V30 20 C -0.770354 -2.662111 2.381771 0
M  V30 21 C -0.577900 -2.151867 3.662770 0
M  V30 22 C -0.586223 -3.102480 4.779523 0
M  V30 23 N 0.684698 -3.668287 5.108979 0
M  V30 24 C 0.513389 -4.561549 6.206147 0
M  V30 25 C 1.708766 -4.922096 6.988958 0
M  V30 26 C 3.028871 -4.419906 6.529882 0
M  V30 27 C 2.994486 -3.438220 5.418547 0
M  V30 28 C 1.680095 -2.685901 5.489478 0
M  V30 29 C -0.396806 -0.794924 3.775614 0
M  V30 30 C -0.390087 0.099461 2.727135 0
M  V30 31 C -0.584958 -0.437104 1.454569 0
M  V30 32 N -0.630352 0.158338 0.259785 0
M  V30 33 H -1.413477 -1.746407 -5.164781 0
M  V30 34 H -1.384338 -0.121106 -6.911620 0
M  V30 35 H -1.151489 2.268843 -7.585192 0
M  V30 36 H -2.753133 4.976863 -5.719828 0
M  V30 37 H -1.868403 7.247641 -6.610896 0
M  V30 38 H -0.605191 3.353700 -3.497825 0
M  V30 39 H -0.654743 1.653442 -1.860353 0
M  V30 40 H -1.093583 -2.916141 -0.521918 0
M  V30 41 H -0.924525 -3.698696 2.138552 0
M  V30 42 H -1.332715 -3.909247 4.669382 0
M  V30 43 H -0.918471 -2.541714 5.702292 0
M  V30 44 H -0.294355 -4.109629 6.854179 0
M  V30 45 H 0.011019 -5.486691 5.795228 0
M  V30 46 H 1.573698 -4.527715 8.039110 0
M  V30 47 H 1.732997 -6.032572 7.139402 0
M  V30 48 H 3.631789 -5.295866 6.170398 0
M  V30 49 H 3.647413 -3.975601 7.349426 0
M  V30 50 H 3.010033 -3.963169 4.429674 0
M  V30 51 H 3.805706 -2.686825 5.500164 0
M  V30 52 H 1.516055 -2.401228 6.548559 0
M  V30 53 H 1.674113 -1.798404 4.830552 0
M  V30 54 H -0.247831 -0.374237 4.747837 0
M  V30 55 H -0.243492 1.163223 2.861475 0
M  V30 56 H -0.514163 1.195055 0.124198 0
M  V30 END ATOM
M  V30 BEGIN BOND
M  V30 1 2 1 2
M  V30 2 1 2 3
M  V30 3 1 3 4
M  V30 4 2 4 5
M  V30 5 1 5 6
M  V30 6 2 6 7
M  V30 7 1 7 8
M  V30 8 1 8 9
M  V30 9 2 9 10
M  V30 10 1 10 11
M  V30 11 2 11 12
M  V30 12 1 7 13
M  V30 13 2 13 14
M  V30 14 1 14 15
M  V30 15 2 15 16
M  V30 16 1 16 17
M  V30 17 2 17 18
M  V30 18 1 18 19
M  V30 19 2 19 20
M  V30 20 1 20 21
M  V30 21 1 21 22
M  V30 22 1 22 23
M  V30 23 1 23 24
M  V30 24 1 24 25
M  V30 25 1 25 26
M  V30 26 1 26 27
M  V30 27 1 27 28
M  V30 28 2 21 29
M  V30 29 1 29 30
M  V30 30 2 30 31
M  V30 31 1 31 32
M  V30 32 1 16 2
M  V30 33 1 32 17
M  V30 34 1 14 4
M  V30 35 1 31 19
M  V30 36 1 12 8
M  V30 37 1 28 23
M  V30 38 1 3 33
M  V30 39 1 5 34
M  V30 40 1 6 35
M  V30 41 1 9 36
M  V30 42 1 10 37
M  V30 43 1 13 38
M  V30 44 1 15 39
M  V30 45 1 18 40
M  V30 46 1 20 41
M  V30 47 1 22 42
M  V30 48 1 22 43
M  V30 49 1 24 44
M  V30 50 1 24 45
M  V30 51 1 25 46
M  V30 52 1 25 47
M  V30 53 1 26 48
M  V30 54 1 26 49
M  V30 55 1 27 50
M  V30 56 1 27 51
M  V30 57 1 28 52
M  V30 58 1 28 53
M  V30 59 1 29 54
M  V30 60 1 30 55
M  V30 61 1 32 56
M  V30 END BOND
M  V30 END CTAB
M  END
>  <Dataset>  (304) 
ChEMBL_Kinases

>  <Ligand_Instance>  (304) 
nan

>  <PDB_ID>  (304) 
nan

>  <Standardized_SMILES>  (304) 
O=c1[nH]c2ccc(-n3ccnn3)cc2cc1-c1cc2cc(CN3CCCCC3)ccc2[nH]1

>  <Name>  (304) 
nan

>  <Pocket>  (304) 
nan

>  <ATP_Site>  (304) 
nan

>  <Peripheral>  (304) 
nan

>  <Num_H_Atoms_ProtBoundConf>  (304) 
nan

>  <Num_Resolved_Atoms>  (304) 
nan

>  <Num_Not_Resolved_Atoms>  (304) 
nan

$$$$
CHEMBL221289
     RDKit          3D

  0  0  0  0  0  0  0  0  0  0999 V3000
M  V30 BEGIN CTAB
M  V30 COUNTS 73 76 0 0 0
M  V30 BEGIN ATOM
M  V30 1 C 11.996607 -0.213667 6.561628 0
M  V30 2 O 11.513120 1.083270 6.570764 0
M  V30 3 C 10.934274 1.848612 5.589296 0
M  V30 4 O 11.223890 0.698522 5.111750 0
M  V30 5 C 10.635061 3.160281 6.238216 0
M  V30 6 O 10.016926 4.042502 5.306321 0
M  V30 7 C 8.816640 3.705297 4.714026 0
M  V30 8 C 8.079633 2.566638 4.904656 0
M  V30 9 C 6.886092 2.318932 4.262725 0
M  V30 10 C 6.400678 3.265114 3.378159 0
M  V30 11 C 5.138289 2.959003 2.727944 0
M  V30 12 C 4.091701 2.694237 2.182517 0
M  V30 13 C 2.846851 2.362500 1.540756 0
M  V30 14 C 1.784606 1.989837 2.347765 0
M  V30 15 C 0.552627 1.651596 1.818089 0
M  V30 16 C 0.364365 1.683079 0.450193 0
M  V30 17 C -0.926668 1.326997 -0.134388 0
M  V30 18 C -1.988953 1.022914 -0.629148 0
M  V30 19 C -3.239599 0.643735 -1.228529 0
M  V30 20 C -3.380185 -0.675312 -1.611791 0
M  V30 21 C -4.509690 -1.186436 -2.194556 0
M  V30 22 C -5.560927 -0.304945 -2.401251 0
M  V30 23 C -6.817800 -0.770896 -3.025048 0
M  V30 24 O -7.865776 -0.106222 -3.281815 0
M  V30 25 O -6.916334 -2.102276 -3.397268 0
M  V30 26 C -8.084238 -2.657812 -4.006334 0
M  V30 27 C -7.760048 -4.116733 -4.234918 0
M  V30 28 C -8.906099 -4.867835 -4.875544 0
M  V30 29 O -10.010906 -4.822157 -4.036429 0
M  V30 30 C -7.353458 -4.723362 -2.930095 0
M  V30 31 C -5.989075 -5.269420 -3.180667 0
M  V30 32 C -5.089149 -5.901999 -2.419532 0
M  V30 33 C -3.740227 -6.429581 -2.710581 0
M  V30 34 C -5.609955 -6.074091 -1.023744 0
M  V30 35 C -5.669634 -5.004980 -4.576620 0
M  V30 36 O -4.781301 -5.333490 -5.401763 0
M  V30 37 O -6.635877 -4.159301 -5.083883 0
M  V30 38 C -5.461447 1.029273 -2.030925 0
M  V30 39 C -4.290047 1.514968 -1.437403 0
M  V30 40 C 1.433531 2.058568 -0.358006 0
M  V30 41 C 2.666894 2.396884 0.170415 0
M  V30 42 C 7.092210 4.433284 3.140249 0
M  V30 43 C 8.286893 4.627080 3.815152 0
M  V30 44 H 12.381151 -0.522683 7.578679 0
M  V30 45 H 11.154486 -0.928602 6.387491 0
M  V30 46 H 12.815368 -0.400179 5.824471 0
M  V30 47 H 11.589480 3.615849 6.561443 0
M  V30 48 H 9.917088 2.999710 7.068410 0
M  V30 49 H 8.480862 1.844380 5.599971 0
M  V30 50 H 6.364486 1.394945 4.466336 0
M  V30 51 H 1.903343 1.957394 3.424136 0
M  V30 52 H -0.286134 1.358663 2.449675 0
M  V30 53 H -2.581502 -1.417965 -1.472494 0
M  V30 54 H -4.685304 -2.189366 -2.513322 0
M  V30 55 H -8.235848 -2.196026 -5.003731 0
M  V30 56 H -8.971315 -2.532476 -3.335432 0
M  V30 57 H -9.094347 -4.524218 -5.897008 0
M  V30 58 H -8.616084 -5.935614 -4.954995 0
M  V30 59 H -10.149684 -5.664979 -3.538934 0
M  V30 60 H -8.057935 -5.512506 -2.637717 0
M  V30 61 H -7.335169 -3.984699 -2.104469 0
M  V30 62 H -3.528183 -6.422589 -3.788886 0
M  V30 63 H -3.615924 -7.485058 -2.375083 0
M  V30 64 H -3.020477 -5.833132 -2.112491 0
M  V30 65 H -4.978116 -6.801511 -0.481265 0
M  V30 66 H -5.580746 -5.066146 -0.579299 0
M  V30 67 H -6.684990 -6.403291 -1.043691 0
M  V30 68 H -6.266411 1.749435 -2.178771 0
M  V30 69 H -4.126141 2.531649 -1.119087 0
M  V30 70 H 1.312485 2.093465 -1.439485 0
M  V30 71 H 3.510775 2.692674 -0.460736 0
M  V30 72 H 6.683369 5.144229 2.446028 0
M  V30 73 H 8.768656 5.570416 3.573002 0
M  V30 END ATOM
M  V30 BEGIN BOND
M  V30 1 1 1 2
M  V30 2 1 2 3
M  V30 3 2 3 4
M  V30 4 1 3 5
M  V30 5 1 5 6
M  V30 6 1 6 7
M  V30 7 2 7 8
M  V30 8 1 8 9
M  V30 9 2 9 10
M  V30 10 1 10 11
M  V30 11 3 11 12
M  V30 12 1 12 13
M  V30 13 2 13 14
M  V30 14 1 14 15
M  V30 15 2 15 16
M  V30 16 1 16 17
M  V30 17 3 17 18
M  V30 18 1 18 19
M  V30 19 2 19 20
M  V30 20 1 20 21
M  V30 21 2 21 22
M  V30 22 1 22 23
M  V30 23 2 23 24
M  V30 24 1 23 25
M  V30 25 1 25 26
M  V30 26 1 26 27
M  V30 27 1 27 28
M  V30 28 1 28 29
M  V30 29 1 27 30
M  V30 30 1 30 31
M  V30 31 2 31 32 CFG=2
M  V30 32 1 32 33
M  V30 33 1 32 34
M  V30 34 1 31 35
M  V30 35 2 35 36
M  V30 36 1 35 37
M  V30 37 1 22 38
M  V30 38 2 38 39
M  V30 39 1 16 40
M  V30 40 2 40 41
M  V30 41 1 10 42
M  V30 42 2 42 43
M  V30 43 1 43 7
M  V30 44 1 41 13
M  V30 45 1 39 19
M  V30 46 1 37 27
M  V30 47 1 1 44
M  V30 48 1 1 45
M  V30 49 1 1 46
M  V30 50 1 5 47
M  V30 51 1 5 48
M  V30 52 1 8 49
M  V30 53 1 9 50
M  V30 54 1 14 51
M  V30 55 1 15 52
M  V30 56 1 20 53
M  V30 57 1 21 54
M  V30 58 1 26 55
M  V30 59 1 26 56
M  V30 60 1 28 57
M  V30 61 1 28 58
M  V30 62 1 29 59
M  V30 63 1 30 60
M  V30 64 1 30 61
M  V30 65 1 33 62
M  V30 66 1 33 63
M  V30 67 1 33 64
M  V30 68 1 34 65
M  V30 69 1 34 66
M  V30 70 1 34 67
M  V30 71 1 38 68
M  V30 72 1 39 69
M  V30 73 1 40 70
M  V30 74 1 41 71
M  V30 75 1 42 72
M  V30 76 1 43 73
M  V30 END BOND
M  V30 END CTAB
M  END
>  <Dataset>  (305) 
ChEMBL_Kinases

>  <Ligand_Instance>  (305) 
nan

>  <PDB_ID>  (305) 
nan

>  <Standardized_SMILES>  (305) 
COC(=O)COc1ccc(C#Cc2ccc(C#Cc3ccc(C(=O)OCC4(CO)CC(=C(C)C)C(=O)O4)cc3)cc2)cc1

>  <Name>  (305) 
nan

>  <Pocket>  (305) 
nan

>  <ATP_Site>  (305) 
nan

>  <Peripheral>  (305) 
nan

>  <Num_H_Atoms_ProtBoundConf>  (305) 
nan

>  <Num_Resolved_Atoms>  (305) 
nan

>  <Num_Not_Resolved_Atoms>  (305) 
nan

$$$$
CHEMBL221290
     RDKit          3D

  0  0  0  0  0  0  0  0  0  0999 V3000
M  V30 BEGIN CTAB
M  V30 COUNTS 85 89 0 0 0
M  V30 BEGIN ATOM
M  V30 1 C 11.778973 4.602856 -12.352705 0
M  V30 2 O 10.574306 4.769997 -11.652754 0
M  V30 3 C 9.669552 5.772893 -11.773767 0
M  V30 4 O 10.013024 6.630886 -12.628731 0
M  V30 5 C 8.581210 5.484532 -10.830606 0
M  V30 6 O 7.555143 6.479313 -10.809219 0
M  V30 7 C 6.459895 6.314631 -9.961763 0
M  V30 8 C 6.499580 5.135665 -9.209184 0
M  V30 9 C 5.423915 4.909289 -8.334625 0
M  V30 10 C 4.322818 5.760519 -8.153727 0
M  V30 11 C 3.329837 5.369294 -7.206141 0
M  V30 12 C 2.521108 5.033594 -6.410253 0
M  V30 13 C 1.534961 4.597607 -5.417533 0
M  V30 14 C 1.508020 5.361973 -4.271720 0
M  V30 15 C 0.600650 4.902314 -3.306639 0
M  V30 16 C -0.170825 3.781161 -3.531291 0
M  V30 17 C -1.078081 3.175641 -2.592504 0
M  V30 18 C -1.828367 2.650526 -1.793399 0
M  V30 19 C -2.698697 2.009914 -0.844574 0
M  V30 20 C -3.985345 1.634094 -1.127317 0
M  V30 21 C -4.706007 0.943933 -0.170445 0
M  V30 22 C -4.161028 0.628246 1.050680 0
M  V30 23 C -4.706243 -0.172566 2.121746 0
M  V30 24 C -5.150516 -0.858323 3.006687 0
M  V30 25 C -5.655309 -1.679889 4.032156 0
M  V30 26 C -4.650608 -2.458078 4.611739 0
M  V30 27 C -4.798412 -3.390530 5.587538 0
M  V30 28 C -6.113908 -3.547610 6.018603 0
M  V30 29 C -6.584822 -4.518203 6.954946 0
M  V30 30 O -7.356149 -5.117723 7.690032 0
M  V30 31 O -5.963937 -5.475030 7.513962 0
M  V30 32 C -5.492213 -6.506133 8.181201 0
M  V30 33 C -4.000679 -6.745412 7.876268 0
M  V30 34 C -3.766309 -6.997525 6.419330 0
M  V30 35 O -2.390989 -7.128372 6.206722 0
M  V30 36 C -3.437944 -7.806695 8.763330 0
M  V30 37 C -2.006114 -7.429447 8.887778 0
M  V30 38 C -0.905396 -8.195553 8.997731 0
M  V30 39 C -1.036231 -9.685250 9.004112 0
M  V30 40 C 0.487327 -7.716660 9.113483 0
M  V30 41 C -2.086247 -5.977734 8.848926 0
M  V30 42 O -1.185377 -5.191377 9.304399 0
M  V30 43 O -3.270592 -5.582528 8.249215 0
M  V30 44 C -7.163968 -2.796868 5.480869 0
M  V30 45 C -6.944484 -1.848875 4.475785 0
M  V30 46 C -2.832834 1.038723 1.299426 0
M  V30 47 C -2.083616 1.729230 0.371297 0
M  V30 48 C -0.083162 3.058454 -4.731833 0
M  V30 49 C 0.804723 3.477337 -5.723081 0
M  V30 50 C 4.371611 6.890667 -8.932880 0
M  V30 51 C 5.394554 7.152877 -9.797008 0
M  V30 52 H 12.087185 3.516437 -12.229455 0
M  V30 53 H 12.603014 5.188075 -11.928616 0
M  V30 54 H 11.663398 4.707841 -13.459473 0
M  V30 55 H 8.125022 4.478352 -11.072939 0
M  V30 56 H 8.989288 5.422930 -9.806236 0
M  V30 57 H 7.280419 4.384076 -9.237593 0
M  V30 58 H 5.474153 3.976060 -7.758412 0
M  V30 59 H 2.088496 6.237243 -4.050483 0
M  V30 60 H 0.433589 5.370997 -2.333038 0
M  V30 61 H -4.442454 1.866185 -2.072915 0
M  V30 62 H -5.723492 0.596832 -0.277216 0
M  V30 63 H -3.570357 -2.427218 4.362465 0
M  V30 64 H -4.060636 -3.997839 6.067382 0
M  V30 65 H -5.548779 -6.436927 9.314147 0
M  V30 66 H -6.035017 -7.466157 7.930137 0
M  V30 67 H -4.277866 -6.287677 5.781967 0
M  V30 68 H -4.154564 -8.057247 6.224100 0
M  V30 69 H -2.135262 -6.961918 5.255530 0
M  V30 70 H -3.544451 -8.814620 8.360169 0
M  V30 71 H -3.929083 -7.678669 9.756336 0
M  V30 72 H -0.178496 -10.165095 9.531598 0
M  V30 73 H -1.967781 -10.034154 9.479420 0
M  V30 74 H -0.994592 -10.027734 7.949663 0
M  V30 75 H 1.103493 -8.410555 9.750350 0
M  V30 76 H 0.601567 -6.673779 9.419751 0
M  V30 77 H 0.957154 -7.775330 8.087055 0
M  V30 78 H -8.198544 -2.872237 5.774988 0
M  V30 79 H -7.651183 -1.212505 3.976260 0
M  V30 80 H -2.298960 0.841518 2.243392 0
M  V30 81 H -1.047454 2.025989 0.616588 0
M  V30 82 H -0.651845 2.172954 -4.976254 0
M  V30 83 H 0.951904 2.991317 -6.699711 0
M  V30 84 H 3.535129 7.560698 -8.807702 0
M  V30 85 H 5.436610 8.039023 -10.412772 0
M  V30 END ATOM
M  V30 BEGIN BOND
M  V30 1 1 1 2
M  V30 2 1 2 3
M  V30 3 2 3 4
M  V30 4 1 3 5
M  V30 5 1 5 6
M  V30 6 1 6 7
M  V30 7 2 7 8
M  V30 8 1 8 9
M  V30 9 2 9 10
M  V30 10 1 10 11
M  V30 11 3 11 12
M  V30 12 1 12 13
M  V30 13 2 13 14
M  V30 14 1 14 15
M  V30 15 2 15 16
M  V30 16 1 16 17
M  V30 17 3 17 18
M  V30 18 1 18 19
M  V30 19 2 19 20
M  V30 20 1 20 21
M  V30 21 2 21 22
M  V30 22 1 22 23
M  V30 23 3 23 24
M  V30 24 1 24 25
M  V30 25 2 25 26
M  V30 26 1 26 27
M  V30 27 2 27 28
M  V30 28 1 28 29
M  V30 29 2 29 30
M  V30 30 1 29 31
M  V30 31 1 31 32
M  V30 32 1 32 33
M  V30 33 1 33 34
M  V30 34 1 34 35
M  V30 35 1 33 36
M  V30 36 1 36 37
M  V30 37 2 37 38 CFG=2
M  V30 38 1 38 39
M  V30 39 1 38 40
M  V30 40 1 37 41
M  V30 41 2 41 42
M  V30 42 1 41 43
M  V30 43 1 28 44
M  V30 44 2 44 45
M  V30 45 1 22 46
M  V30 46 2 46 47
M  V30 47 1 16 48
M  V30 48 2 48 49
M  V30 49 1 10 50
M  V30 50 2 50 51
M  V30 51 1 51 7
M  V30 52 1 49 13
M  V30 53 1 47 19
M  V30 54 1 45 25
M  V30 55 1 43 33
M  V30 56 1 1 52
M  V30 57 1 1 53
M  V30 58 1 1 54
M  V30 59 1 5 55
M  V30 60 1 5 56
M  V30 61 1 8 57
M  V30 62 1 9 58
M  V30 63 1 14 59
M  V30 64 1 15 60
M  V30 65 1 20 61
M  V30 66 1 21 62
M  V30 67 1 26 63
M  V30 68 1 27 64
M  V30 69 1 32 65
M  V30 70 1 32 66
M  V30 71 1 34 67
M  V30 72 1 34 68
M  V30 73 1 35 69
M  V30 74 1 36 70
M  V30 75 1 36 71
M  V30 76 1 39 72
M  V30 77 1 39 73
M  V30 78 1 39 74
M  V30 79 1 40 75
M  V30 80 1 40 76
M  V30 81 1 40 77
M  V30 82 1 44 78
M  V30 83 1 45 79
M  V30 84 1 46 80
M  V30 85 1 47 81
M  V30 86 1 48 82
M  V30 87 1 49 83
M  V30 88 1 50 84
M  V30 89 1 51 85
M  V30 END BOND
M  V30 END CTAB
M  END
>  <Dataset>  (306) 
ChEMBL_Kinases

>  <Ligand_Instance>  (306) 
nan

>  <PDB_ID>  (306) 
nan

>  <Standardized_SMILES>  (306) 
COC(=O)COc1ccc(C#Cc2ccc(C#Cc3ccc(C#Cc4ccc(C(=O)OCC5(CO)CC(=C(C)C)C(=O)O5)cc4)cc3)cc2)cc1

>  <Name>  (306) 
nan

>  <Pocket>  (306) 
nan

>  <ATP_Site>  (306) 
nan

>  <Peripheral>  (306) 
nan

>  <Num_H_Atoms_ProtBoundConf>  (306) 
nan

>  <Num_Resolved_Atoms>  (306) 
nan

>  <Num_Not_Resolved_Atoms>  (306) 
nan

$$$$
CHEMBL221563
     RDKit          3D

  0  0  0  0  0  0  0  0  0  0999 V3000
M  V30 BEGIN CTAB
M  V30 COUNTS 71 73 0 0 0
M  V30 BEGIN ATOM
M  V30 1 C 2.177399 -3.095171 4.986167 0
M  V30 2 C 2.673373 -2.020534 4.093355 0
M  V30 3 C 3.841228 -1.359544 4.409003 0
M  V30 4 C 4.357154 -0.349486 3.619367 0
M  V30 5 C 3.723963 0.056649 2.458038 0
M  V30 6 C 4.323661 1.125560 1.667165 0
M  V30 7 O 5.305645 1.741313 2.149727 0
M  V30 8 N 3.776578 1.421070 0.392805 0
M  V30 9 C 4.380202 2.478107 -0.380051 0
M  V30 10 C 5.163474 1.772980 -1.502172 0
M  V30 11 C 3.433103 3.425797 -1.026615 0
M  V30 12 C 2.533969 -0.589139 2.103362 0
M  V30 13 C 2.100240 -1.565429 2.930270 0
M  V30 14 N 0.889143 -2.223365 2.528273 0
M  V30 15 C -0.126273 -2.178292 1.543299 0
M  V30 16 N 0.240607 -2.678009 0.375477 0
M  V30 17 C -0.610698 -2.720687 -0.664627 0
M  V30 18 N -0.306012 -3.230402 -1.956843 0
M  V30 19 C -1.149505 -3.308476 -3.111428 0 CFG=1
M  V30 20 C -2.384859 -4.174981 -2.863889 0
M  V30 21 C -3.232806 -3.760400 -4.048229 0
M  V30 22 N -3.067113 -2.342164 -4.091089 0
M  V30 23 C -1.773498 -2.011841 -3.528592 0
M  V30 24 N -1.836196 -2.249848 -0.496561 0
M  V30 25 C -2.243487 -1.737226 0.669579 0
M  V30 26 N -3.484752 -1.196708 1.141659 0
M  V30 27 C -4.264415 -2.198510 1.874310 0
M  V30 28 C -4.254707 0.005893 1.155117 0
M  V30 29 C -3.661534 1.172646 0.434106 0
M  V30 30 C -4.633302 2.332655 0.588957 0
M  V30 31 C -2.319279 1.545472 0.972515 0
M  V30 32 C -3.541998 0.929839 -1.060043 0
M  V30 33 N -1.374428 -1.702500 1.699013 0
M  V30 34 H 2.580680 -4.067211 4.639616 0
M  V30 35 H 2.468963 -2.833409 6.024741 0
M  V30 36 H 1.081771 -3.176322 4.980495 0
M  V30 37 H 4.386954 -1.635135 5.313107 0
M  V30 38 H 5.293997 0.122488 3.946695 0
M  V30 39 H 2.967129 0.949373 -0.063338 0
M  V30 40 H 5.158863 3.052913 0.166198 0
M  V30 41 H 6.008710 2.378444 -1.863590 0
M  V30 42 H 5.613995 0.812121 -1.129449 0
M  V30 43 H 4.526208 1.508216 -2.359087 0
M  V30 44 H 3.065624 4.227087 -0.351870 0
M  V30 45 H 2.567824 2.833050 -1.439191 0
M  V30 46 H 3.931075 3.924075 -1.880223 0
M  V30 47 H 2.012631 -0.299273 1.211693 0
M  V30 48 H 0.486234 -3.050171 3.052815 0
M  V30 49 H 0.694830 -3.592877 -2.027286 0
M  V30 50 H -0.608179 -3.743817 -3.949125 0
M  V30 51 H -2.919726 -3.873878 -1.962260 0
M  V30 52 H -2.081506 -5.227219 -2.909050 0
M  V30 53 H -4.269431 -4.080019 -3.814431 0
M  V30 54 H -2.902863 -4.277269 -4.988468 0
M  V30 55 H -3.843996 -1.891934 -3.537680 0
M  V30 56 H -1.186565 -1.481654 -4.299730 0
M  V30 57 H -1.880061 -1.272118 -2.691915 0
M  V30 58 H -5.295340 -2.298049 1.478665 0
M  V30 59 H -4.349729 -1.799369 2.926263 0
M  V30 60 H -3.808034 -3.178529 1.926249 0
M  V30 61 H -5.294827 -0.178020 0.789635 0
M  V30 62 H -4.353036 0.327826 2.230424 0
M  V30 63 H -4.674447 2.944048 -0.351112 0
M  V30 64 H -4.331097 3.011092 1.396517 0
M  V30 65 H -5.650801 1.925023 0.784342 0
M  V30 66 H -2.159488 2.632649 0.892033 0
M  V30 67 H -2.172706 1.202193 2.040581 0
M  V30 68 H -1.564616 1.020986 0.312031 0
M  V30 69 H -4.403473 1.383978 -1.604726 0
M  V30 70 H -2.626535 1.401891 -1.450794 0
M  V30 71 H -3.486636 -0.145881 -1.230602 0
M  V30 END ATOM
M  V30 BEGIN BOND
M  V30 1 1 1 2
M  V30 2 2 2 3
M  V30 3 1 3 4
M  V30 4 2 4 5
M  V30 5 1 5 6
M  V30 6 2 6 7
M  V30 7 1 6 8
M  V30 8 1 8 9
M  V30 9 1 9 10
M  V30 10 1 9 11
M  V30 11 1 5 12
M  V30 12 2 12 13
M  V30 13 1 13 14
M  V30 14 1 14 15
M  V30 15 2 15 16
M  V30 16 1 16 17
M  V30 17 1 17 18
M  V30 18 1 18 19
M  V30 19 1 19 20
M  V30 20 1 20 21
M  V30 21 1 21 22
M  V30 22 1 22 23
M  V30 23 2 17 24
M  V30 24 1 24 25
M  V30 25 1 25 26
M  V30 26 1 26 27
M  V30 27 1 26 28
M  V30 28 1 28 29
M  V30 29 1 29 30
M  V30 30 1 29 31
M  V30 31 1 29 32
M  V30 32 2 25 33
M  V30 33 1 13 2
M  V30 34 1 33 15
M  V30 35 1 23 19
M  V30 36 1 1 34
M  V30 37 1 1 35
M  V30 38 1 1 36
M  V30 39 1 3 37
M  V30 40 1 4 38
M  V30 41 1 8 39
M  V30 42 1 9 40
M  V30 43 1 10 41
M  V30 44 1 10 42
M  V30 45 1 10 43
M  V30 46 1 11 44
M  V30 47 1 11 45
M  V30 48 1 11 46
M  V30 49 1 12 47
M  V30 50 1 14 48
M  V30 51 1 18 49
M  V30 52 1 19 50 CFG=3
M  V30 53 1 20 51
M  V30 54 1 20 52
M  V30 55 1 21 53
M  V30 56 1 21 54
M  V30 57 1 22 55
M  V30 58 1 23 56
M  V30 59 1 23 57
M  V30 60 1 27 58
M  V30 61 1 27 59
M  V30 62 1 27 60
M  V30 63 1 28 61
M  V30 64 1 28 62
M  V30 65 1 30 63
M  V30 66 1 30 64
M  V30 67 1 30 65
M  V30 68 1 31 66
M  V30 69 1 31 67
M  V30 70 1 31 68
M  V30 71 1 32 69
M  V30 72 1 32 70
M  V30 73 1 32 71
M  V30 END BOND
M  V30 END CTAB
M  END
>  <Dataset>  (307) 
ChEMBL_Kinases

>  <Ligand_Instance>  (307) 
nan

>  <PDB_ID>  (307) 
nan

>  <Standardized_SMILES>  (307) 
Cc1ccc(C(=O)NC(C)C)cc1Nc1nc(N[C@H]2CCNC2)nc(N(C)CC(C)(C)C)n1

>  <Name>  (307) 
nan

>  <Pocket>  (307) 
nan

>  <ATP_Site>  (307) 
nan

>  <Peripheral>  (307) 
nan

>  <Num_H_Atoms_ProtBoundConf>  (307) 
nan

>  <Num_Resolved_Atoms>  (307) 
nan

>  <Num_Not_Resolved_Atoms>  (307) 
nan

$$$$
CHEMBL221330
     RDKit          3D

  0  0  0  0  0  0  0  0  0  0999 V3000
M  V30 BEGIN CTAB
M  V30 COUNTS 51 54 0 0 0
M  V30 BEGIN ATOM
M  V30 1 N 2.525844 -6.726228 0.868382 0
M  V30 2 C 2.578509 -5.639106 0.460486 0
M  V30 3 C 2.633581 -4.284359 -0.061380 0
M  V30 4 C 3.641272 -3.941206 -0.962248 0
M  V30 5 N 3.675327 -2.678298 -1.435412 0
M  V30 6 C 2.784857 -1.732681 -1.081049 0
M  V30 7 C 2.836929 -0.434823 -1.580240 0
M  V30 8 C 1.888631 0.501271 -1.177566 0
M  V30 9 C 0.880835 0.194338 -0.289355 0
M  V30 10 N -0.077748 1.165731 0.109286 0
M  V30 11 C 0.032145 2.510723 -0.450057 0
M  V30 12 C -1.097312 3.327596 0.136023 0
M  V30 13 N -0.979544 3.359232 1.534452 0
M  V30 14 C 0.082701 4.064350 2.138842 0
M  V30 15 C 0.538542 3.222921 3.343974 0
M  V30 16 O -0.598563 3.072401 4.144408 0
M  V30 17 C -1.534611 2.262920 3.547016 0
M  V30 18 C -2.094972 3.016557 2.332498 0
M  V30 19 C 0.834721 -1.093004 0.201469 0
M  V30 20 C 1.761367 -2.042892 -0.179588 0
M  V30 21 C 1.697147 -3.341179 0.329404 0
M  V30 22 N 0.662678 -3.672366 1.247271 0
M  V30 23 C -0.549806 -4.163300 0.688008 0
M  V30 24 C -0.713393 -4.308160 -0.685493 0
M  V30 25 C -1.886022 -4.785952 -1.268613 0
M  V30 26 C -2.945781 -5.136715 -0.457255 0
M  V30 27 F -4.051345 -5.592247 -1.095513 0
M  V30 28 C -2.817476 -5.005298 0.912251 0
M  V30 29 Cl -4.194677 -5.465149 1.902628 0
M  V30 30 C -1.644333 -4.528920 1.467847 0
M  V30 31 H 4.398235 -4.656365 -1.295097 0
M  V30 32 H 3.614949 -0.154009 -2.281088 0
M  V30 33 H 1.989038 1.481086 -1.601844 0
M  V30 34 H -0.822664 0.892909 0.781271 0
M  V30 35 H 0.982604 2.963868 -0.134896 0
M  V30 36 H -0.003803 2.487063 -1.559282 0
M  V30 37 H -1.159616 4.331632 -0.349958 0
M  V30 38 H -2.087982 2.852847 -0.123325 0
M  V30 39 H -0.204859 5.065378 2.537763 0
M  V30 40 H 0.910682 4.205566 1.435914 0
M  V30 41 H 0.820029 2.209798 2.984924 0
M  V30 42 H 1.346920 3.722309 3.873868 0
M  V30 43 H -2.372753 2.069010 4.215175 0
M  V30 44 H -1.058332 1.353240 3.136432 0
M  V30 45 H -2.655596 3.899915 2.717080 0
M  V30 46 H -2.734427 2.314834 1.748085 0
M  V30 47 H 0.061968 -1.372165 0.897881 0
M  V30 48 H 0.733840 -3.581451 2.267609 0
M  V30 49 H 0.100353 -4.041007 -1.341411 0
M  V30 50 H -1.926467 -4.867213 -2.363726 0
M  V30 51 H -1.553919 -4.430109 2.538808 0
M  V30 END ATOM
M  V30 BEGIN BOND
M  V30 1 3 1 2
M  V30 2 1 2 3
M  V30 3 2 3 4
M  V30 4 1 4 5
M  V30 5 2 5 6
M  V30 6 1 6 7
M  V30 7 2 7 8
M  V30 8 1 8 9
M  V30 9 1 9 10
M  V30 10 1 10 11
M  V30 11 1 11 12
M  V30 12 1 12 13
M  V30 13 1 13 14
M  V30 14 1 14 15
M  V30 15 1 15 16
M  V30 16 1 16 17
M  V30 17 1 17 18
M  V30 18 2 9 19
M  V30 19 1 19 20
M  V30 20 2 20 21
M  V30 21 1 21 22
M  V30 22 1 22 23
M  V30 23 2 23 24
M  V30 24 1 24 25
M  V30 25 2 25 26
M  V30 26 1 26 27
M  V30 27 1 26 28
M  V30 28 1 28 29
M  V30 29 2 28 30
M  V30 30 1 21 3
M  V30 31 1 30 23
M  V30 32 1 20 6
M  V30 33 1 18 13
M  V30 34 1 4 31
M  V30 35 1 7 32
M  V30 36 1 8 33
M  V30 37 1 10 34
M  V30 38 1 11 35
M  V30 39 1 11 36
M  V30 40 1 12 37
M  V30 41 1 12 38
M  V30 42 1 14 39
M  V30 43 1 14 40
M  V30 44 1 15 41
M  V30 45 1 15 42
M  V30 46 1 17 43
M  V30 47 1 17 44
M  V30 48 1 18 45
M  V30 49 1 18 46
M  V30 50 1 19 47
M  V30 51 1 22 48
M  V30 52 1 24 49
M  V30 53 1 25 50
M  V30 54 1 30 51
M  V30 END BOND
M  V30 END CTAB
M  END
>  <Dataset>  (308) 
ChEMBL_Kinases

>  <Ligand_Instance>  (308) 
nan

>  <PDB_ID>  (308) 
nan

>  <Standardized_SMILES>  (308) 
N#Cc1cnc2ccc(NCCN3CCOCC3)cc2c1Nc1ccc(F)c(Cl)c1

>  <Name>  (308) 
nan

>  <Pocket>  (308) 
nan

>  <ATP_Site>  (308) 
nan

>  <Peripheral>  (308) 
nan

>  <Num_H_Atoms_ProtBoundConf>  (308) 
nan

>  <Num_Resolved_Atoms>  (308) 
nan

>  <Num_Not_Resolved_Atoms>  (308) 
nan

$$$$
CHEMBL221332
     RDKit          3D

  0  0  0  0  0  0  0  0  0  0999 V3000
M  V30 BEGIN CTAB
M  V30 COUNTS 67 70 0 0 0
M  V30 BEGIN ATOM
M  V30 1 C 14.178811 2.010791 5.030508 0
M  V30 2 O 13.096160 2.902459 4.951837 0
M  V30 3 C 11.841447 2.567984 4.487546 0
M  V30 4 C 11.299462 1.396352 4.006703 0
M  V30 5 C 9.982783 1.349567 3.602542 0
M  V30 6 C 9.177412 2.467431 3.668102 0
M  V30 7 C 7.823171 2.299357 3.220649 0
M  V30 8 C 6.679078 2.141232 2.856280 0
M  V30 9 C 5.328508 1.932196 2.414063 0
M  V30 10 C 4.877428 2.315902 1.163624 0
M  V30 11 C 3.551048 2.085516 0.789210 0
M  V30 12 C 2.694655 1.466493 1.690722 0
M  V30 13 C 1.312886 1.188247 1.393046 0
M  V30 14 C 0.157643 0.936833 1.135631 0
M  V30 15 C -1.209551 0.614268 0.831286 0
M  V30 16 C -2.254079 1.294887 1.468905 0
M  V30 17 C -3.544310 0.936848 1.132554 0
M  V30 18 C -3.897585 -0.030123 0.225699 0
M  V30 19 C -5.282022 -0.360153 -0.082734 0
M  V30 20 O -6.193415 0.271927 0.510730 0
M  V30 21 O -5.557766 -1.348488 -1.008771 0
M  V30 22 C -6.866699 -1.743443 -1.376554 0
M  V30 23 C -6.724502 -2.841269 -2.407597 0
M  V30 24 C -6.033263 -2.336776 -3.654236 0
M  V30 25 O -4.740698 -1.900550 -3.332397 0
M  V30 26 C -8.065277 -3.426539 -2.782073 0
M  V30 27 C -7.866800 -4.911329 -2.674773 0
M  V30 28 C -8.802843 -5.839535 -2.786510 0
M  V30 29 C -8.657991 -7.315524 -2.688796 0
M  V30 30 C -10.208532 -5.415743 -3.043748 0
M  V30 31 C -6.443056 -5.102141 -2.423762 0
M  V30 32 O -5.780591 -6.125039 -2.689493 0
M  V30 33 O -6.012402 -3.918570 -1.839475 0
M  V30 34 C -2.857395 -0.707516 -0.408932 0
M  V30 35 C -1.564693 -0.357594 -0.080187 0
M  V30 36 C 3.164620 1.090224 2.936520 0
M  V30 37 C 4.473264 1.307878 3.329247 0
M  V30 38 C 9.685114 3.658250 4.143895 0
M  V30 39 C 11.025182 3.694285 4.552121 0
M  V30 40 H 14.981426 2.329961 4.318433 0
M  V30 41 H 14.573385 1.920241 6.063493 0
M  V30 42 H 13.837577 1.015216 4.696079 0
M  V30 43 H 12.005144 0.594194 3.997599 0
M  V30 44 H 9.641525 0.382496 3.237325 0
M  V30 45 H 5.561954 2.794879 0.481758 0
M  V30 46 H 3.166147 2.372356 -0.179741 0
M  V30 47 H -2.053603 2.070988 2.196720 0
M  V30 48 H -4.352615 1.482815 1.644615 0
M  V30 49 H -7.479650 -2.111096 -0.542138 0
M  V30 50 H -7.410942 -0.899169 -1.870486 0
M  V30 51 H -6.648150 -1.497816 -4.063780 0
M  V30 52 H -6.030478 -3.182268 -4.369134 0
M  V30 53 H -4.446300 -1.202242 -3.994194 0
M  V30 54 H -8.869676 -3.083850 -2.097862 0
M  V30 55 H -8.330592 -3.128799 -3.812240 0
M  V30 56 H -9.051118 -7.578084 -1.667190 0
M  V30 57 H -9.304367 -7.829287 -3.437770 0
M  V30 58 H -7.607256 -7.573114 -2.832148 0
M  V30 59 H -10.667409 -6.074298 -3.800421 0
M  V30 60 H -10.298390 -4.383177 -3.380852 0
M  V30 61 H -10.753150 -5.605787 -2.080974 0
M  V30 62 H -3.090914 -1.463864 -1.118635 0
M  V30 63 H -0.766215 -0.908259 -0.595579 0
M  V30 64 H 2.510076 0.605417 3.654607 0
M  V30 65 H 4.821360 1.000607 4.320436 0
M  V30 66 H 9.008793 4.501002 4.172537 0
M  V30 67 H 11.278999 4.702129 4.902938 0
M  V30 END ATOM
M  V30 BEGIN BOND
M  V30 1 1 1 2
M  V30 2 1 2 3
M  V30 3 2 3 4
M  V30 4 1 4 5
M  V30 5 2 5 6
M  V30 6 1 6 7
M  V30 7 3 7 8
M  V30 8 1 8 9
M  V30 9 2 9 10
M  V30 10 1 10 11
M  V30 11 2 11 12
M  V30 12 1 12 13
M  V30 13 3 13 14
M  V30 14 1 14 15
M  V30 15 2 15 16
M  V30 16 1 16 17
M  V30 17 2 17 18
M  V30 18 1 18 19
M  V30 19 2 19 20
M  V30 20 1 19 21
M  V30 21 1 21 22
M  V30 22 1 22 23
M  V30 23 1 23 24
M  V30 24 1 24 25
M  V30 25 1 23 26
M  V30 26 1 26 27
M  V30 27 2 27 28 CFG=2
M  V30 28 1 28 29
M  V30 29 1 28 30
M  V30 30 1 27 31
M  V30 31 2 31 32
M  V30 32 1 31 33
M  V30 33 1 18 34
M  V30 34 2 34 35
M  V30 35 1 12 36
M  V30 36 2 36 37
M  V30 37 1 6 38
M  V30 38 2 38 39
M  V30 39 1 39 3
M  V30 40 1 37 9
M  V30 41 1 35 15
M  V30 42 1 33 23
M  V30 43 1 1 40
M  V30 44 1 1 41
M  V30 45 1 1 42
M  V30 46 1 4 43
M  V30 47 1 5 44
M  V30 48 1 10 45
M  V30 49 1 11 46
M  V30 50 1 16 47
M  V30 51 1 17 48
M  V30 52 1 22 49
M  V30 53 1 22 50
M  V30 54 1 24 51
M  V30 55 1 24 52
M  V30 56 1 25 53
M  V30 57 1 26 54
M  V30 58 1 26 55
M  V30 59 1 29 56
M  V30 60 1 29 57
M  V30 61 1 29 58
M  V30 62 1 30 59
M  V30 63 1 30 60
M  V30 64 1 30 61
M  V30 65 1 34 62
M  V30 66 1 35 63
M  V30 67 1 36 64
M  V30 68 1 37 65
M  V30 69 1 38 66
M  V30 70 1 39 67
M  V30 END BOND
M  V30 END CTAB
M  END
>  <Dataset>  (309) 
ChEMBL_Kinases

>  <Ligand_Instance>  (309) 
nan

>  <PDB_ID>  (309) 
nan

>  <Standardized_SMILES>  (309) 
COc1ccc(C#Cc2ccc(C#Cc3ccc(C(=O)OCC4(CO)CC(=C(C)C)C(=O)O4)cc3)cc2)cc1

>  <Name>  (309) 
nan

>  <Pocket>  (309) 
nan

>  <ATP_Site>  (309) 
nan

>  <Peripheral>  (309) 
nan

>  <Num_H_Atoms_ProtBoundConf>  (309) 
nan

>  <Num_Resolved_Atoms>  (309) 
nan

>  <Num_Not_Resolved_Atoms>  (309) 
nan

$$$$
CHEMBL221358
     RDKit          3D

  0  0  0  0  0  0  0  0  0  0999 V3000
M  V30 BEGIN CTAB
M  V30 COUNTS 72 74 0 0 0
M  V30 BEGIN ATOM
M  V30 1 C 5.342468 -3.951206 3.533500 0
M  V30 2 O 4.358610 -3.252955 4.196707 0
M  V30 3 C 3.779231 -2.283380 3.429155 0
M  V30 4 C 4.707396 -1.200277 2.933699 0
M  V30 5 N 3.873384 -0.293373 2.157200 0
M  V30 6 C 4.399414 0.882349 1.553000 0
M  V30 7 O 5.623058 1.130879 1.706128 0
M  V30 8 C 3.579558 1.819510 0.762244 0
M  V30 9 C 4.215376 3.027996 0.484712 0
M  V30 10 C 3.510394 3.959780 -0.245440 0
M  V30 11 C 2.210003 3.758399 -0.715100 0
M  V30 12 C 1.474257 4.776700 -1.505753 0
M  V30 13 C 1.651437 2.521770 -0.392412 0
M  V30 14 N 0.322104 2.287477 -0.849358 0
M  V30 15 C -0.386907 1.039407 -0.730699 0
M  V30 16 N -0.210942 0.429543 -1.893626 0
M  V30 17 C -0.750872 -0.800319 -2.132439 0
M  V30 18 N -0.569208 -1.487264 -3.373945 0
M  V30 19 C -1.114405 -2.798717 -3.702669 0 CFG=1
M  V30 20 C -0.622028 -3.832549 -2.730382 0
M  V30 21 C -1.882239 -4.603423 -2.379301 0
M  V30 22 N -2.993998 -3.742613 -2.639367 0
M  V30 23 C -2.614796 -2.788369 -3.650076 0
M  V30 24 N -1.447171 -1.300920 -1.108209 0
M  V30 25 C -1.637222 -0.699827 0.075937 0
M  V30 26 N -2.392849 -1.401113 1.028794 0
M  V30 27 C -1.595584 -2.486165 1.638907 0
M  V30 28 C -3.676504 -1.442609 1.632790 0
M  V30 29 C -4.686973 -0.426791 1.265118 0
M  V30 30 C -4.264154 0.997293 1.566247 0
M  V30 31 C -5.337166 -0.586493 -0.070337 0
M  V30 32 C -5.842725 -0.700182 2.260052 0
M  V30 33 N -1.090134 0.513012 0.278449 0
M  V30 34 C 2.300504 1.570606 0.322507 0
M  V30 35 H 6.168574 -3.295670 3.215794 0
M  V30 36 H 5.736149 -4.719162 4.257702 0
M  V30 37 H 4.896802 -4.474434 2.637649 0
M  V30 38 H 2.972122 -1.728696 3.996615 0
M  V30 39 H 3.230372 -2.732930 2.550151 0
M  V30 40 H 5.486324 -1.667379 2.304616 0
M  V30 41 H 5.203018 -0.687739 3.769791 0
M  V30 42 H 2.844929 -0.433309 1.987950 0
M  V30 43 H 5.212470 3.293244 0.793261 0
M  V30 44 H 3.944888 4.920037 -0.499059 0
M  V30 45 H 1.310262 4.383586 -2.535438 0
M  V30 46 H 0.482146 4.941522 -1.048104 0
M  V30 47 H 2.067940 5.694211 -1.525453 0
M  V30 48 H -0.251948 3.024241 -1.317982 0
M  V30 49 H 0.005678 -0.984496 -4.084643 0
M  V30 50 H -0.811310 -3.062280 -4.745250 0
M  V30 51 H -0.202903 -3.305943 -1.825835 0
M  V30 52 H 0.157631 -4.483609 -3.185230 0
M  V30 53 H -1.858852 -4.817422 -1.282578 0
M  V30 54 H -1.903685 -5.528061 -2.987185 0
M  V30 55 H -3.430481 -3.350117 -1.798304 0
M  V30 56 H -3.097687 -3.058707 -4.607942 0
M  V30 57 H -2.990134 -1.785068 -3.297488 0
M  V30 58 H -0.585590 -2.564596 1.248383 0
M  V30 59 H -1.642173 -2.414715 2.738191 0
M  V30 60 H -2.148210 -3.430591 1.359220 0
M  V30 61 H -4.143193 -2.445059 1.520995 0
M  V30 62 H -3.534174 -1.343403 2.752363 0
M  V30 63 H -4.073641 1.592427 0.653878 0
M  V30 64 H -3.385037 0.986982 2.273524 0
M  V30 65 H -5.049899 1.574663 2.127926 0
M  V30 66 H -5.257613 -1.591825 -0.498512 0
M  V30 67 H -6.414321 -0.318230 -0.064125 0
M  V30 68 H -4.856024 0.121955 -0.773132 0
M  V30 69 H -5.490039 -0.516318 3.299341 0
M  V30 70 H -6.759813 -0.179230 1.979262 0
M  V30 71 H -6.041905 -1.792066 2.209443 0
M  V30 72 H 1.860282 0.623877 0.564807 0
M  V30 END ATOM
M  V30 BEGIN BOND
M  V30 1 1 1 2
M  V30 2 1 2 3
M  V30 3 1 3 4
M  V30 4 1 4 5
M  V30 5 1 5 6
M  V30 6 2 6 7
M  V30 7 1 6 8
M  V30 8 2 8 9
M  V30 9 1 9 10
M  V30 10 2 10 11
M  V30 11 1 11 12
M  V30 12 1 11 13
M  V30 13 1 13 14
M  V30 14 1 14 15
M  V30 15 2 15 16
M  V30 16 1 16 17
M  V30 17 1 17 18
M  V30 18 1 18 19
M  V30 19 1 19 20
M  V30 20 1 20 21
M  V30 21 1 21 22
M  V30 22 1 22 23
M  V30 23 2 17 24
M  V30 24 1 24 25
M  V30 25 1 25 26
M  V30 26 1 26 27
M  V30 27 1 26 28
M  V30 28 1 28 29
M  V30 29 1 29 30
M  V30 30 1 29 31
M  V30 31 1 29 32
M  V30 32 2 25 33
M  V30 33 2 13 34
M  V30 34 1 34 8
M  V30 35 1 33 15
M  V30 36 1 23 19
M  V30 37 1 1 35
M  V30 38 1 1 36
M  V30 39 1 1 37
M  V30 40 1 3 38
M  V30 41 1 3 39
M  V30 42 1 4 40
M  V30 43 1 4 41
M  V30 44 1 5 42
M  V30 45 1 9 43
M  V30 46 1 10 44
M  V30 47 1 12 45
M  V30 48 1 12 46
M  V30 49 1 12 47
M  V30 50 1 14 48
M  V30 51 1 18 49
M  V30 52 1 19 50 CFG=3
M  V30 53 1 20 51
M  V30 54 1 20 52
M  V30 55 1 21 53
M  V30 56 1 21 54
M  V30 57 1 22 55
M  V30 58 1 23 56
M  V30 59 1 23 57
M  V30 60 1 27 58
M  V30 61 1 27 59
M  V30 62 1 27 60
M  V30 63 1 28 61
M  V30 64 1 28 62
M  V30 65 1 30 63
M  V30 66 1 30 64
M  V30 67 1 30 65
M  V30 68 1 31 66
M  V30 69 1 31 67
M  V30 70 1 31 68
M  V30 71 1 32 69
M  V30 72 1 32 70
M  V30 73 1 32 71
M  V30 74 1 34 72
M  V30 END BOND
M  V30 END CTAB
M  END
>  <Dataset>  (310) 
ChEMBL_Kinases

>  <Ligand_Instance>  (310) 
nan

>  <PDB_ID>  (310) 
nan

>  <Standardized_SMILES>  (310) 
COCCNC(=O)c1ccc(C)c(Nc2nc(N[C@H]3CCNC3)nc(N(C)CC(C)(C)C)n2)c1

>  <Name>  (310) 
nan

>  <Pocket>  (310) 
nan

>  <ATP_Site>  (310) 
nan

>  <Peripheral>  (310) 
nan

>  <Num_H_Atoms_ProtBoundConf>  (310) 
nan

>  <Num_Resolved_Atoms>  (310) 
nan

>  <Num_Not_Resolved_Atoms>  (310) 
nan

$$$$
CHEMBL221448
     RDKit          3D

  0  0  0  0  0  0  0  0  0  0999 V3000
M  V30 BEGIN CTAB
M  V30 COUNTS 54 58 0 0 0
M  V30 BEGIN ATOM
M  V30 1 N 6.360030 -6.488042 -0.502553 0
M  V30 2 C 7.101907 -5.291911 -0.712127 0
M  V30 3 O 8.321569 -5.422472 -1.016317 0
M  V30 4 C 6.500312 -3.969397 -0.586294 0
M  V30 5 C 7.333098 -2.882711 -0.816696 0
M  V30 6 C 6.787345 -1.640902 -0.703353 0
M  V30 7 C 5.460171 -1.507346 -0.372110 0
M  V30 8 N 4.879193 -0.292707 -0.249418 0
M  V30 9 C 3.584190 -0.103848 0.072636 0
M  V30 10 O 3.140132 1.053353 0.162001 0
M  V30 11 C 2.736265 -1.164529 0.306349 0
M  V30 12 C 1.328738 -1.048149 0.658053 0
M  V30 13 C 0.569636 0.088916 0.826687 0
M  V30 14 C -0.727776 -0.252167 1.159606 0
M  V30 15 C -1.884908 0.446114 1.436924 0
M  V30 16 C -3.062724 -0.199338 1.745738 0
M  V30 17 C -4.325098 0.485014 2.049663 0
M  V30 18 N -5.165590 0.742847 0.914501 0
M  V30 19 C -4.528189 1.575446 -0.077689 0
M  V30 20 C -4.557599 3.006943 0.366677 0
M  V30 21 C -6.013315 3.454905 0.181336 0
M  V30 22 C -6.981390 2.370969 0.552156 0
M  V30 23 C -6.415732 1.271787 1.382038 0
M  V30 24 C -3.057913 -1.596913 1.771876 0
M  V30 25 C -1.898235 -2.281942 1.493658 0
M  V30 26 C -0.730321 -1.616837 1.186949 0
M  V30 27 N 0.491793 -2.072781 0.888554 0
M  V30 28 C 3.316294 -2.409709 0.184487 0
M  V30 29 C 4.644123 -2.609430 -0.145617 0
M  V30 30 C 5.162520 -3.887429 -0.251383 0
M  V30 31 H 6.316567 -6.423337 0.553142 0
M  V30 32 H 5.914907 -7.287056 -1.006507 0
M  V30 33 H 8.367206 -3.033531 -1.073896 0
M  V30 34 H 7.361008 -0.732482 -0.865139 0
M  V30 35 H 5.469088 0.564281 -0.414297 0
M  V30 36 H 0.889022 1.114634 0.726301 0
M  V30 37 H -1.861604 1.516016 1.410186 0
M  V30 38 H -4.097267 1.437769 2.610991 0
M  V30 39 H -4.953768 -0.090920 2.776807 0
M  V30 40 H -5.089300 1.523033 -1.031150 0
M  V30 41 H -3.525425 1.175826 -0.285198 0
M  V30 42 H -4.342289 3.149349 1.441739 0
M  V30 43 H -3.904834 3.617419 -0.286358 0
M  V30 44 H -6.211863 4.435398 0.627848 0
M  V30 45 H -6.124345 3.609765 -0.931948 0
M  V30 46 H -7.554014 1.965901 -0.332470 0
M  V30 47 H -7.789752 2.853663 1.168807 0
M  V30 48 H -7.143515 0.414919 1.322148 0
M  V30 49 H -6.363105 1.535195 2.454053 0
M  V30 50 H -3.966848 -2.134480 2.010967 0
M  V30 51 H -1.910015 -3.351088 1.517541 0
M  V30 52 H 0.756745 -3.072884 0.841511 0
M  V30 53 H 2.731687 -3.316194 0.348990 0
M  V30 54 H 4.554151 -4.752379 -0.081704 0
M  V30 END ATOM
M  V30 BEGIN BOND
M  V30 1 1 1 2
M  V30 2 2 2 3
M  V30 3 1 2 4
M  V30 4 2 4 5
M  V30 5 1 5 6
M  V30 6 2 6 7
M  V30 7 1 7 8
M  V30 8 1 8 9
M  V30 9 2 9 10
M  V30 10 1 9 11
M  V30 11 1 11 12
M  V30 12 2 12 13
M  V30 13 1 13 14
M  V30 14 2 14 15
M  V30 15 1 15 16
M  V30 16 1 16 17
M  V30 17 1 17 18
M  V30 18 1 18 19
M  V30 19 1 19 20
M  V30 20 1 20 21
M  V30 21 1 21 22
M  V30 22 1 22 23
M  V30 23 2 16 24
M  V30 24 1 24 25
M  V30 25 2 25 26
M  V30 26 1 26 27
M  V30 27 2 11 28
M  V30 28 1 28 29
M  V30 29 2 29 30
M  V30 30 1 30 4
M  V30 31 1 29 7
M  V30 32 1 27 12
M  V30 33 1 26 14
M  V30 34 1 23 18
M  V30 35 1 1 31
M  V30 36 1 1 32
M  V30 37 1 5 33
M  V30 38 1 6 34
M  V30 39 1 8 35
M  V30 40 1 13 36
M  V30 41 1 15 37
M  V30 42 1 17 38
M  V30 43 1 17 39
M  V30 44 1 19 40
M  V30 45 1 19 41
M  V30 46 1 20 42
M  V30 47 1 20 43
M  V30 48 1 21 44
M  V30 49 1 21 45
M  V30 50 1 22 46
M  V30 51 1 22 47
M  V30 52 1 23 48
M  V30 53 1 23 49
M  V30 54 1 24 50
M  V30 55 1 25 51
M  V30 56 1 27 52
M  V30 57 1 28 53
M  V30 58 1 30 54
M  V30 END BOND
M  V30 END CTAB
M  END
>  <Dataset>  (311) 
ChEMBL_Kinases

>  <Ligand_Instance>  (311) 
nan

>  <PDB_ID>  (311) 
nan

>  <Standardized_SMILES>  (311) 
NC(=O)c1ccc2[nH]c(=O)c(-c3cc4cc(CN5CCCCC5)ccc4[nH]3)cc2c1

>  <Name>  (311) 
nan

>  <Pocket>  (311) 
nan

>  <ATP_Site>  (311) 
nan

>  <Peripheral>  (311) 
nan

>  <Num_H_Atoms_ProtBoundConf>  (311) 
nan

>  <Num_Resolved_Atoms>  (311) 
nan

>  <Num_Not_Resolved_Atoms>  (311) 
nan

$$$$
CHEMBL221496
     RDKit          3D

  0  0  0  0  0  0  0  0  0  0999 V3000
M  V30 BEGIN CTAB
M  V30 COUNTS 57 62 0 0 0
M  V30 BEGIN ATOM
M  V30 1 O 2.324630 -4.061708 1.816093 0
M  V30 2 C 2.781123 -2.963271 1.408979 0
M  V30 3 N 4.092355 -2.672969 1.651534 0
M  V30 4 C 4.649476 -1.519817 1.247048 0
M  V30 5 C 5.976610 -1.227349 1.493189 0
M  V30 6 C 6.505954 -0.024790 1.056163 0
M  V30 7 C 5.715780 0.893302 0.371291 0
M  V30 8 C 6.241106 2.174141 -0.105560 0
M  V30 9 C 7.539412 2.625497 0.053652 0
M  V30 10 C 7.652039 3.884010 -0.533581 0
M  V30 11 N 6.427828 4.151485 -1.025331 0
M  V30 12 N 5.573549 3.150552 -0.783106 0
M  V30 13 C 4.376608 0.614008 0.115114 0
M  V30 14 C 3.881080 -0.598276 0.566878 0
M  V30 15 C 2.562126 -0.926026 0.340508 0
M  V30 16 C 1.954007 -2.097050 0.738807 0
M  V30 17 C 0.551529 -2.355268 0.453561 0
M  V30 18 C -0.280585 -1.485774 -0.219370 0
M  V30 19 C -1.540448 -2.027837 -0.322803 0
M  V30 20 C -2.735454 -1.600528 -0.884611 0
M  V30 21 C -3.900468 -2.366092 -0.850056 0
M  V30 22 C -5.122810 -1.850465 -1.463409 0
M  V30 23 N -5.981080 -1.080988 -0.626158 0
M  V30 24 C -6.502382 -1.713492 0.525537 0
M  V30 25 C -5.844080 -1.362846 1.821363 0
M  V30 26 C -4.824011 -0.274990 1.747327 0
M  V30 27 C -5.072717 0.775054 0.720603 0
M  V30 28 C -5.732863 0.302783 -0.533589 0
M  V30 29 C -3.771378 -3.584383 -0.212039 0
M  V30 30 C -2.607998 -4.055687 0.362144 0
M  V30 31 C -1.482117 -3.257475 0.300005 0
M  V30 32 N -0.217690 -3.392880 0.738471 0
M  V30 33 H 4.709016 -3.355871 2.169466 0
M  V30 34 H 6.612192 -1.923557 2.023244 0
M  V30 35 H 7.530165 0.276232 1.209001 0
M  V30 36 H 8.326829 2.102362 0.543010 0
M  V30 37 H 8.511837 4.548598 -0.608388 0
M  V30 38 H 6.096266 5.007685 -1.544828 0
M  V30 39 H 3.711368 1.291353 -0.414365 0
M  V30 40 H 1.948968 -0.193254 -0.200967 0
M  V30 41 H -0.022768 -0.503493 -0.627389 0
M  V30 42 H -2.747984 -0.621771 -1.370381 0
M  V30 43 H -5.671426 -2.716729 -1.916631 0
M  V30 44 H -4.819421 -1.208523 -2.314058 0
M  V30 45 H -7.587815 -1.431042 0.609060 0
M  V30 46 H -6.523193 -2.814909 0.354643 0
M  V30 47 H -5.319598 -2.284208 2.209644 0
M  V30 48 H -6.601758 -1.136339 2.614823 0
M  V30 49 H -3.778725 -0.694405 1.666376 0
M  V30 50 H -4.809279 0.227319 2.749939 0
M  V30 51 H -4.061946 1.206339 0.461644 0
M  V30 52 H -5.606864 1.641028 1.184719 0
M  V30 53 H -6.730118 0.831497 -0.596383 0
M  V30 54 H -5.172604 0.647337 -1.419876 0
M  V30 55 H -4.644683 -4.217962 -0.156770 0
M  V30 56 H -2.550400 -5.008359 0.848308 0
M  V30 57 H 0.074822 -4.253952 1.248596 0
M  V30 END ATOM
M  V30 BEGIN BOND
M  V30 1 2 1 2
M  V30 2 1 2 3
M  V30 3 1 3 4
M  V30 4 2 4 5
M  V30 5 1 5 6
M  V30 6 2 6 7
M  V30 7 1 7 8
M  V30 8 1 8 9
M  V30 9 2 9 10
M  V30 10 1 10 11
M  V30 11 1 11 12
M  V30 12 1 7 13
M  V30 13 2 13 14
M  V30 14 1 14 15
M  V30 15 2 15 16
M  V30 16 1 16 17
M  V30 17 2 17 18
M  V30 18 1 18 19
M  V30 19 2 19 20
M  V30 20 1 20 21
M  V30 21 1 21 22
M  V30 22 1 22 23
M  V30 23 1 23 24
M  V30 24 1 24 25
M  V30 25 1 25 26
M  V30 26 1 26 27
M  V30 27 1 27 28
M  V30 28 2 21 29
M  V30 29 1 29 30
M  V30 30 2 30 31
M  V30 31 1 31 32
M  V30 32 1 16 2
M  V30 33 1 32 17
M  V30 34 1 14 4
M  V30 35 1 31 19
M  V30 36 2 12 8
M  V30 37 1 28 23
M  V30 38 1 3 33
M  V30 39 1 5 34
M  V30 40 1 6 35
M  V30 41 1 9 36
M  V30 42 1 10 37
M  V30 43 1 11 38
M  V30 44 1 13 39
M  V30 45 1 15 40
M  V30 46 1 18 41
M  V30 47 1 20 42
M  V30 48 1 22 43
M  V30 49 1 22 44
M  V30 50 1 24 45
M  V30 51 1 24 46
M  V30 52 1 25 47
M  V30 53 1 25 48
M  V30 54 1 26 49
M  V30 55 1 26 50
M  V30 56 1 27 51
M  V30 57 1 27 52
M  V30 58 1 28 53
M  V30 59 1 28 54
M  V30 60 1 29 55
M  V30 61 1 30 56
M  V30 62 1 32 57
M  V30 END BOND
M  V30 END CTAB
M  END
>  <Dataset>  (312) 
ChEMBL_Kinases

>  <Ligand_Instance>  (312) 
nan

>  <PDB_ID>  (312) 
nan

>  <Standardized_SMILES>  (312) 
O=c1[nH]c2ccc(-c3cc[nH]n3)cc2cc1-c1cc2cc(CN3CCCCC3)ccc2[nH]1

>  <Name>  (312) 
nan

>  <Pocket>  (312) 
nan

>  <ATP_Site>  (312) 
nan

>  <Peripheral>  (312) 
nan

>  <Num_H_Atoms_ProtBoundConf>  (312) 
nan

>  <Num_Resolved_Atoms>  (312) 
nan

>  <Num_Not_Resolved_Atoms>  (312) 
nan

$$$$
CHEMBL221508
     RDKit          3D

  0  0  0  0  0  0  0  0  0  0999 V3000
M  V30 BEGIN CTAB
M  V30 COUNTS 51 53 0 0 0
M  V30 BEGIN ATOM
M  V30 1 C 5.222260 -2.958717 2.283708 0
M  V30 2 C 4.493226 -3.366140 1.393683 0
M  V30 3 C 3.621798 -3.878668 0.305248 0
M  V30 4 O 3.307299 -2.805853 -0.560162 0
M  V30 5 C 2.636530 -1.814119 0.140262 0
M  V30 6 C 2.266807 -0.613332 -0.666855 0
M  V30 7 N 1.571182 0.346617 0.141884 0
M  V30 8 C 2.052857 1.346639 0.904127 0
M  V30 9 S 3.803903 1.660082 1.065881 0
M  V30 10 C 4.009665 3.075988 2.170132 0
M  V30 11 N 1.005695 2.002420 1.470588 0
M  V30 12 C -0.146192 1.395802 1.049971 0
M  V30 13 C -1.403721 1.951483 1.544114 0
M  V30 14 C -1.636324 3.290820 1.209976 0
M  V30 15 C -2.799289 3.946802 1.617105 0
M  V30 16 C -3.741049 3.270254 2.361915 0
M  V30 17 F -4.875006 3.903350 2.761352 0
M  V30 18 C -3.490878 1.959835 2.676616 0
M  V30 19 C -2.364694 1.287099 2.295401 0
M  V30 20 C 0.208289 0.336993 0.200739 0
M  V30 21 C -0.861986 -0.444420 -0.376051 0
M  V30 22 C -1.656886 0.289447 -1.258451 0
M  V30 23 C -2.706481 -0.358012 -1.866012 0
M  V30 24 N -2.944145 -1.630095 -1.615472 0
M  V30 25 C -2.224614 -2.397788 -0.781026 0
M  V30 26 N -2.575095 -3.729595 -0.603705 0
M  V30 27 C -2.023549 -4.755019 0.189104 0
M  V30 28 C -2.488742 -6.138699 0.290392 0
M  V30 29 O -1.023837 -4.458513 0.887826 0
M  V30 30 C -1.192291 -1.765889 -0.181330 0
M  V30 31 H 5.842052 -2.612227 3.067467 0
M  V30 32 H 2.663129 -4.255093 0.703440 0
M  V30 33 H 4.195133 -4.654289 -0.213029 0
M  V30 34 H 1.814811 -2.226010 0.750173 0
M  V30 35 H 3.374153 -1.440457 0.914702 0
M  V30 36 H 3.249319 -0.137427 -0.960742 0
M  V30 37 H 1.772370 -0.836345 -1.622254 0
M  V30 38 H 3.493441 2.838140 3.137163 0
M  V30 39 H 5.103988 3.282948 2.350746 0
M  V30 40 H 3.495417 3.955512 1.748413 0
M  V30 41 H -0.929166 3.869456 0.626678 0
M  V30 42 H -2.935398 4.986181 1.334060 0
M  V30 43 H -4.221719 1.442026 3.251800 0
M  V30 44 H -2.120728 0.255114 2.517590 0
M  V30 45 H -1.516542 1.330446 -1.506273 0
M  V30 46 H -3.363069 0.146760 -2.559448 0
M  V30 47 H -3.411748 -4.116044 -1.139312 0
M  V30 48 H -1.602811 -6.782950 0.012367 0
M  V30 49 H -3.246288 -6.406110 -0.497451 0
M  V30 50 H -2.908358 -6.444973 1.248258 0
M  V30 51 H -0.545015 -2.270135 0.509352 0
M  V30 END ATOM
M  V30 BEGIN BOND
M  V30 1 3 1 2
M  V30 2 1 2 3
M  V30 3 1 3 4
M  V30 4 1 4 5
M  V30 5 1 5 6
M  V30 6 1 6 7
M  V30 7 1 7 8
M  V30 8 1 8 9
M  V30 9 1 9 10
M  V30 10 2 8 11
M  V30 11 1 11 12
M  V30 12 1 12 13
M  V30 13 2 13 14
M  V30 14 1 14 15
M  V30 15 2 15 16
M  V30 16 1 16 17
M  V30 17 1 16 18
M  V30 18 2 18 19
M  V30 19 2 12 20
M  V30 20 1 20 21
M  V30 21 2 21 22
M  V30 22 1 22 23
M  V30 23 2 23 24
M  V30 24 1 24 25
M  V30 25 1 25 26
M  V30 26 1 26 27
M  V30 27 1 27 28
M  V30 28 2 27 29
M  V30 29 2 25 30
M  V30 30 1 20 7
M  V30 31 1 30 21
M  V30 32 1 19 13
M  V30 33 1 1 31
M  V30 34 1 3 32
M  V30 35 1 3 33
M  V30 36 1 5 34
M  V30 37 1 5 35
M  V30 38 1 6 36
M  V30 39 1 6 37
M  V30 40 1 10 38
M  V30 41 1 10 39
M  V30 42 1 10 40
M  V30 43 1 14 41
M  V30 44 1 15 42
M  V30 45 1 18 43
M  V30 46 1 19 44
M  V30 47 1 22 45
M  V30 48 1 23 46
M  V30 49 1 26 47
M  V30 50 1 28 48
M  V30 51 1 28 49
M  V30 52 1 28 50
M  V30 53 1 30 51
M  V30 END BOND
M  V30 END CTAB
M  END
>  <Dataset>  (313) 
ChEMBL_Kinases

>  <Ligand_Instance>  (313) 
nan

>  <PDB_ID>  (313) 
nan

>  <Standardized_SMILES>  (313) 
C#CCOCCn1c(SC)nc(-c2ccc(F)cc2)c1-c1ccnc(NC(C)=O)c1

>  <Name>  (313) 
nan

>  <Pocket>  (313) 
nan

>  <ATP_Site>  (313) 
nan

>  <Peripheral>  (313) 
nan

>  <Num_H_Atoms_ProtBoundConf>  (313) 
nan

>  <Num_Resolved_Atoms>  (313) 
nan

>  <Num_Not_Resolved_Atoms>  (313) 
nan

$$$$
CHEMBL221536
     RDKit          3D

  0  0  0  0  0  0  0  0  0  0999 V3000
M  V30 BEGIN CTAB
M  V30 COUNTS 36 41 0 0 0
M  V30 BEGIN ATOM
M  V30 1 O 0.170724 -0.518904 4.385095 0
M  V30 2 C -0.005108 -1.013401 3.260009 0
M  V30 3 N -0.512709 -2.330568 3.323742 0
M  V30 4 C -0.658260 -2.754751 1.948961 0
M  V30 5 C -0.193938 -1.574957 1.136089 0
M  V30 6 C 0.203506 -0.515945 1.917023 0
M  V30 7 C 0.655401 0.639362 1.339281 0
M  V30 8 C 1.093832 1.797495 1.896514 0
M  V30 9 C 1.246977 2.238060 3.174013 0
M  V30 10 C 1.712531 3.460873 3.556732 0
M  V30 11 C 2.093258 4.420498 2.655861 0
M  V30 12 C 1.974501 4.067919 1.336311 0
M  V30 13 C 1.494737 2.811564 1.055581 0
M  V30 14 S 1.260250 2.146943 -0.601283 0
M  V30 15 C 0.641027 0.556520 -0.027567 0
M  V30 16 C 0.258036 -0.465622 -0.829427 0
M  V30 17 N 0.220238 -0.608391 -2.167637 0
M  V30 18 C -0.248145 -1.834975 -2.443367 0
M  V30 19 C -0.503074 -2.536181 -3.602701 0
M  V30 20 C -1.004290 -3.838344 -3.585248 0
M  V30 21 C -1.255332 -4.450373 -2.369828 0
M  V30 22 C -1.004543 -3.759243 -1.189566 0
M  V30 23 C -0.509625 -2.474986 -1.252957 0
M  V30 24 C -0.193305 -1.618707 -0.227642 0
M  V30 25 H -0.778081 -2.995328 4.072059 0
M  V30 26 H -1.712539 -2.998397 1.787882 0
M  V30 27 H 0.041106 -3.600534 1.783903 0
M  V30 28 H 1.022396 1.683651 4.054368 0
M  V30 29 H 1.826879 3.792749 4.599386 0
M  V30 30 H 2.470733 5.407757 2.839717 0
M  V30 31 H 2.241757 4.736626 0.555472 0
M  V30 32 H 0.490775 0.070122 -2.909796 0
M  V30 33 H -0.296864 -2.031124 -4.531425 0
M  V30 34 H -1.184374 -4.338199 -4.540979 0
M  V30 35 H -1.650948 -5.478256 -2.358609 0
M  V30 36 H -1.193866 -4.219823 -0.244986 0
M  V30 END ATOM
M  V30 BEGIN BOND
M  V30 1 2 1 2
M  V30 2 1 2 3
M  V30 3 1 3 4
M  V30 4 1 4 5
M  V30 5 2 5 6
M  V30 6 1 6 7
M  V30 7 1 7 8
M  V30 8 2 8 9
M  V30 9 1 9 10
M  V30 10 2 10 11
M  V30 11 1 11 12
M  V30 12 2 12 13
M  V30 13 1 13 14
M  V30 14 1 14 15
M  V30 15 1 15 16
M  V30 16 1 16 17
M  V30 17 1 17 18
M  V30 18 2 18 19
M  V30 19 1 19 20
M  V30 20 2 20 21
M  V30 21 1 21 22
M  V30 22 2 22 23
M  V30 23 1 23 24
M  V30 24 1 6 2
M  V30 25 2 15 7
M  V30 26 2 24 16
M  V30 27 1 24 5
M  V30 28 1 13 8
M  V30 29 1 23 18
M  V30 30 1 3 25
M  V30 31 1 4 26
M  V30 32 1 4 27
M  V30 33 1 9 28
M  V30 34 1 10 29
M  V30 35 1 11 30
M  V30 36 1 12 31
M  V30 37 1 17 32
M  V30 38 1 19 33
M  V30 39 1 20 34
M  V30 40 1 21 35
M  V30 41 1 22 36
M  V30 END BOND
M  V30 END CTAB
M  END
>  <Dataset>  (314) 
ChEMBL_Kinases

>  <Ligand_Instance>  (314) 
nan

>  <PDB_ID>  (314) 
nan

>  <Standardized_SMILES>  (314) 
O=C1NCc2c1c1c3ccccc3sc1c1[nH]c3ccccc3c21

>  <Name>  (314) 
nan

>  <Pocket>  (314) 
nan

>  <ATP_Site>  (314) 
nan

>  <Peripheral>  (314) 
nan

>  <Num_H_Atoms_ProtBoundConf>  (314) 
nan

>  <Num_Resolved_Atoms>  (314) 
nan

>  <Num_Not_Resolved_Atoms>  (314) 
nan

$$$$
CHEMBL221554
     RDKit          3D

  0  0  0  0  0  0  0  0  0  0999 V3000
M  V30 BEGIN CTAB
M  V30 COUNTS 56 61 0 0 0
M  V30 BEGIN ATOM
M  V30 1 O 1.554140 -0.340715 3.682851 0
M  V30 2 C 2.242300 0.330062 2.877645 0
M  V30 3 N 3.453699 0.766924 3.255930 0
M  V30 4 C 4.270950 1.489373 2.478043 0
M  V30 5 C 5.503184 1.922063 2.888447 0
M  V30 6 C 6.324689 2.675770 2.037476 0
M  V30 7 C 5.820896 2.947625 0.785486 0
M  V30 8 C 6.558961 3.710221 -0.190924 0
M  V30 9 C 7.918095 3.580952 -0.151026 0
M  V30 10 N 8.833095 4.219410 -0.991439 0
M  V30 11 S 7.699957 5.203681 -2.072509 0
M  V30 12 C 6.132690 4.600860 -1.219403 0
M  V30 13 C 4.587711 2.531185 0.334495 0
M  V30 14 C 3.790066 1.781241 1.204081 0
M  V30 15 C 2.546206 1.333787 0.813052 0
M  V30 16 C 1.713657 0.587184 1.631127 0
M  V30 17 C 0.414819 0.150328 1.145344 0
M  V30 18 C -0.522296 -0.600280 1.823270 0
M  V30 19 C -1.608203 -0.786484 0.990048 0
M  V30 20 C -2.801597 -1.451613 1.166640 0
M  V30 21 C -3.730542 -1.477948 0.140733 0
M  V30 22 C -5.048809 -2.158390 0.187809 0
M  V30 23 N -5.016509 -3.501366 -0.303388 0
M  V30 24 C -6.304360 -4.164837 -0.228222 0
M  V30 25 C -6.179416 -5.538624 -0.845533 0
M  V30 26 C -4.851446 -5.629669 -1.586115 0
M  V30 27 C -3.755674 -5.558135 -0.547622 0
M  V30 28 C -4.041100 -4.350894 0.337010 0
M  V30 29 C -3.402397 -0.822776 -1.025464 0
M  V30 30 C -2.207778 -0.141108 -1.239809 0
M  V30 31 C -1.299314 -0.137592 -0.183707 0
M  V30 32 N -0.086952 0.411076 -0.060486 0
M  V30 33 H 3.774089 0.515535 4.237787 0
M  V30 34 H 5.867698 1.685390 3.888575 0
M  V30 35 H 7.290647 3.034998 2.307932 0
M  V30 36 H 8.617230 3.027279 0.451930 0
M  V30 37 H 4.938404 4.700222 -1.235758 0
M  V30 38 H 4.180308 2.732512 -0.633154 0
M  V30 39 H 2.217554 1.589871 -0.194235 0
M  V30 40 H -0.486155 -1.001421 2.816198 0
M  V30 41 H -3.052427 -1.957807 2.080039 0
M  V30 42 H -5.769867 -1.513851 -0.338626 0
M  V30 43 H -5.305706 -2.222048 1.287308 0
M  V30 44 H -7.130624 -3.579252 -0.652373 0
M  V30 45 H -6.485757 -4.308476 0.878770 0
M  V30 46 H -7.007120 -5.747713 -1.565283 0
M  V30 47 H -6.133558 -6.321025 -0.065206 0
M  V30 48 H -4.792521 -4.693166 -2.197853 0
M  V30 49 H -4.806778 -6.524625 -2.212564 0
M  V30 50 H -2.764330 -5.357353 -1.005966 0
M  V30 51 H -3.773984 -6.445730 0.082972 0
M  V30 52 H -3.101232 -3.828245 0.611688 0
M  V30 53 H -4.508534 -4.706794 1.293163 0
M  V30 54 H -4.065059 -0.783967 -1.894774 0
M  V30 55 H -1.965069 0.364779 -2.152000 0
M  V30 56 H 0.377570 0.953712 -0.799564 0
M  V30 END ATOM
M  V30 BEGIN BOND
M  V30 1 2 1 2
M  V30 2 1 2 3
M  V30 3 1 3 4
M  V30 4 2 4 5
M  V30 5 1 5 6
M  V30 6 2 6 7
M  V30 7 1 7 8
M  V30 8 1 8 9
M  V30 9 2 9 10
M  V30 10 1 10 11
M  V30 11 1 11 12
M  V30 12 1 7 13
M  V30 13 2 13 14
M  V30 14 1 14 15
M  V30 15 2 15 16
M  V30 16 1 16 17
M  V30 17 2 17 18
M  V30 18 1 18 19
M  V30 19 2 19 20
M  V30 20 1 20 21
M  V30 21 1 21 22
M  V30 22 1 22 23
M  V30 23 1 23 24
M  V30 24 1 24 25
M  V30 25 1 25 26
M  V30 26 1 26 27
M  V30 27 1 27 28
M  V30 28 2 21 29
M  V30 29 1 29 30
M  V30 30 2 30 31
M  V30 31 1 31 32
M  V30 32 1 16 2
M  V30 33 1 32 17
M  V30 34 1 14 4
M  V30 35 1 31 19
M  V30 36 2 12 8
M  V30 37 1 28 23
M  V30 38 1 3 33
M  V30 39 1 5 34
M  V30 40 1 6 35
M  V30 41 1 9 36
M  V30 42 1 12 37
M  V30 43 1 13 38
M  V30 44 1 15 39
M  V30 45 1 18 40
M  V30 46 1 20 41
M  V30 47 1 22 42
M  V30 48 1 22 43
M  V30 49 1 24 44
M  V30 50 1 24 45
M  V30 51 1 25 46
M  V30 52 1 25 47
M  V30 53 1 26 48
M  V30 54 1 26 49
M  V30 55 1 27 50
M  V30 56 1 27 51
M  V30 57 1 28 52
M  V30 58 1 28 53
M  V30 59 1 29 54
M  V30 60 1 30 55
M  V30 61 1 32 56
M  V30 END BOND
M  V30 END CTAB
M  END
>  <Dataset>  (315) 
ChEMBL_Kinases

>  <Ligand_Instance>  (315) 
nan

>  <PDB_ID>  (315) 
nan

>  <Standardized_SMILES>  (315) 
O=c1[nH]c2ccc(-c3cnsc3)cc2cc1-c1cc2cc(CN3CCCCC3)ccc2[nH]1

>  <Name>  (315) 
nan

>  <Pocket>  (315) 
nan

>  <ATP_Site>  (315) 
nan

>  <Peripheral>  (315) 
nan

>  <Num_H_Atoms_ProtBoundConf>  (315) 
nan

>  <Num_Resolved_Atoms>  (315) 
nan

>  <Num_Not_Resolved_Atoms>  (315) 
nan

$$$$
CHEMBL221300
     RDKit          3D

  0  0  0  0  0  0  0  0  0  0999 V3000
M  V30 BEGIN CTAB
M  V30 COUNTS 42 43 0 0 0
M  V30 BEGIN ATOM
M  V30 1 C 0.422401 -6.672478 0.254936 0
M  V30 2 O -0.723175 -5.955833 0.663562 0
M  V30 3 C -0.604310 -4.597155 0.901882 0
M  V30 4 C 0.585202 -3.926717 0.754684 0
M  V30 5 C 0.737009 -2.581890 0.980621 0
M  V30 6 C 2.091322 -2.124893 0.848707 0
M  V30 7 C 2.445092 -0.913399 0.512940 0
M  V30 8 C 1.671930 0.240676 0.175225 0
M  V30 9 C 0.443427 0.586449 -0.309688 0
M  V30 10 C -0.180156 1.793519 -0.443232 0
M  V30 11 C 0.554960 2.872052 -0.014874 0
M  V30 12 O -0.019646 4.128884 -0.121621 0
M  V30 13 C -1.317495 4.270135 -0.655726 0
M  V30 14 C 1.805097 2.660177 0.491384 0
M  V30 15 C 2.360331 1.397264 0.590109 0
M  V30 16 O 3.638653 1.426333 1.132916 0
M  V30 17 C 4.346990 2.544578 1.552232 0
M  V30 18 C -0.451071 -2.021926 1.370111 0
M  V30 19 C -1.673296 -2.615766 1.539578 0
M  V30 20 O -2.761296 -1.866720 1.940777 0
M  V30 21 C -2.618977 -0.479873 2.179225 0
M  V30 22 C -1.760719 -3.963302 1.296001 0
M  V30 23 H 0.787120 -6.242995 -0.697902 0
M  V30 24 H 1.258422 -6.571976 0.981849 0
M  V30 25 H 0.238105 -7.754787 0.167957 0
M  V30 26 H 1.408631 -4.578609 0.435263 0
M  V30 27 H 2.905461 -2.849814 1.058346 0
M  V30 28 H 3.551181 -0.854634 0.491649 0
M  V30 29 H -0.064680 -0.314089 -0.671114 0
M  V30 30 H -1.156392 1.797216 -0.856317 0
M  V30 31 H -1.461699 3.678819 -1.597260 0
M  V30 32 H -2.102604 3.917379 0.041862 0
M  V30 33 H -1.473451 5.346461 -0.851450 0
M  V30 34 H 2.314600 3.562270 0.809005 0
M  V30 35 H 3.678441 3.120051 2.258279 0
M  V30 36 H 5.201863 2.243922 2.173209 0
M  V30 37 H 4.617304 3.262987 0.752619 0
M  V30 38 H -0.402615 -0.973920 1.619201 0
M  V30 39 H -3.616490 -0.053420 2.448341 0
M  V30 40 H -2.147557 0.055663 1.342781 0
M  V30 41 H -1.972099 -0.297205 3.074899 0
M  V30 42 H -2.690922 -4.485978 1.410747 0
M  V30 END ATOM
M  V30 BEGIN BOND
M  V30 1 1 1 2
M  V30 2 1 2 3
M  V30 3 2 3 4
M  V30 4 1 4 5
M  V30 5 1 5 6
M  V30 6 2 6 7
M  V30 7 1 7 8
M  V30 8 2 8 9
M  V30 9 1 9 10
M  V30 10 2 10 11
M  V30 11 1 11 12
M  V30 12 1 12 13
M  V30 13 1 11 14
M  V30 14 2 14 15
M  V30 15 1 15 16
M  V30 16 1 16 17
M  V30 17 2 5 18
M  V30 18 1 18 19
M  V30 19 1 19 20
M  V30 20 1 20 21
M  V30 21 2 19 22
M  V30 22 1 22 3
M  V30 23 1 15 8
M  V30 24 1 1 23
M  V30 25 1 1 24
M  V30 26 1 1 25
M  V30 27 1 4 26
M  V30 28 1 6 27
M  V30 29 1 7 28
M  V30 30 1 9 29
M  V30 31 1 10 30
M  V30 32 1 13 31
M  V30 33 1 13 32
M  V30 34 1 13 33
M  V30 35 1 14 34
M  V30 36 1 17 35
M  V30 37 1 17 36
M  V30 38 1 17 37
M  V30 39 1 18 38
M  V30 40 1 21 39
M  V30 41 1 21 40
M  V30 42 1 21 41
M  V30 43 1 22 42
M  V30 END BOND
M  V30 END CTAB
M  END
>  <Dataset>  (316) 
ChEMBL_Kinases

>  <Ligand_Instance>  (316) 
nan

>  <PDB_ID>  (316) 
nan

>  <Standardized_SMILES>  (316) 
COc1cc(/C=C\c2ccc(OC)cc2OC)cc(OC)c1

>  <Name>  (316) 
nan

>  <Pocket>  (316) 
nan

>  <ATP_Site>  (316) 
nan

>  <Peripheral>  (316) 
nan

>  <Num_H_Atoms_ProtBoundConf>  (316) 
nan

>  <Num_Resolved_Atoms>  (316) 
nan

>  <Num_Not_Resolved_Atoms>  (316) 
nan

$$$$
CHEMBL223311
     RDKit          3D

  0  0  0  0  0  0  0  0  0  0999 V3000
M  V30 BEGIN CTAB
M  V30 COUNTS 49 51 0 0 0
M  V30 BEGIN ATOM
M  V30 1 C -1.641484 -0.689630 -4.114026 0
M  V30 2 C -1.745583 0.790414 -3.912547 0
M  V30 3 O -0.549196 1.448762 -3.654648 0
M  V30 4 C 0.212229 1.154279 -2.557519 0
M  V30 5 C -0.022808 0.234544 -1.562829 0
M  V30 6 C 0.807389 0.009693 -0.492320 0
M  V30 7 C 1.965177 0.797657 -0.453106 0
M  V30 8 C 2.232258 1.721832 -1.423470 0
M  V30 9 C 1.381604 1.921966 -2.480289 0
M  V30 10 Cl 1.796872 3.138918 -3.698537 0
M  V30 11 N 2.982621 0.741885 0.577787 0
M  V30 12 C 3.038864 0.557356 1.989866 0
M  V30 13 O 1.870347 0.534194 1.547955 0
M  V30 14 N 2.781971 0.354354 3.371192 0
M  V30 15 C 1.616446 0.154079 4.162407 0
M  V30 16 C 1.454063 0.578265 5.440820 0
M  V30 17 N 0.311685 0.359657 6.119079 0
M  V30 18 C -0.663920 -0.296334 5.477711 0
M  V30 19 C -1.974047 -0.689169 5.885614 0
M  V30 20 N -3.030425 -0.999393 6.234059 0
M  V30 21 C -0.481806 -0.715880 4.187569 0
M  V30 22 N 0.648746 -0.508256 3.497129 0
M  V30 23 O -0.990325 -1.332033 3.130389 0
M  V30 24 C -2.191470 -1.862897 2.754005 0
M  V30 25 C -2.179175 -2.436809 1.357849 0
M  V30 26 C -1.223517 -3.525444 1.100110 0
M  V30 27 C 0.222782 -3.265200 1.234989 0
M  V30 28 C 0.811621 -2.258548 0.284197 0
M  V30 29 O 0.299300 -0.976366 0.337641 0
M  V30 30 H -2.300713 -1.252209 -3.435950 0
M  V30 31 H -0.564195 -0.989565 -3.973239 0
M  V30 32 H -1.960331 -0.936699 -5.150950 0
M  V30 33 H -2.484971 1.022854 -3.101422 0
M  V30 34 H -2.161867 1.260166 -4.852020 0
M  V30 35 H -0.950743 -0.282530 -1.735327 0
M  V30 36 H 3.127480 2.324579 -1.384361 0
M  V30 37 H 3.993475 0.863819 0.263952 0
M  V30 38 H 3.683650 0.350394 3.894077 0
M  V30 39 H 2.309323 1.080932 5.804188 0
M  V30 40 H -2.958071 -1.036712 2.719882 0
M  V30 41 H -2.637304 -2.591771 3.478684 0
M  V30 42 H -1.991657 -1.553063 0.683526 0
M  V30 43 H -3.215089 -2.744723 1.110593 0
M  V30 44 H -1.553199 -4.440003 1.679109 0
M  V30 45 H -1.391229 -3.855127 0.027464 0
M  V30 46 H 0.563132 -3.099600 2.282626 0
M  V30 47 H 0.739976 -4.237363 0.961266 0
M  V30 48 H 0.671748 -2.700787 -0.750318 0
M  V30 49 H 1.933264 -2.231937 0.382741 0
M  V30 END ATOM
M  V30 BEGIN BOND
M  V30 1 1 1 2
M  V30 2 1 2 3
M  V30 3 1 3 4
M  V30 4 2 4 5
M  V30 5 1 5 6
M  V30 6 2 6 7
M  V30 7 1 7 8
M  V30 8 2 8 9
M  V30 9 1 9 10
M  V30 10 1 7 11
M  V30 11 1 11 12
M  V30 12 2 12 13
M  V30 13 1 12 14
M  V30 14 1 14 15
M  V30 15 1 15 16
M  V30 16 2 16 17
M  V30 17 1 17 18
M  V30 18 1 18 19
M  V30 19 3 19 20
M  V30 20 2 18 21
M  V30 21 1 21 22
M  V30 22 1 21 23
M  V30 23 1 23 24
M  V30 24 1 24 25
M  V30 25 1 25 26
M  V30 26 1 26 27
M  V30 27 1 27 28
M  V30 28 1 28 29
M  V30 29 1 9 4
M  V30 30 2 22 15
M  V30 31 1 29 6
M  V30 32 1 1 30
M  V30 33 1 1 31
M  V30 34 1 1 32
M  V30 35 1 2 33
M  V30 36 1 2 34
M  V30 37 1 5 35
M  V30 38 1 8 36
M  V30 39 1 11 37
M  V30 40 1 14 38
M  V30 41 1 16 39
M  V30 42 1 24 40
M  V30 43 1 24 41
M  V30 44 1 25 42
M  V30 45 1 25 43
M  V30 46 1 26 44
M  V30 47 1 26 45
M  V30 48 1 27 46
M  V30 49 1 27 47
M  V30 50 1 28 48
M  V30 51 1 28 49
M  V30 END BOND
M  V30 END CTAB
M  END
>  <Dataset>  (317) 
ChEMBL_Kinases

>  <Ligand_Instance>  (317) 
nan

>  <PDB_ID>  (317) 
nan

>  <Standardized_SMILES>  (317) 
CCOc1cc2c(cc1Cl)NC(=O)Nc1cnc(C#N)c(n1)OCCCCCO2

>  <Name>  (317) 
nan

>  <Pocket>  (317) 
nan

>  <ATP_Site>  (317) 
nan

>  <Peripheral>  (317) 
nan

>  <Num_H_Atoms_ProtBoundConf>  (317) 
nan

>  <Num_Resolved_Atoms>  (317) 
nan

>  <Num_Not_Resolved_Atoms>  (317) 
nan

$$$$
CHEMBL223257
     RDKit          3D

  0  0  0  0  0  0  0  0  0  0999 V3000
M  V30 BEGIN CTAB
M  V30 COUNTS 54 56 0 0 0
M  V30 BEGIN ATOM
M  V30 1 N 8.392303 -2.428486 -1.150899 0
M  V30 2 C 7.351071 -2.034109 -1.447784 0
M  V30 3 C 6.057819 -1.553255 -1.840070 0
M  V30 4 N 5.661823 -1.714879 -3.114566 0
M  V30 5 C 4.443714 -1.256864 -3.452425 0
M  V30 6 C 3.699180 -0.664089 -2.485949 0
M  V30 7 N 4.130224 -0.521735 -1.233727 0
M  V30 8 C 5.319395 -0.957815 -0.856505 0
M  V30 9 O 5.633608 -0.744338 0.488225 0
M  V30 10 C 4.621959 -0.304920 1.400128 0
M  V30 11 C 3.529415 -1.283630 1.464412 0
M  V30 12 C 2.306241 -0.905713 2.277532 0
M  V30 13 C 1.770257 0.442675 1.771876 0
M  V30 14 C 0.432750 0.808902 2.295407 0
M  V30 15 O -0.636235 0.018509 1.988771 0
M  V30 16 C -1.234473 -0.337940 0.809981 0
M  V30 17 C -2.597613 -0.171562 1.096730 0
M  V30 18 C -3.667744 -0.406024 0.220955 0
M  V30 19 O -4.991231 -0.315827 0.279773 0
M  V30 20 C -5.980713 0.010610 1.135629 0
M  V30 21 C -6.190496 -0.777492 2.378751 0
M  V30 22 O -5.180183 -0.822534 3.287435 0
M  V30 23 C -6.696698 -2.194410 2.054870 0
M  V30 24 O -7.170628 -2.834358 3.179507 0
M  V30 25 C -3.345991 -0.851334 -1.071423 0
M  V30 26 Cl -4.474496 -1.217730 -2.360073 0
M  V30 27 C -1.998227 -1.034846 -1.413098 0
M  V30 28 C -1.032878 -0.777209 -0.487477 0
M  V30 29 N 0.273656 -0.970347 -0.951284 0
M  V30 30 C 1.334084 -0.531564 -1.665512 0
M  V30 31 O 0.989477 0.499370 -2.162899 0
M  V30 32 N 2.414671 -0.090451 -2.389587 0
M  V30 33 H 3.797375 -1.190144 -4.310253 0
M  V30 34 H 5.111246 -0.092216 2.352844 0
M  V30 35 H 4.195822 0.673632 1.037036 0
M  V30 36 H 3.140900 -1.523578 0.466180 0
M  V30 37 H 3.971465 -2.222978 1.927894 0
M  V30 38 H 1.523428 -1.642567 2.050441 0
M  V30 39 H 2.614619 -0.871487 3.331184 0
M  V30 40 H 2.482190 1.189999 2.293684 0
M  V30 41 H 1.971044 0.634468 0.722032 0
M  V30 42 H 0.236354 1.868337 1.991909 0
M  V30 43 H 0.532916 0.834758 3.422564 0
M  V30 44 H -3.101349 0.173037 2.012005 0
M  V30 45 H -5.832592 1.084906 1.477376 0
M  V30 46 H -6.962555 -0.035351 0.563558 0
M  V30 47 H -7.071403 -0.308504 2.912363 0
M  V30 48 H -5.270508 -0.196617 4.053294 0
M  V30 49 H -7.532222 -2.056213 1.340539 0
M  V30 50 H -5.864862 -2.789971 1.615651 0
M  V30 51 H -6.684017 -2.580570 4.002513 0
M  V30 52 H -1.582424 -1.379665 -2.338639 0
M  V30 53 H 0.424197 -1.893568 -0.567814 0
M  V30 54 H 2.627289 0.724236 -2.994368 0
M  V30 END ATOM
M  V30 BEGIN BOND
M  V30 1 3 1 2
M  V30 2 1 2 3
M  V30 3 2 3 4
M  V30 4 1 4 5
M  V30 5 2 5 6
M  V30 6 1 6 7
M  V30 7 2 7 8
M  V30 8 1 8 9
M  V30 9 1 9 10
M  V30 10 1 10 11
M  V30 11 1 11 12
M  V30 12 1 12 13
M  V30 13 1 13 14
M  V30 14 1 14 15
M  V30 15 1 15 16
M  V30 16 2 16 17
M  V30 17 1 17 18
M  V30 18 1 18 19
M  V30 19 1 19 20
M  V30 20 1 20 21
M  V30 21 1 21 22
M  V30 22 1 21 23
M  V30 23 1 23 24
M  V30 24 2 18 25
M  V30 25 1 25 26
M  V30 26 1 25 27
M  V30 27 2 27 28
M  V30 28 1 28 29
M  V30 29 1 29 30
M  V30 30 2 30 31
M  V30 31 1 30 32
M  V30 32 1 8 3
M  V30 33 1 28 16
M  V30 34 1 32 6
M  V30 35 1 5 33
M  V30 36 1 10 34
M  V30 37 1 10 35
M  V30 38 1 11 36
M  V30 39 1 11 37
M  V30 40 1 12 38
M  V30 41 1 12 39
M  V30 42 1 13 40
M  V30 43 1 13 41
M  V30 44 1 14 42
M  V30 45 1 14 43
M  V30 46 1 17 44
M  V30 47 1 20 45
M  V30 48 1 20 46
M  V30 49 1 21 47
M  V30 50 1 22 48
M  V30 51 1 23 49
M  V30 52 1 23 50
M  V30 53 1 24 51
M  V30 54 1 27 52
M  V30 55 1 29 53
M  V30 56 1 32 54
M  V30 END BOND
M  V30 END CTAB
M  END
>  <Dataset>  (318) 
ChEMBL_Kinases

>  <Ligand_Instance>  (318) 
nan

>  <PDB_ID>  (318) 
nan

>  <Standardized_SMILES>  (318) 
N#Cc1ncc2nc1OCCCCCOc1cc(OCC(O)CO)c(Cl)cc1NC(=O)N2

>  <Name>  (318) 
nan

>  <Pocket>  (318) 
nan

>  <ATP_Site>  (318) 
nan

>  <Peripheral>  (318) 
nan

>  <Num_H_Atoms_ProtBoundConf>  (318) 
nan

>  <Num_Resolved_Atoms>  (318) 
nan

>  <Num_Not_Resolved_Atoms>  (318) 
nan

$$$$
CHEMBL223255
     RDKit          3D

  0  0  0  0  0  0  0  0  0  0999 V3000
M  V30 BEGIN CTAB
M  V30 COUNTS 49 51 0 0 0
M  V30 BEGIN ATOM
M  V30 1 C 3.921827 -3.161035 5.552159 0
M  V30 2 C 3.322966 -2.387467 4.459849 0
M  V30 3 O 2.075738 -2.230616 4.580660 0
M  V30 4 N 4.019843 -1.839999 3.345875 0
M  V30 5 C 3.338385 -1.090265 2.317424 0
M  V30 6 C 2.749750 -1.569156 1.127082 0
M  V30 7 C 2.089584 -0.816339 0.135123 0
M  V30 8 C 2.045314 0.533574 0.415007 0
M  V30 9 C 2.613668 1.025464 1.571068 0
M  V30 10 C 3.274539 0.288138 2.568388 0
M  V30 11 Cl 3.970572 0.989093 4.010792 0
M  V30 12 N 1.501168 1.663401 -0.256251 0
M  V30 13 C 0.207753 2.208052 -0.381769 0
M  V30 14 O 0.196282 1.175277 0.335047 0
M  V30 15 N -1.083759 2.752401 -0.507448 0
M  V30 16 C -2.358764 2.374765 -0.037860 0
M  V30 17 C -3.266576 3.016098 0.749509 0
M  V30 18 N -4.445728 2.401039 1.059790 0
M  V30 19 C -4.666340 1.173811 0.570485 0
M  V30 20 C -5.773233 0.317495 0.723935 0
M  V30 21 N -6.687510 -0.370272 0.862496 0
M  V30 22 C -3.724443 0.568567 -0.217158 0
M  V30 23 N -2.530661 1.140151 -0.556606 0
M  V30 24 O -3.451004 -0.578053 -0.923283 0
M  V30 25 C -2.694758 -1.566427 -0.245484 0
M  V30 26 C -2.393225 -2.744306 -1.156991 0
M  V30 27 C -1.592244 -2.251401 -2.370170 0
M  V30 28 C -0.316355 -1.550132 -1.920548 0
M  V30 29 C 0.639513 -2.407038 -1.184469 0
M  V30 30 O 1.757755 -1.785024 -0.724859 0
M  V30 31 H 3.670003 -2.662961 6.534210 0
M  V30 32 H 3.536707 -4.194023 5.640844 0
M  V30 33 H 5.023247 -3.215259 5.544869 0
M  V30 34 H 5.049548 -2.000795 3.298698 0
M  V30 35 H 2.937331 -2.642296 1.180695 0
M  V30 36 H 2.614810 2.092853 1.840314 0
M  V30 37 H 2.281062 2.162294 -0.729993 0
M  V30 38 H -1.286107 3.604485 -1.048494 0
M  V30 39 H -2.859440 3.955042 0.993128 0
M  V30 40 H -3.319091 -1.947687 0.588331 0
M  V30 41 H -1.767704 -1.139859 0.183782 0
M  V30 42 H -3.326106 -3.183169 -1.560458 0
M  V30 43 H -1.802942 -3.537001 -0.685632 0
M  V30 44 H -2.220911 -1.477796 -2.845496 0
M  V30 45 H -1.372302 -3.128751 -2.978674 0
M  V30 46 H -0.567543 -0.640350 -1.383151 0
M  V30 47 H 0.162226 -1.226592 -2.897213 0
M  V30 48 H 0.112268 -3.011675 -0.394832 0
M  V30 49 H 0.987786 -3.193706 -1.937123 0
M  V30 END ATOM
M  V30 BEGIN BOND
M  V30 1 1 1 2
M  V30 2 2 2 3
M  V30 3 1 2 4
M  V30 4 1 4 5
M  V30 5 2 5 6
M  V30 6 1 6 7
M  V30 7 2 7 8
M  V30 8 1 8 9
M  V30 9 2 9 10
M  V30 10 1 10 11
M  V30 11 1 8 12
M  V30 12 1 12 13
M  V30 13 2 13 14
M  V30 14 1 13 15
M  V30 15 1 15 16
M  V30 16 1 16 17
M  V30 17 2 17 18
M  V30 18 1 18 19
M  V30 19 1 19 20
M  V30 20 3 20 21
M  V30 21 2 19 22
M  V30 22 1 22 23
M  V30 23 1 22 24
M  V30 24 1 24 25
M  V30 25 1 25 26
M  V30 26 1 26 27
M  V30 27 1 27 28
M  V30 28 1 28 29
M  V30 29 1 29 30
M  V30 30 1 10 5
M  V30 31 2 23 16
M  V30 32 1 30 7
M  V30 33 1 1 31
M  V30 34 1 1 32
M  V30 35 1 1 33
M  V30 36 1 4 34
M  V30 37 1 6 35
M  V30 38 1 9 36
M  V30 39 1 12 37
M  V30 40 1 15 38
M  V30 41 1 17 39
M  V30 42 1 25 40
M  V30 43 1 25 41
M  V30 44 1 26 42
M  V30 45 1 26 43
M  V30 46 1 27 44
M  V30 47 1 27 45
M  V30 48 1 28 46
M  V30 49 1 28 47
M  V30 50 1 29 48
M  V30 51 1 29 49
M  V30 END BOND
M  V30 END CTAB
M  END
>  <Dataset>  (319) 
ChEMBL_Kinases

>  <Ligand_Instance>  (319) 
nan

>  <PDB_ID>  (319) 
nan

>  <Standardized_SMILES>  (319) 
CC(=O)Nc1cc2c(cc1Cl)NC(=O)Nc1cnc(C#N)c(n1)OCCCCCO2

>  <Name>  (319) 
nan

>  <Pocket>  (319) 
nan

>  <ATP_Site>  (319) 
nan

>  <Peripheral>  (319) 
nan

>  <Num_H_Atoms_ProtBoundConf>  (319) 
nan

>  <Num_Resolved_Atoms>  (319) 
nan

>  <Num_Not_Resolved_Atoms>  (319) 
nan

$$$$
CHEMBL223141
     RDKit          3D

  0  0  0  0  0  0  0  0  0  0999 V3000
M  V30 BEGIN CTAB
M  V30 COUNTS 57 60 0 0 0
M  V30 BEGIN ATOM
M  V30 1 N 5.438816 0.351461 6.178533 0
M  V30 2 C 5.349206 0.017171 5.074615 0
M  V30 3 C 5.234818 -0.416986 3.720629 0
M  V30 4 N 5.600602 -1.627551 3.290391 0
M  V30 5 C 5.452075 -1.938153 1.996329 0
M  V30 6 C 4.923140 -0.985068 1.159422 0
M  V30 7 N 4.549629 0.237670 1.571126 0
M  V30 8 C 4.706852 0.543019 2.896765 0
M  V30 9 O 4.258306 1.843879 3.078746 0
M  V30 10 C 3.051825 2.291962 2.463556 0
M  V30 11 C 1.860495 1.538331 2.940695 0
M  V30 12 C 0.637395 1.952447 2.125639 0
M  V30 13 C 0.819675 1.403193 0.750732 0
M  V30 14 C -0.282921 1.802512 -0.229076 0
M  V30 15 O 0.041351 1.124644 -1.435390 0
M  V30 16 C 0.090947 -0.267236 -1.525059 0
M  V30 17 C -1.224462 -0.727747 -1.369393 0
M  V30 18 C -1.606503 -2.046299 -1.396577 0
M  V30 19 N -2.956828 -2.490321 -1.235691 0
M  V30 20 C -4.031245 -1.508455 -1.020567 0
M  V30 21 C -5.334578 -2.177134 -0.876452 0
M  V30 22 C -6.189571 -2.455921 -1.938865 0
M  V30 23 C -7.410268 -3.084233 -1.805096 0
M  V30 24 C -7.830335 -3.470599 -0.541018 0
M  V30 25 C -7.005885 -3.210851 0.548712 0
M  V30 26 C -5.778861 -2.574110 0.378404 0
M  V30 27 C -0.646182 -3.040711 -1.592045 0
M  V30 28 Cl -1.112397 -4.710825 -1.630374 0
M  V30 29 C 0.653126 -2.530821 -1.742213 0
M  V30 30 C 1.052156 -1.185825 -1.714837 0
M  V30 31 N 2.439422 -1.226080 -1.898034 0
M  V30 32 C 3.688048 -1.190937 -1.235372 0
M  V30 33 O 2.739641 -1.091382 -0.417091 0
M  V30 34 N 4.678142 -1.116626 -0.229131 0
M  V30 35 H 5.666117 -2.812766 1.410805 0
M  V30 36 H 3.239916 2.269924 1.387464 0
M  V30 37 H 2.914802 3.385862 2.713507 0
M  V30 38 H 2.034015 0.457502 2.658279 0
M  V30 39 H 1.672826 1.614780 4.011492 0
M  V30 40 H 0.620633 3.060547 2.091592 0
M  V30 41 H -0.248881 1.583689 2.639966 0
M  V30 42 H 0.747392 0.287316 0.783671 0
M  V30 43 H 1.771662 1.658378 0.302762 0
M  V30 44 H -0.132412 2.882086 -0.432594 0
M  V30 45 H -1.278543 1.578189 0.153592 0
M  V30 46 H -2.101177 -0.085293 -1.207769 0
M  V30 47 H -3.217739 -3.480305 -1.264041 0
M  V30 48 H -4.068971 -0.916080 -1.969404 0
M  V30 49 H -3.828524 -0.856734 -0.157753 0
M  V30 50 H -5.822345 -2.137919 -2.904245 0
M  V30 51 H -8.010782 -3.259109 -2.701815 0
M  V30 52 H -8.787907 -3.957287 -0.484087 0
M  V30 53 H -7.399299 -3.539655 1.496018 0
M  V30 54 H -5.172057 -2.391375 1.239951 0
M  V30 55 H 1.350245 -3.374509 -1.900563 0
M  V30 56 H 2.613927 -1.336440 -2.919185 0
M  V30 57 H 5.643487 -1.176973 -0.598564 0
M  V30 END ATOM
M  V30 BEGIN BOND
M  V30 1 3 1 2
M  V30 2 1 2 3
M  V30 3 2 3 4
M  V30 4 1 4 5
M  V30 5 2 5 6
M  V30 6 1 6 7
M  V30 7 2 7 8
M  V30 8 1 8 9
M  V30 9 1 9 10
M  V30 10 1 10 11
M  V30 11 1 11 12
M  V30 12 1 12 13
M  V30 13 1 13 14
M  V30 14 1 14 15
M  V30 15 1 15 16
M  V30 16 2 16 17
M  V30 17 1 17 18
M  V30 18 1 18 19
M  V30 19 1 19 20
M  V30 20 1 20 21
M  V30 21 2 21 22
M  V30 22 1 22 23
M  V30 23 2 23 24
M  V30 24 1 24 25
M  V30 25 2 25 26
M  V30 26 2 18 27
M  V30 27 1 27 28
M  V30 28 1 27 29
M  V30 29 2 29 30
M  V30 30 1 30 31
M  V30 31 1 31 32
M  V30 32 2 32 33
M  V30 33 1 32 34
M  V30 34 1 8 3
M  V30 35 1 30 16
M  V30 36 1 34 6
M  V30 37 1 26 21
M  V30 38 1 5 35
M  V30 39 1 10 36
M  V30 40 1 10 37
M  V30 41 1 11 38
M  V30 42 1 11 39
M  V30 43 1 12 40
M  V30 44 1 12 41
M  V30 45 1 13 42
M  V30 46 1 13 43
M  V30 47 1 14 44
M  V30 48 1 14 45
M  V30 49 1 17 46
M  V30 50 1 19 47
M  V30 51 1 20 48
M  V30 52 1 20 49
M  V30 53 1 22 50
M  V30 54 1 23 51
M  V30 55 1 24 52
M  V30 56 1 25 53
M  V30 57 1 26 54
M  V30 58 1 29 55
M  V30 59 1 31 56
M  V30 60 1 34 57
M  V30 END BOND
M  V30 END CTAB
M  END
>  <Dataset>  (320) 
ChEMBL_Kinases

>  <Ligand_Instance>  (320) 
nan

>  <PDB_ID>  (320) 
nan

>  <Standardized_SMILES>  (320) 
N#Cc1ncc2nc1OCCCCCOc1cc(NCc3ccccc3)c(Cl)cc1NC(=O)N2

>  <Name>  (320) 
nan

>  <Pocket>  (320) 
nan

>  <ATP_Site>  (320) 
nan

>  <Peripheral>  (320) 
nan

>  <Num_H_Atoms_ProtBoundConf>  (320) 
nan

>  <Num_Resolved_Atoms>  (320) 
nan

>  <Num_Not_Resolved_Atoms>  (320) 
nan

$$$$
CHEMBL223088
     RDKit          3D

  0  0  0  0  0  0  0  0  0  0999 V3000
M  V30 BEGIN CTAB
M  V30 COUNTS 64 68 0 0 0
M  V30 BEGIN ATOM
M  V30 1 C 2.867830 1.342656 3.499517 0
M  V30 2 C 1.719351 1.452288 2.585746 0
M  V30 3 N 0.535134 2.063317 2.707222 0
M  V30 4 C -0.188212 1.881636 1.594666 0
M  V30 5 N 0.535891 1.149820 0.753689 0
M  V30 6 C 0.020113 0.806811 -0.559337 0
M  V30 7 C 0.357429 1.869745 -1.581745 0
M  V30 8 N -0.154231 1.469553 -2.839054 0
M  V30 9 C -1.556927 1.441704 -3.020271 0
M  V30 10 C -1.804294 0.738176 -4.364136 0
M  V30 11 O -0.639292 0.151998 -4.859705 0
M  V30 12 C 0.354646 1.090138 -5.134207 0
M  V30 13 C 0.518451 2.058910 -3.972027 0
M  V30 14 C 1.734798 0.863289 1.342854 0
M  V30 15 C 2.808565 0.087206 0.688098 0
M  V30 16 N 3.052327 -1.208734 1.226515 0
M  V30 17 C 2.310081 -2.372115 1.481381 0
M  V30 18 C 2.884048 -3.522333 2.011205 0
M  V30 19 C 2.174569 -4.647906 2.271252 0
M  V30 20 C 0.824023 -4.690679 2.012489 0
M  V30 21 N 0.165704 -5.814957 2.284719 0
M  V30 22 C -1.174355 -5.958921 2.067533 0
M  V30 23 C -1.833352 -4.867509 1.542737 0
M  V30 24 C -3.254227 -4.979849 1.298353 0
M  V30 25 N -4.410672 -5.088339 1.110732 0
M  V30 26 C -1.159120 -3.693255 1.255623 0
M  V30 27 N -1.849196 -2.571030 0.720775 0
M  V30 28 C -2.324726 -1.653819 1.691236 0
M  V30 29 C -2.095988 -1.869225 3.048066 0
M  V30 30 C -2.553797 -0.981680 4.018419 0
M  V30 31 C -3.255956 0.153424 3.677743 0
M  V30 32 F -3.702034 1.014783 4.607690 0
M  V30 33 C -3.481917 0.365364 2.330775 0
M  V30 34 Cl -4.373951 1.790413 1.776212 0
M  V30 35 C -3.036698 -0.504698 1.331681 0
M  V30 36 C 0.194398 -3.589412 1.489573 0
M  V30 37 C 0.955340 -2.470439 1.241937 0
M  V30 38 H 2.698803 1.984503 4.389516 0
M  V30 39 H 3.055971 0.288549 3.798138 0
M  V30 40 H 3.823164 1.720654 3.058757 0
M  V30 41 H -1.178861 2.309378 1.518048 0
M  V30 42 H 0.517793 -0.123629 -0.957305 0
M  V30 43 H -1.051790 0.632471 -0.554766 0
M  V30 44 H -0.090185 2.841833 -1.224357 0
M  V30 45 H 1.463933 2.032994 -1.643244 0
M  V30 46 H -2.105144 0.921808 -2.225283 0
M  V30 47 H -1.943754 2.481612 -3.072170 0
M  V30 48 H -2.521180 -0.089781 -4.184342 0
M  V30 49 H -2.160993 1.459620 -5.106275 0
M  V30 50 H 1.323293 0.517376 -5.225136 0
M  V30 51 H 0.161008 1.638562 -6.083928 0
M  V30 52 H -0.007046 3.004566 -4.217537 0
M  V30 53 H 1.589117 2.266203 -3.769474 0
M  V30 54 H 2.583933 -0.060591 -0.408675 0
M  V30 55 H 3.703108 0.722162 0.691385 0
M  V30 56 H 4.080410 -1.312325 1.509503 0
M  V30 57 H 3.946187 -3.533617 2.230471 0
M  V30 58 H 2.657025 -5.501805 2.674970 0
M  V30 59 H -1.711233 -6.865188 2.285514 0
M  V30 60 H -2.038485 -2.354838 -0.284412 0
M  V30 61 H -1.553958 -2.733059 3.408520 0
M  V30 62 H -2.352525 -1.189424 5.068421 0
M  V30 63 H -3.242086 -0.290842 0.277127 0
M  V30 64 H 0.400208 -1.658905 0.842293 0
M  V30 END ATOM
M  V30 BEGIN BOND
M  V30 1 1 1 2
M  V30 2 1 2 3
M  V30 3 2 3 4
M  V30 4 1 4 5
M  V30 5 1 5 6
M  V30 6 1 6 7
M  V30 7 1 7 8
M  V30 8 1 8 9
M  V30 9 1 9 10
M  V30 10 1 10 11
M  V30 11 1 11 12
M  V30 12 1 12 13
M  V30 13 1 5 14
M  V30 14 1 14 15
M  V30 15 1 15 16
M  V30 16 1 16 17
M  V30 17 2 17 18
M  V30 18 1 18 19
M  V30 19 2 19 20
M  V30 20 1 20 21
M  V30 21 2 21 22
M  V30 22 1 22 23
M  V30 23 1 23 24
M  V30 24 3 24 25
M  V30 25 2 23 26
M  V30 26 1 26 27
M  V30 27 1 27 28
M  V30 28 2 28 29
M  V30 29 1 29 30
M  V30 30 2 30 31
M  V30 31 1 31 32
M  V30 32 1 31 33
M  V30 33 1 33 34
M  V30 34 2 33 35
M  V30 35 1 26 36
M  V30 36 2 36 37
M  V30 37 2 14 2
M  V30 38 1 37 17
M  V30 39 1 13 8
M  V30 40 1 36 20
M  V30 41 1 35 28
M  V30 42 1 1 38
M  V30 43 1 1 39
M  V30 44 1 1 40
M  V30 45 1 4 41
M  V30 46 1 6 42
M  V30 47 1 6 43
M  V30 48 1 7 44
M  V30 49 1 7 45
M  V30 50 1 9 46
M  V30 51 1 9 47
M  V30 52 1 10 48
M  V30 53 1 10 49
M  V30 54 1 12 50
M  V30 55 1 12 51
M  V30 56 1 13 52
M  V30 57 1 13 53
M  V30 58 1 15 54
M  V30 59 1 15 55
M  V30 60 1 16 56
M  V30 61 1 18 57
M  V30 62 1 19 58
M  V30 63 1 22 59
M  V30 64 1 27 60
M  V30 65 1 29 61
M  V30 66 1 30 62
M  V30 67 1 35 63
M  V30 68 1 37 64
M  V30 END BOND
M  V30 END CTAB
M  END
>  <Dataset>  (321) 
ChEMBL_Kinases

>  <Ligand_Instance>  (321) 
nan

>  <PDB_ID>  (321) 
nan

>  <Standardized_SMILES>  (321) 
Cc1ncn(CCN2CCOCC2)c1CNc1ccc2ncc(C#N)c(Nc3ccc(F)c(Cl)c3)c2c1

>  <Name>  (321) 
nan

>  <Pocket>  (321) 
nan

>  <ATP_Site>  (321) 
nan

>  <Peripheral>  (321) 
nan

>  <Num_H_Atoms_ProtBoundConf>  (321) 
nan

>  <Num_Resolved_Atoms>  (321) 
nan

>  <Num_Not_Resolved_Atoms>  (321) 
nan

$$$$
CHEMBL223011
     RDKit          3D

  0  0  0  0  0  0  0  0  0  0999 V3000
M  V30 BEGIN CTAB
M  V30 COUNTS 50 53 0 0 0
M  V30 BEGIN ATOM
M  V30 1 N -0.421256 -6.420250 0.450814 0
M  V30 2 C 0.252836 -5.575104 0.876378 0
M  V30 3 C 1.105230 -4.532180 1.421117 0
M  V30 4 C 2.053588 -4.857450 2.388665 0
M  V30 5 N 2.809426 -3.848329 2.851056 0
M  V30 6 C 2.673485 -2.588394 2.417039 0
M  V30 7 C 3.486811 -1.609494 2.940873 0
M  V30 8 C 3.399456 -0.302849 2.541242 0
M  V30 9 C 2.476501 0.115243 1.574916 0
M  V30 10 N 2.342590 1.436687 1.114088 0
M  V30 11 C 1.504372 2.126470 0.185663 0
M  V30 12 C 0.066885 2.177636 0.564129 0
M  V30 13 C -1.026417 1.410464 0.236876 0
M  V30 14 C -2.266166 1.687913 0.767150 0
M  V30 15 C -2.493918 2.729382 1.642063 0
M  V30 16 S -4.115097 2.967310 2.238028 0
M  V30 17 N -4.374236 2.066126 3.705013 0
M  V30 18 O -5.129440 2.485039 1.260343 0
M  V30 19 O -4.393506 4.441014 2.456368 0
M  V30 20 C -1.406359 3.507674 1.978780 0
M  V30 21 C -0.154923 3.240082 1.453563 0
M  V30 22 C 1.683133 -0.897681 1.077830 0
M  V30 23 C 1.750864 -2.218707 1.462776 0
M  V30 24 C 0.956575 -3.224382 0.963542 0
M  V30 25 N 0.001326 -2.885261 -0.013572 0
M  V30 26 C 0.102073 -2.852970 -1.430544 0
M  V30 27 C 1.303605 -3.204272 -1.991602 0
M  V30 28 C 1.329375 -3.149545 -3.380488 0
M  V30 29 C 0.210012 -2.765032 -4.122926 0
M  V30 30 F 0.244497 -2.714623 -5.478395 0
M  V30 31 C -0.978525 -2.421609 -3.476846 0
M  V30 32 Cl -2.400986 -1.935330 -4.366502 0
M  V30 33 C -1.044888 -2.463671 -2.087142 0
M  V30 34 H 2.130102 -5.888918 2.711406 0
M  V30 35 H 4.224582 -1.821154 3.683280 0
M  V30 36 H 4.059449 0.460980 2.973856 0
M  V30 37 H 3.053192 2.056420 1.594277 0
M  V30 38 H 1.598177 1.610934 -0.829979 0
M  V30 39 H 1.916722 3.129448 -0.003245 0
M  V30 40 H -0.765283 0.628517 -0.456438 0
M  V30 41 H -3.038455 1.025347 0.441781 0
M  V30 42 H -3.926491 2.522792 4.517700 0
M  V30 43 H -5.396660 1.954034 3.822741 0
M  V30 44 H -1.624155 4.313302 2.665666 0
M  V30 45 H 0.587433 3.951362 1.824586 0
M  V30 46 H 0.938498 -0.748155 0.336411 0
M  V30 47 H -0.844248 -2.649009 0.547050 0
M  V30 48 H 2.151866 -3.497070 -1.397592 0
M  V30 49 H 2.239737 -3.410914 -3.912840 0
M  V30 50 H -1.949867 -2.203257 -1.569690 0
M  V30 END ATOM
M  V30 BEGIN BOND
M  V30 1 3 1 2
M  V30 2 1 2 3
M  V30 3 2 3 4
M  V30 4 1 4 5
M  V30 5 2 5 6
M  V30 6 1 6 7
M  V30 7 2 7 8
M  V30 8 1 8 9
M  V30 9 1 9 10
M  V30 10 1 10 11
M  V30 11 1 11 12
M  V30 12 2 12 13
M  V30 13 1 13 14
M  V30 14 2 14 15
M  V30 15 1 15 16
M  V30 16 1 16 17
M  V30 17 2 16 18
M  V30 18 2 16 19
M  V30 19 1 15 20
M  V30 20 2 20 21
M  V30 21 2 9 22
M  V30 22 1 22 23
M  V30 23 2 23 24
M  V30 24 1 24 25
M  V30 25 1 25 26
M  V30 26 2 26 27
M  V30 27 1 27 28
M  V30 28 2 28 29
M  V30 29 1 29 30
M  V30 30 1 29 31
M  V30 31 1 31 32
M  V30 32 2 31 33
M  V30 33 1 24 3
M  V30 34 1 33 26
M  V30 35 1 23 6
M  V30 36 1 21 12
M  V30 37 1 4 34
M  V30 38 1 7 35
M  V30 39 1 8 36
M  V30 40 1 10 37
M  V30 41 1 11 38
M  V30 42 1 11 39
M  V30 43 1 13 40
M  V30 44 1 14 41
M  V30 45 1 17 42
M  V30 46 1 17 43
M  V30 47 1 20 44
M  V30 48 1 21 45
M  V30 49 1 22 46
M  V30 50 1 25 47
M  V30 51 1 27 48
M  V30 52 1 28 49
M  V30 53 1 33 50
M  V30 END BOND
M  V30 END CTAB
M  END
>  <Dataset>  (322) 
ChEMBL_Kinases

>  <Ligand_Instance>  (322) 
nan

>  <PDB_ID>  (322) 
nan

>  <Standardized_SMILES>  (322) 
N#Cc1cnc2ccc(NCc3ccc(S(N)(=O)=O)cc3)cc2c1Nc1ccc(F)c(Cl)c1

>  <Name>  (322) 
nan

>  <Pocket>  (322) 
nan

>  <ATP_Site>  (322) 
nan

>  <Peripheral>  (322) 
nan

>  <Num_H_Atoms_ProtBoundConf>  (322) 
nan

>  <Num_Resolved_Atoms>  (322) 
nan

>  <Num_Not_Resolved_Atoms>  (322) 
nan

$$$$
CHEMBL222954
     RDKit          3D

  0  0  0  0  0  0  0  0  0  0999 V3000
M  V30 BEGIN CTAB
M  V30 COUNTS 47 50 0 0 0
M  V30 BEGIN ATOM
M  V30 1 N -1.655099 -6.374770 2.230733 0
M  V30 2 C -0.915823 -5.553775 1.875641 0
M  V30 3 C -0.023293 -4.530815 1.428737 0
M  V30 4 C 1.304542 -4.771861 1.139141 0
M  V30 5 N 2.138483 -3.804566 0.719131 0
M  V30 6 C 1.689863 -2.547615 0.566747 0
M  V30 7 C 2.562068 -1.571251 0.134850 0
M  V30 8 C 2.025902 -0.308358 0.003604 0
M  V30 9 C 0.742558 0.049085 0.257290 0
M  V30 10 N 0.190705 1.342391 0.130575 0
M  V30 11 C 0.738886 2.622758 -0.251207 0
M  V30 12 C 1.735926 3.156940 0.702117 0
M  V30 13 C 1.059564 3.834722 1.726339 0
M  V30 14 C 1.741692 4.460620 2.776151 0
M  V30 15 C 3.130142 4.417724 2.818412 0
M  V30 16 C 3.775514 3.748218 1.804375 0
M  V30 17 N 5.188931 3.634645 1.736131 0
M  V30 18 C 3.107066 3.134583 0.774698 0
M  V30 19 C -0.081467 -0.969169 0.685591 0
M  V30 20 C 0.375417 -2.253465 0.841602 0
M  V30 21 C -0.475193 -3.246088 1.271281 0
M  V30 22 N -1.841055 -2.964045 1.561921 0
M  V30 23 C -3.018912 -2.987103 0.757197 0
M  V30 24 C -4.216965 -2.652257 1.358267 0
M  V30 25 C -5.315515 -2.695160 0.522953 0
M  V30 26 C -5.255260 -3.040965 -0.810633 0
M  V30 27 F -6.384498 -3.060960 -1.573772 0
M  V30 28 C -4.025719 -3.365090 -1.350156 0
M  V30 29 Cl -3.899198 -3.814024 -3.052176 0
M  V30 30 C -2.867829 -3.345307 -0.570505 0
M  V30 31 H 1.680028 -5.799193 1.261422 0
M  V30 32 H 3.595512 -1.801425 -0.081522 0
M  V30 33 H 2.714861 0.434308 -0.337813 0
M  V30 34 H -0.843699 1.454096 0.353526 0
M  V30 35 H -0.029648 3.363836 -0.519512 0
M  V30 36 H 1.316403 2.456094 -1.224229 0
M  V30 37 H -0.005544 3.972258 1.860348 0
M  V30 38 H 1.293675 4.992599 3.586642 0
M  V30 39 H 3.700667 4.882421 3.603313 0
M  V30 40 H 5.512984 2.821085 2.311934 0
M  V30 41 H 6.024479 4.065771 1.321573 0
M  V30 42 H 3.527298 2.601119 -0.060083 0
M  V30 43 H -1.126541 -0.799672 0.917876 0
M  V30 44 H -1.823101 -2.715376 2.558338 0
M  V30 45 H -4.286584 -2.379878 2.395277 0
M  V30 46 H -6.284801 -2.438883 0.951302 0
M  V30 47 H -1.907335 -3.598473 -0.991834 0
M  V30 END ATOM
M  V30 BEGIN BOND
M  V30 1 3 1 2
M  V30 2 1 2 3
M  V30 3 2 3 4
M  V30 4 1 4 5
M  V30 5 2 5 6
M  V30 6 1 6 7
M  V30 7 2 7 8
M  V30 8 1 8 9
M  V30 9 1 9 10
M  V30 10 1 10 11
M  V30 11 1 11 12
M  V30 12 2 12 13
M  V30 13 1 13 14
M  V30 14 2 14 15
M  V30 15 1 15 16
M  V30 16 1 16 17
M  V30 17 2 16 18
M  V30 18 2 9 19
M  V30 19 1 19 20
M  V30 20 2 20 21
M  V30 21 1 21 22
M  V30 22 1 22 23
M  V30 23 2 23 24
M  V30 24 1 24 25
M  V30 25 2 25 26
M  V30 26 1 26 27
M  V30 27 1 26 28
M  V30 28 1 28 29
M  V30 29 2 28 30
M  V30 30 1 21 3
M  V30 31 1 30 23
M  V30 32 1 20 6
M  V30 33 1 18 12
M  V30 34 1 4 31
M  V30 35 1 7 32
M  V30 36 1 8 33
M  V30 37 1 10 34
M  V30 38 1 11 35
M  V30 39 1 11 36
M  V30 40 1 13 37
M  V30 41 1 14 38
M  V30 42 1 15 39
M  V30 43 1 17 40
M  V30 44 1 17 41
M  V30 45 1 18 42
M  V30 46 1 19 43
M  V30 47 1 22 44
M  V30 48 1 24 45
M  V30 49 1 25 46
M  V30 50 1 30 47
M  V30 END BOND
M  V30 END CTAB
M  END
>  <Dataset>  (323) 
ChEMBL_Kinases

>  <Ligand_Instance>  (323) 
nan

>  <PDB_ID>  (323) 
nan

>  <Standardized_SMILES>  (323) 
N#Cc1cnc2ccc(NCc3cccc(N)c3)cc2c1Nc1ccc(F)c(Cl)c1

>  <Name>  (323) 
nan

>  <Pocket>  (323) 
nan

>  <ATP_Site>  (323) 
nan

>  <Peripheral>  (323) 
nan

>  <Num_H_Atoms_ProtBoundConf>  (323) 
nan

>  <Num_Resolved_Atoms>  (323) 
nan

>  <Num_Not_Resolved_Atoms>  (323) 
nan

$$$$
CHEMBL222920
     RDKit          3D

  0  0  0  0  0  0  0  0  0  0999 V3000
M  V30 BEGIN CTAB
M  V30 COUNTS 52 54 0 0 0
M  V30 BEGIN ATOM
M  V30 1 C 3.619593 -4.646357 2.947117 0
M  V30 2 O 3.319633 -3.512112 2.221057 0
M  V30 3 C 2.338631 -3.682279 1.270131 0
M  V30 4 C 2.073642 -2.371837 0.512983 0
M  V30 5 C 1.639643 -1.387741 1.537517 0
M  V30 6 N 1.333583 -0.076799 1.068289 0
M  V30 7 C 2.263325 0.896545 0.983248 0
M  V30 8 S 3.985656 0.898871 1.367109 0
M  V30 9 C 4.180794 1.374683 3.107248 0
M  V30 10 N 1.721135 2.052746 0.513737 0
M  V30 11 C 0.397690 1.835705 0.282868 0
M  V30 12 C -0.609366 2.760568 -0.221073 0
M  V30 13 C -0.962358 3.921950 0.444307 0
M  V30 14 C -1.906949 4.826772 0.009070 0
M  V30 15 C -2.545841 4.539139 -1.190022 0
M  V30 16 F -3.489327 5.415756 -1.650870 0
M  V30 17 C -2.228560 3.389075 -1.894720 0
M  V30 18 C -1.273506 2.507735 -1.420968 0
M  V30 19 C 0.208152 0.518471 0.637122 0
M  V30 20 C -1.077314 -0.162836 0.558915 0
M  V30 21 C -2.018159 0.380557 1.442015 0
M  V30 22 C -3.286691 -0.202405 1.443525 0
M  V30 23 N -3.611974 -1.246161 0.635748 0
M  V30 24 C -2.709650 -1.770415 -0.214061 0
M  V30 25 N -2.928203 -2.858612 -1.106302 0
M  V30 26 C -2.697342 -4.213953 -0.751230 0
M  V30 27 C -2.939826 -5.331692 -1.720850 0
M  V30 28 O -2.281190 -4.556768 0.381792 0
M  V30 29 C -1.469493 -1.215810 -0.229671 0
M  V30 30 H 3.980443 -5.483555 2.301862 0
M  V30 31 H 4.482747 -4.361366 3.614652 0
M  V30 32 H 2.827528 -5.033869 3.584720 0
M  V30 33 H 2.650393 -4.469809 0.562757 0
M  V30 34 H 1.364506 -3.995669 1.743862 0
M  V30 35 H 3.079201 -2.088103 0.085642 0
M  V30 36 H 1.356070 -2.626172 -0.266084 0
M  V30 37 H 2.464494 -1.344793 2.303581 0
M  V30 38 H 0.704230 -1.792651 2.017541 0
M  V30 39 H 4.218337 2.479329 3.235788 0
M  V30 40 H 3.276594 1.014057 3.646673 0
M  V30 41 H 5.105247 0.875283 3.492903 0
M  V30 42 H -0.435225 4.113159 1.386133 0
M  V30 43 H -2.103530 5.703817 0.611082 0
M  V30 44 H -2.764683 3.212935 -2.834294 0
M  V30 45 H -1.030930 1.598985 -1.989487 0
M  V30 46 H -1.957821 1.193304 2.151605 0
M  V30 47 H -4.111072 0.099714 2.059760 0
M  V30 48 H -3.278964 -2.628532 -2.073489 0
M  V30 49 H -3.567911 -6.074482 -1.203932 0
M  V30 50 H -1.924354 -5.809125 -1.839696 0
M  V30 51 H -3.322209 -4.987196 -2.691999 0
M  V30 52 H -0.694480 -1.574600 -0.879924 0
M  V30 END ATOM
M  V30 BEGIN BOND
M  V30 1 1 1 2
M  V30 2 1 2 3
M  V30 3 1 3 4
M  V30 4 1 4 5
M  V30 5 1 5 6
M  V30 6 1 6 7
M  V30 7 1 7 8
M  V30 8 1 8 9
M  V30 9 2 7 10
M  V30 10 1 10 11
M  V30 11 1 11 12
M  V30 12 2 12 13
M  V30 13 1 13 14
M  V30 14 2 14 15
M  V30 15 1 15 16
M  V30 16 1 15 17
M  V30 17 2 17 18
M  V30 18 2 11 19
M  V30 19 1 19 20
M  V30 20 2 20 21
M  V30 21 1 21 22
M  V30 22 2 22 23
M  V30 23 1 23 24
M  V30 24 1 24 25
M  V30 25 1 25 26
M  V30 26 1 26 27
M  V30 27 2 26 28
M  V30 28 2 24 29
M  V30 29 1 19 6
M  V30 30 1 29 20
M  V30 31 1 18 12
M  V30 32 1 1 30
M  V30 33 1 1 31
M  V30 34 1 1 32
M  V30 35 1 3 33
M  V30 36 1 3 34
M  V30 37 1 4 35
M  V30 38 1 4 36
M  V30 39 1 5 37
M  V30 40 1 5 38
M  V30 41 1 9 39
M  V30 42 1 9 40
M  V30 43 1 9 41
M  V30 44 1 13 42
M  V30 45 1 14 43
M  V30 46 1 17 44
M  V30 47 1 18 45
M  V30 48 1 21 46
M  V30 49 1 22 47
M  V30 50 1 25 48
M  V30 51 1 27 49
M  V30 52 1 27 50
M  V30 53 1 27 51
M  V30 54 1 29 52
M  V30 END BOND
M  V30 END CTAB
M  END
>  <Dataset>  (324) 
ChEMBL_Kinases

>  <Ligand_Instance>  (324) 
nan

>  <PDB_ID>  (324) 
nan

>  <Standardized_SMILES>  (324) 
COCCCn1c(SC)nc(-c2ccc(F)cc2)c1-c1ccnc(NC(C)=O)c1

>  <Name>  (324) 
nan

>  <Pocket>  (324) 
nan

>  <ATP_Site>  (324) 
nan

>  <Peripheral>  (324) 
nan

>  <Num_H_Atoms_ProtBoundConf>  (324) 
nan

>  <Num_Resolved_Atoms>  (324) 
nan

>  <Num_Not_Resolved_Atoms>  (324) 
nan

$$$$
CHEMBL222785
     RDKit          3D

  0  0  0  0  0  0  0  0  0  0999 V3000
M  V30 BEGIN CTAB
M  V30 COUNTS 58 61 0 0 0
M  V30 BEGIN ATOM
M  V30 1 C -2.939626 -4.331995 -3.176201 0
M  V30 2 C -2.758313 -3.701350 -1.845365 0
M  V30 3 C -3.860948 -3.621309 -0.995232 0
M  V30 4 C -3.727899 -3.037061 0.247361 0
M  V30 5 C -2.497802 -2.542857 0.621192 0
M  V30 6 C -2.335916 -1.925009 1.927921 0
M  V30 7 N -1.098261 -1.383404 2.377026 0
M  V30 8 O -3.287194 -1.841026 2.723786 0
M  V30 9 C -1.446469 -2.650365 -0.258680 0
M  V30 10 C -1.516201 -3.220843 -1.508391 0
M  V30 11 N -0.359928 -3.290569 -2.325907 0
M  V30 12 C 0.844252 -2.688915 -1.853266 0
M  V30 13 N 1.814007 -3.191136 -1.054220 0
M  V30 14 C 2.880398 -2.469672 -0.703838 0
M  V30 15 N 3.863485 -3.041666 0.124693 0
M  V30 16 N 3.023694 -1.194500 -1.145097 0
M  V30 17 C 2.070736 -0.643447 -1.954638 0
M  V30 18 N 2.050707 0.667307 -2.500696 0
M  V30 19 C 1.185976 1.784399 -2.338411 0
M  V30 20 C 1.106436 2.333210 -0.948087 0 CFG=2
M  V30 21 C 0.634596 1.384258 0.097034 0
M  V30 22 C -0.408094 1.924753 1.040481 0
M  V30 23 C -0.761645 3.355140 0.799480 0 CFG=1
M  V30 24 C 0.500281 4.170485 0.498719 0
M  V30 25 C 0.343575 3.646426 -0.916151 0 CFG=2
M  V30 26 C -1.104883 3.544110 -0.657983 0
M  V30 27 C -1.928509 2.492283 -1.294815 0
M  V30 28 C -1.766452 4.897597 -0.948812 0
M  V30 29 N 1.025702 -1.430618 -2.265592 0
M  V30 30 H -2.864406 -5.441229 -3.073576 0
M  V30 31 H -3.965267 -4.158810 -3.575771 0
M  V30 32 H -2.159198 -3.991244 -3.869000 0
M  V30 33 H -4.829386 -4.017013 -1.304645 0
M  V30 34 H -4.535427 -2.935850 0.963080 0
M  V30 35 H -0.277034 -0.776804 2.172269 0
M  V30 36 H -0.634779 -1.554334 3.301562 0
M  V30 37 H -0.512597 -2.240438 0.101253 0
M  V30 38 H -0.248183 -3.727857 -3.253546 0
M  V30 39 H 3.735075 -2.841055 1.140015 0
M  V30 40 H 4.730905 -3.633549 0.063647 0
M  V30 41 H 2.910434 0.619418 -3.117654 0
M  V30 42 H 0.206563 1.550687 -2.782853 0
M  V30 43 H 1.580508 2.636879 -2.971093 0
M  V30 44 H 2.146221 2.635070 -0.697757 0
M  V30 45 H 0.295815 0.447625 -0.387240 0
M  V30 46 H 1.488513 1.034096 0.753264 0
M  V30 47 H -0.089345 1.871226 2.118493 0
M  V30 48 H -1.345349 1.319183 1.024232 0
M  V30 49 H -1.431496 3.771948 1.540418 0
M  V30 50 H 1.411519 3.833807 1.028754 0
M  V30 51 H 0.378467 5.262458 0.615186 0
M  V30 52 H 0.691724 4.337895 -1.687987 0
M  V30 53 H -3.000236 2.724483 -1.010497 0
M  V30 54 H -1.912047 2.662830 -2.399120 0
M  V30 55 H -1.780306 1.463690 -0.986181 0
M  V30 56 H -1.698644 5.025345 -2.065741 0
M  V30 57 H -1.259378 5.739647 -0.488505 0
M  V30 58 H -2.865571 4.842853 -0.757571 0
M  V30 END ATOM
M  V30 BEGIN BOND
M  V30 1 1 1 2
M  V30 2 2 2 3
M  V30 3 1 3 4
M  V30 4 2 4 5
M  V30 5 1 5 6
M  V30 6 1 6 7
M  V30 7 2 6 8
M  V30 8 1 5 9
M  V30 9 2 9 10
M  V30 10 1 10 11
M  V30 11 1 11 12
M  V30 12 2 12 13
M  V30 13 1 13 14
M  V30 14 1 14 15
M  V30 15 2 14 16
M  V30 16 1 16 17
M  V30 17 1 17 18
M  V30 18 1 18 19
M  V30 19 1 19 20
M  V30 20 1 20 21
M  V30 21 1 21 22
M  V30 22 1 22 23
M  V30 23 1 23 24
M  V30 24 1 24 25
M  V30 25 1 25 26
M  V30 26 1 26 27
M  V30 27 1 26 28
M  V30 28 2 17 29
M  V30 29 1 10 2
M  V30 30 1 29 12
M  V30 31 1 25 20
M  V30 32 1 26 23
M  V30 33 1 1 30
M  V30 34 1 1 31
M  V30 35 1 1 32
M  V30 36 1 3 33
M  V30 37 1 4 34
M  V30 38 1 7 35
M  V30 39 1 7 36
M  V30 40 1 9 37
M  V30 41 1 11 38
M  V30 42 1 15 39
M  V30 43 1 15 40
M  V30 44 1 18 41
M  V30 45 1 19 42
M  V30 46 1 19 43
M  V30 47 1 20 44 CFG=1
M  V30 48 1 21 45
M  V30 49 1 21 46
M  V30 50 1 22 47
M  V30 51 1 22 48
M  V30 52 1 23 49 CFG=1
M  V30 53 1 24 50
M  V30 54 1 24 51
M  V30 55 1 25 52 CFG=3
M  V30 56 1 27 53
M  V30 57 1 27 54
M  V30 58 1 27 55
M  V30 59 1 28 56
M  V30 60 1 28 57
M  V30 61 1 28 58
M  V30 END BOND
M  V30 END CTAB
M  END
>  <Dataset>  (325) 
ChEMBL_Kinases

>  <Ligand_Instance>  (325) 
nan

>  <PDB_ID>  (325) 
nan

>  <Standardized_SMILES>  (325) 
Cc1ccc(C(N)=O)cc1Nc1nc(N)nc(NC[C@@H]2CC[C@H]3C[C@@H]2C3(C)C)n1

>  <Name>  (325) 
nan

>  <Pocket>  (325) 
nan

>  <ATP_Site>  (325) 
nan

>  <Peripheral>  (325) 
nan

>  <Num_H_Atoms_ProtBoundConf>  (325) 
nan

>  <Num_Resolved_Atoms>  (325) 
nan

>  <Num_Not_Resolved_Atoms>  (325) 
nan

$$$$
CHEMBL222666
     RDKit          3D

  0  0  0  0  0  0  0  0  0  0999 V3000
M  V30 BEGIN CTAB
M  V30 COUNTS 45 48 0 0 0
M  V30 BEGIN ATOM
M  V30 1 N 1.799986 -4.978609 3.781009 0
M  V30 2 C 1.983964 -4.458776 2.763272 0
M  V30 3 C 2.206179 -3.796436 1.497242 0
M  V30 4 C 2.706761 -4.466626 0.384776 0
M  V30 5 N 2.900634 -3.799931 -0.791326 0
M  V30 6 C 2.599932 -2.505098 -0.840941 0
M  V30 7 C 2.807075 -1.865401 -2.038890 0
M  V30 8 C 2.528363 -0.532006 -2.192085 0
M  V30 9 C 2.022302 0.214267 -1.122950 0
M  V30 10 N 1.742877 1.591590 -1.276211 0
M  V30 11 C 1.211998 2.627781 -0.419309 0
M  V30 12 C -0.197943 2.421069 -0.020367 0
M  V30 13 C -0.779853 1.857211 1.089588 0
M  V30 14 C -2.148281 1.767262 1.215552 0
M  V30 15 C -2.983894 2.249507 0.214022 0
M  V30 16 C -2.376939 2.815203 -0.897450 0
M  V30 17 N -1.024643 2.884072 -0.982310 0 CHG=1 VAL=4
M  V30 18 O -0.654659 3.488794 -2.181419 0 CHG=-1 VAL=1
M  V30 19 C 1.837043 -0.483352 0.050003 0
M  V30 20 C 2.103051 -1.820727 0.247917 0
M  V30 21 C 1.893650 -2.458609 1.452066 0
M  V30 22 N 1.381037 -1.732245 2.559200 0
M  V30 23 C -0.025365 -1.651233 2.762949 0
M  V30 24 C -0.556937 -0.945869 3.839810 0
M  V30 25 C -1.917172 -0.858997 4.049657 0
M  V30 26 C -2.730411 -1.508329 3.136023 0
M  V30 27 F -4.074801 -1.447036 3.307019 0
M  V30 28 C -2.266331 -2.222389 2.050292 0
M  V30 29 Cl -3.342675 -3.025135 0.925073 0
M  V30 30 C -0.896495 -2.276153 1.888933 0
M  V30 31 H 2.904209 -5.521012 0.581644 0
M  V30 32 H 3.194998 -2.385432 -2.900286 0
M  V30 33 H 2.701763 -0.054861 -3.148014 0
M  V30 34 H 1.966292 1.973539 -2.239170 0
M  V30 35 H 1.373244 3.635589 -0.843444 0
M  V30 36 H 1.800708 2.630846 0.557869 0
M  V30 37 H -0.061300 1.524124 1.810890 0
M  V30 38 H -2.471166 1.299303 2.142125 0
M  V30 39 H -4.049136 2.148658 0.373951 0
M  V30 40 H -3.086428 3.162989 -1.623513 0
M  V30 41 H 1.462083 0.006812 0.911876 0
M  V30 42 H 2.026293 -1.263681 3.215343 0
M  V30 43 H 0.150213 -0.468934 4.504284 0
M  V30 44 H -2.315358 -0.306306 4.892372 0
M  V30 45 H -0.516036 -2.838436 1.033071 0
M  V30 END ATOM
M  V30 BEGIN BOND
M  V30 1 3 1 2
M  V30 2 1 2 3
M  V30 3 2 3 4
M  V30 4 1 4 5
M  V30 5 2 5 6
M  V30 6 1 6 7
M  V30 7 2 7 8
M  V30 8 1 8 9
M  V30 9 1 9 10
M  V30 10 1 10 11
M  V30 11 1 11 12
M  V30 12 2 12 13
M  V30 13 1 13 14
M  V30 14 2 14 15
M  V30 15 1 15 16
M  V30 16 2 16 17
M  V30 17 1 17 18
M  V30 18 2 9 19
M  V30 19 1 19 20
M  V30 20 2 20 21
M  V30 21 1 21 22
M  V30 22 1 22 23
M  V30 23 2 23 24
M  V30 24 1 24 25
M  V30 25 2 25 26
M  V30 26 1 26 27
M  V30 27 1 26 28
M  V30 28 1 28 29
M  V30 29 2 28 30
M  V30 30 1 21 3
M  V30 31 1 30 23
M  V30 32 1 20 6
M  V30 33 1 17 12
M  V30 34 1 4 31
M  V30 35 1 7 32
M  V30 36 1 8 33
M  V30 37 1 10 34
M  V30 38 1 11 35
M  V30 39 1 11 36
M  V30 40 1 13 37
M  V30 41 1 14 38
M  V30 42 1 15 39
M  V30 43 1 16 40
M  V30 44 1 19 41
M  V30 45 1 22 42
M  V30 46 1 24 43
M  V30 47 1 25 44
M  V30 48 1 30 45
M  V30 END BOND
M  V30 END CTAB
M  END
>  <Dataset>  (326) 
ChEMBL_Kinases

>  <Ligand_Instance>  (326) 
nan

>  <PDB_ID>  (326) 
nan

>  <Standardized_SMILES>  (326) 
N#Cc1cnc2ccc(NCc3cccc[n+]3[O-])cc2c1Nc1ccc(F)c(Cl)c1

>  <Name>  (326) 
nan

>  <Pocket>  (326) 
nan

>  <ATP_Site>  (326) 
nan

>  <Peripheral>  (326) 
nan

>  <Num_H_Atoms_ProtBoundConf>  (326) 
nan

>  <Num_Resolved_Atoms>  (326) 
nan

>  <Num_Not_Resolved_Atoms>  (326) 
nan

$$$$
CHEMBL222556
     RDKit          3D

  0  0  0  0  0  0  0  0  0  0999 V3000
M  V30 BEGIN CTAB
M  V30 COUNTS 29 31 0 0 0
M  V30 BEGIN ATOM
M  V30 1 O -1.435001 -4.015397 0.968743 0
M  V30 2 C -0.652931 -3.037047 1.142685 0
M  V30 3 C -0.863958 -1.822802 0.523834 0
M  V30 4 C -0.016845 -0.750478 0.707365 0
M  V30 5 C -0.187209 0.557133 0.081115 0
M  V30 6 C 0.743809 1.525926 0.364010 0
M  V30 7 C 0.594669 2.783594 -0.227927 0
M  V30 8 C -0.442010 3.102851 -1.083800 0
M  V30 9 O -0.542876 4.369404 -1.645069 0
M  V30 10 C -1.381336 2.107779 -1.362396 0
M  V30 11 O -2.439698 2.390617 -2.219500 0
M  V30 12 C -1.222717 0.871283 -0.771954 0
M  V30 13 O 1.011329 -0.920126 1.499304 0
M  V30 14 C 1.254113 -2.069708 2.115570 0
M  V30 15 C 2.354162 -2.191065 2.939593 0
M  V30 16 C 2.628814 -3.372605 3.590731 0
M  V30 17 C 1.817891 -4.479588 3.446174 0
M  V30 18 C 0.707600 -4.375489 2.621593 0
M  V30 19 C 0.438382 -3.189740 1.972666 0
M  V30 20 H -1.718016 -1.696599 -0.128315 0
M  V30 21 H 1.584029 1.353778 1.024166 0
M  V30 22 H 1.344654 3.519904 0.017015 0
M  V30 23 H 0.015125 4.656669 -2.460142 0
M  V30 24 H -2.380699 1.970627 -3.146427 0
M  V30 25 H -1.958716 0.126221 -1.003634 0
M  V30 26 H 3.037238 -1.340070 3.092849 0
M  V30 27 H 3.489584 -3.519019 4.255437 0
M  V30 28 H 1.937813 -5.437396 3.901451 0
M  V30 29 H 0.005696 -5.171058 2.433560 0
M  V30 END ATOM
M  V30 BEGIN BOND
M  V30 1 2 1 2
M  V30 2 1 2 3
M  V30 3 2 3 4
M  V30 4 1 4 5
M  V30 5 2 5 6
M  V30 6 1 6 7
M  V30 7 2 7 8
M  V30 8 1 8 9
M  V30 9 1 8 10
M  V30 10 1 10 11
M  V30 11 2 10 12
M  V30 12 1 4 13
M  V30 13 1 13 14
M  V30 14 2 14 15
M  V30 15 1 15 16
M  V30 16 2 16 17
M  V30 17 1 17 18
M  V30 18 2 18 19
M  V30 19 1 19 2
M  V30 20 1 12 5
M  V30 21 1 19 14
M  V30 22 1 3 20
M  V30 23 1 6 21
M  V30 24 1 7 22
M  V30 25 1 9 23
M  V30 26 1 11 24
M  V30 27 1 12 25
M  V30 28 1 15 26
M  V30 29 1 16 27
M  V30 30 1 17 28
M  V30 31 1 18 29
M  V30 END BOND
M  V30 END CTAB
M  END
>  <Dataset>  (327) 
ChEMBL_Kinases

>  <Ligand_Instance>  (327) 
nan

>  <PDB_ID>  (327) 
nan

>  <Standardized_SMILES>  (327) 
O=c1cc(-c2ccc(O)c(O)c2)oc2ccccc12

>  <Name>  (327) 
nan

>  <Pocket>  (327) 
nan

>  <ATP_Site>  (327) 
nan

>  <Peripheral>  (327) 
nan

>  <Num_H_Atoms_ProtBoundConf>  (327) 
nan

>  <Num_Resolved_Atoms>  (327) 
nan

>  <Num_Not_Resolved_Atoms>  (327) 
nan

$$$$
CHEMBL222467
     RDKit          3D

  0  0  0  0  0  0  0  0  0  0999 V3000
M  V30 BEGIN CTAB
M  V30 COUNTS 42 45 0 0 0
M  V30 BEGIN ATOM
M  V30 1 N 1.019166 -4.673284 4.735004 0
M  V30 2 C 1.397576 -3.846441 4.026445 0
M  V30 3 C 1.856429 -2.811159 3.145205 0
M  V30 4 C 3.206245 -2.530741 3.090984 0
M  V30 5 N 3.645989 -1.561839 2.267792 0
M  V30 6 C 2.779715 -0.871906 1.504084 0
M  V30 7 C 3.267235 0.114763 0.671617 0
M  V30 8 C 2.341691 0.794635 -0.091823 0
M  V30 9 C 0.996015 0.572393 -0.089957 0
M  V30 10 N 0.048246 1.275322 -0.868275 0
M  V30 11 C 0.201342 2.366707 -1.804337 0
M  V30 12 C 0.664212 3.600113 -1.140243 0
M  V30 13 C 1.814872 4.290393 -0.842786 0
M  V30 14 C 1.531627 5.451559 -0.155193 0
M  V30 15 C 0.156537 5.417169 -0.059235 0
M  V30 16 O -0.303555 4.337886 -0.637365 0
M  V30 17 C 0.572338 -0.417371 0.754739 0
M  V30 18 C 1.425747 -1.131111 1.538213 0
M  V30 19 C 0.942124 -2.121568 2.374583 0
M  V30 20 N -0.457048 -2.386614 2.407264 0
M  V30 21 C -1.236974 -3.289356 1.630527 0
M  V30 22 C -2.587549 -3.349238 1.868312 0
M  V30 23 C -3.336939 -4.224007 1.114215 0
M  V30 24 C -2.694218 -4.997229 0.156948 0
M  V30 25 F -3.493884 -5.841588 -0.553933 0
M  V30 26 C -1.325978 -4.950649 -0.098778 0
M  V30 27 Cl -0.623698 -5.968570 -1.326957 0
M  V30 28 C -0.610490 -4.063691 0.675704 0
M  V30 29 H 3.905184 -3.091913 3.711307 0
M  V30 30 H 4.325434 0.323694 0.639043 0
M  V30 31 H 2.750544 1.548663 -0.730714 0
M  V30 32 H -0.971426 0.977473 -0.774810 0
M  V30 33 H 1.076406 2.033035 -2.456901 0
M  V30 34 H -0.669335 2.508761 -2.447744 0
M  V30 35 H 2.745947 3.855359 -1.176045 0
M  V30 36 H 2.263415 6.150540 0.182846 0
M  V30 37 H -0.433279 6.197963 0.436580 0
M  V30 38 H -0.493210 -0.669780 0.826105 0
M  V30 39 H -0.864355 -1.781888 3.134750 0
M  V30 40 H -3.018581 -2.719532 2.627322 0
M  V30 41 H -4.404099 -4.304467 1.267199 0
M  V30 42 H 0.455472 -4.005033 0.500023 0
M  V30 END ATOM
M  V30 BEGIN BOND
M  V30 1 3 1 2
M  V30 2 1 2 3
M  V30 3 2 3 4
M  V30 4 1 4 5
M  V30 5 2 5 6
M  V30 6 1 6 7
M  V30 7 2 7 8
M  V30 8 1 8 9
M  V30 9 1 9 10
M  V30 10 1 10 11
M  V30 11 1 11 12
M  V30 12 2 12 13
M  V30 13 1 13 14
M  V30 14 2 14 15
M  V30 15 1 15 16
M  V30 16 2 9 17
M  V30 17 1 17 18
M  V30 18 2 18 19
M  V30 19 1 19 20
M  V30 20 1 20 21
M  V30 21 2 21 22
M  V30 22 1 22 23
M  V30 23 2 23 24
M  V30 24 1 24 25
M  V30 25 1 24 26
M  V30 26 1 26 27
M  V30 27 2 26 28
M  V30 28 1 19 3
M  V30 29 1 28 21
M  V30 30 1 18 6
M  V30 31 1 16 12
M  V30 32 1 4 29
M  V30 33 1 7 30
M  V30 34 1 8 31
M  V30 35 1 10 32
M  V30 36 1 11 33
M  V30 37 1 11 34
M  V30 38 1 13 35
M  V30 39 1 14 36
M  V30 40 1 15 37
M  V30 41 1 17 38
M  V30 42 1 20 39
M  V30 43 1 22 40
M  V30 44 1 23 41
M  V30 45 1 28 42
M  V30 END BOND
M  V30 END CTAB
M  END
>  <Dataset>  (328) 
ChEMBL_Kinases

>  <Ligand_Instance>  (328) 
nan

>  <PDB_ID>  (328) 
nan

>  <Standardized_SMILES>  (328) 
N#Cc1cnc2ccc(NCc3ccco3)cc2c1Nc1ccc(F)c(Cl)c1

>  <Name>  (328) 
nan

>  <Pocket>  (328) 
nan

>  <ATP_Site>  (328) 
nan

>  <Peripheral>  (328) 
nan

>  <Num_H_Atoms_ProtBoundConf>  (328) 
nan

>  <Num_Resolved_Atoms>  (328) 
nan

>  <Num_Not_Resolved_Atoms>  (328) 
nan

$$$$
CHEMBL222421
     RDKit          3D

  0  0  0  0  0  0  0  0  0  0999 V3000
M  V30 BEGIN CTAB
M  V30 COUNTS 51 53 0 0 0
M  V30 BEGIN ATOM
M  V30 1 N 4.192927 5.092262 2.993604 0
M  V30 2 C 4.337844 3.979429 2.734577 0
M  V30 3 C 4.536475 2.605391 2.430119 0
M  V30 4 N 5.426798 1.659850 2.732889 0
M  V30 5 C 5.213818 0.422983 2.191851 0
M  V30 6 C 4.181162 0.041669 1.367042 0
M  V30 7 N 3.289419 1.000126 1.067919 0
M  V30 8 C 3.512806 2.231686 1.614647 0
M  V30 9 O 2.397508 2.522354 0.951543 0
M  V30 10 C 2.175202 3.323942 -0.170985 0
M  V30 11 C 0.653803 3.205939 -0.526959 0
M  V30 12 C 0.375837 1.739552 -0.738169 0
M  V30 13 C -1.065856 1.441410 -1.040042 0
M  V30 14 C -1.210648 -0.094658 -1.188276 0
M  V30 15 O -0.741421 -0.698303 0.001581 0
M  V30 16 C -0.696160 -2.023779 0.297334 0
M  V30 17 C -1.954792 -2.552832 0.470423 0
M  V30 18 C -2.251958 -3.884744 0.784361 0
M  V30 19 N -3.599520 -4.351472 0.928746 0
M  V30 20 C -4.849120 -3.662278 0.846212 0
M  V30 21 C -5.038378 -2.789349 2.062533 0
M  V30 22 O -6.272837 -2.104873 1.981257 0
M  V30 23 C -1.161015 -4.755222 0.933536 0
M  V30 24 Cl -1.495717 -6.428941 1.325089 0
M  V30 25 C 0.097400 -4.219566 0.758520 0
M  V30 26 C 0.355629 -2.901573 0.450277 0
M  V30 27 N 1.753614 -2.715442 0.348397 0
M  V30 28 C 2.627010 -1.683674 0.755500 0
M  V30 29 O 1.559674 -1.183921 1.165838 0
M  V30 30 N 3.965704 -1.234911 0.793075 0
M  V30 31 H 5.930365 -0.350305 2.430770 0
M  V30 32 H 2.342396 4.375973 0.066060 0
M  V30 33 H 2.709493 3.007210 -1.075018 0
M  V30 34 H 0.524838 3.753637 -1.453570 0
M  V30 35 H 0.068889 3.616737 0.293880 0
M  V30 36 H 0.699848 1.150615 0.176569 0
M  V30 37 H 1.012211 1.331158 -1.548857 0
M  V30 38 H -1.407727 1.957919 -1.936118 0
M  V30 39 H -1.675686 1.749247 -0.172840 0
M  V30 40 H -2.284041 -0.350143 -1.285953 0
M  V30 41 H -0.648943 -0.382386 -2.092972 0
M  V30 42 H -2.851348 -1.957704 0.358036 0
M  V30 43 H -3.663343 -5.385598 1.132061 0
M  V30 44 H -4.886786 -3.045089 -0.095181 0
M  V30 45 H -5.672861 -4.400325 0.831391 0
M  V30 46 H -5.155952 -3.426640 2.981606 0
M  V30 47 H -4.235623 -2.080701 2.199466 0
M  V30 48 H -6.994167 -2.671394 2.308707 0
M  V30 49 H 0.839357 -4.999644 0.902091 0
M  V30 50 H 2.395111 -3.398694 -0.095748 0
M  V30 51 H 4.886465 -1.601635 0.477840 0
M  V30 END ATOM
M  V30 BEGIN BOND
M  V30 1 3 1 2
M  V30 2 1 2 3
M  V30 3 2 3 4
M  V30 4 1 4 5
M  V30 5 2 5 6
M  V30 6 1 6 7
M  V30 7 2 7 8
M  V30 8 1 8 9
M  V30 9 1 9 10
M  V30 10 1 10 11
M  V30 11 1 11 12
M  V30 12 1 12 13
M  V30 13 1 13 14
M  V30 14 1 14 15
M  V30 15 1 15 16
M  V30 16 2 16 17
M  V30 17 1 17 18
M  V30 18 1 18 19
M  V30 19 1 19 20
M  V30 20 1 20 21
M  V30 21 1 21 22
M  V30 22 2 18 23
M  V30 23 1 23 24
M  V30 24 1 23 25
M  V30 25 2 25 26
M  V30 26 1 26 27
M  V30 27 1 27 28
M  V30 28 2 28 29
M  V30 29 1 28 30
M  V30 30 1 8 3
M  V30 31 1 26 16
M  V30 32 1 30 6
M  V30 33 1 5 31
M  V30 34 1 10 32
M  V30 35 1 10 33
M  V30 36 1 11 34
M  V30 37 1 11 35
M  V30 38 1 12 36
M  V30 39 1 12 37
M  V30 40 1 13 38
M  V30 41 1 13 39
M  V30 42 1 14 40
M  V30 43 1 14 41
M  V30 44 1 17 42
M  V30 45 1 19 43
M  V30 46 1 20 44
M  V30 47 1 20 45
M  V30 48 1 21 46
M  V30 49 1 21 47
M  V30 50 1 22 48
M  V30 51 1 25 49
M  V30 52 1 27 50
M  V30 53 1 30 51
M  V30 END BOND
M  V30 END CTAB
M  END
>  <Dataset>  (329) 
ChEMBL_Kinases

>  <Ligand_Instance>  (329) 
nan

>  <PDB_ID>  (329) 
nan

>  <Standardized_SMILES>  (329) 
N#Cc1ncc2nc1OCCCCCOc1cc(NCCO)c(Cl)cc1NC(=O)N2

>  <Name>  (329) 
nan

>  <Pocket>  (329) 
nan

>  <ATP_Site>  (329) 
nan

>  <Peripheral>  (329) 
nan

>  <Num_H_Atoms_ProtBoundConf>  (329) 
nan

>  <Num_Resolved_Atoms>  (329) 
nan

>  <Num_Not_Resolved_Atoms>  (329) 
nan

$$$$
CHEMBL222414
     RDKit          3D

  0  0  0  0  0  0  0  0  0  0999 V3000
M  V30 BEGIN CTAB
M  V30 COUNTS 55 58 0 0 0
M  V30 BEGIN ATOM
M  V30 1 N 5.494467 1.117644 6.282107 0
M  V30 2 C 5.284439 1.204341 5.138109 0
M  V30 3 C 5.037702 1.333181 3.728479 0
M  V30 4 N 5.807143 2.061491 2.902893 0
M  V30 5 C 5.541954 2.161199 1.571358 0
M  V30 6 C 4.463110 1.479167 1.163051 0
M  V30 7 N 3.692949 0.755607 1.955994 0
M  V30 8 C 3.946016 0.654203 3.264245 0
M  V30 9 O 3.032094 -0.150173 3.987697 0
M  V30 10 C 1.794813 -0.493252 3.319288 0
M  V30 11 C 1.082923 0.775495 3.016802 0
M  V30 12 C -0.084604 0.580446 2.063104 0
M  V30 13 C -0.613916 1.940968 1.736840 0
M  V30 14 C -1.639184 1.998382 0.651296 0
M  V30 15 O -1.134274 1.616141 -0.562779 0
M  V30 16 C -0.584331 0.483814 -1.058822 0
M  V30 17 C -1.508439 -0.542754 -1.062665 0
M  V30 18 C -1.301119 -1.834703 -1.499808 0
M  V30 19 O -2.272518 -2.836651 -1.481508 0
M  V30 20 C -3.581028 -2.552669 -0.985156 0
M  V30 21 C -4.427884 -3.753993 -1.062754 0
M  V30 22 C -4.040933 -4.984897 -1.531571 0
M  V30 23 C -4.911827 -6.059395 -1.565283 0
M  V30 24 C -6.207932 -5.837980 -1.099884 0
M  V30 25 C -6.584241 -4.592583 -0.630279 0
M  V30 26 N -5.688675 -3.590108 -0.624626 0
M  V30 27 C -0.062065 -2.186547 -1.992249 0
M  V30 28 Cl 0.240031 -3.803565 -2.553405 0
M  V30 29 C 0.879463 -1.144726 -1.989387 0
M  V30 30 C 0.664269 0.174056 -1.541245 0
M  V30 31 N 1.910096 0.829846 -1.732406 0
M  V30 32 C 3.064160 1.255303 -1.085562 0
M  V30 33 O 2.299929 0.707611 -0.251963 0
M  V30 34 N 4.126462 1.589351 -0.216317 0
M  V30 35 H 6.105067 2.717399 0.867729 0
M  V30 36 H 1.235092 -1.159908 4.001913 0
M  V30 37 H 2.024143 -1.085846 2.400135 0
M  V30 38 H 1.760070 1.543115 2.642684 0
M  V30 39 H 0.637957 1.143403 4.003891 0
M  V30 40 H -0.886313 0.063064 2.667600 0
M  V30 41 H 0.142156 -0.054050 1.225731 0
M  V30 42 H -1.004785 2.439603 2.669913 0
M  V30 43 H 0.256288 2.574921 1.386457 0
M  V30 44 H -2.588125 1.485220 0.930142 0
M  V30 45 H -1.941584 3.088066 0.573279 0
M  V30 46 H -2.543171 -0.425535 -0.702444 0
M  V30 47 H -4.075118 -1.735538 -1.560513 0
M  V30 48 H -3.460878 -2.194490 0.066504 0
M  V30 49 H -3.017839 -5.067113 -1.872753 0
M  V30 50 H -4.549563 -7.015585 -1.948615 0
M  V30 51 H -6.833084 -6.720083 -1.155425 0
M  V30 52 H -7.605384 -4.492207 -0.284673 0
M  V30 53 H 1.840219 -1.506542 -2.405376 0
M  V30 54 H 1.977170 1.065253 -2.720966 0
M  V30 55 H 4.753712 2.041671 -0.931560 0
M  V30 END ATOM
M  V30 BEGIN BOND
M  V30 1 3 1 2
M  V30 2 1 2 3
M  V30 3 2 3 4
M  V30 4 1 4 5
M  V30 5 2 5 6
M  V30 6 1 6 7
M  V30 7 2 7 8
M  V30 8 1 8 9
M  V30 9 1 9 10
M  V30 10 1 10 11
M  V30 11 1 11 12
M  V30 12 1 12 13
M  V30 13 1 13 14
M  V30 14 1 14 15
M  V30 15 1 15 16
M  V30 16 2 16 17
M  V30 17 1 17 18
M  V30 18 1 18 19
M  V30 19 1 19 20
M  V30 20 1 20 21
M  V30 21 2 21 22
M  V30 22 1 22 23
M  V30 23 2 23 24
M  V30 24 1 24 25
M  V30 25 2 25 26
M  V30 26 2 18 27
M  V30 27 1 27 28
M  V30 28 1 27 29
M  V30 29 2 29 30
M  V30 30 1 30 31
M  V30 31 1 31 32
M  V30 32 2 32 33
M  V30 33 1 32 34
M  V30 34 1 8 3
M  V30 35 1 30 16
M  V30 36 1 34 6
M  V30 37 1 26 21
M  V30 38 1 5 35
M  V30 39 1 10 36
M  V30 40 1 10 37
M  V30 41 1 11 38
M  V30 42 1 11 39
M  V30 43 1 12 40
M  V30 44 1 12 41
M  V30 45 1 13 42
M  V30 46 1 13 43
M  V30 47 1 14 44
M  V30 48 1 14 45
M  V30 49 1 17 46
M  V30 50 1 20 47
M  V30 51 1 20 48
M  V30 52 1 22 49
M  V30 53 1 23 50
M  V30 54 1 24 51
M  V30 55 1 25 52
M  V30 56 1 29 53
M  V30 57 1 31 54
M  V30 58 1 34 55
M  V30 END BOND
M  V30 END CTAB
M  END
>  <Dataset>  (330) 
ChEMBL_Kinases

>  <Ligand_Instance>  (330) 
nan

>  <PDB_ID>  (330) 
nan

>  <Standardized_SMILES>  (330) 
N#Cc1ncc2nc1OCCCCCOc1cc(OCc3ccccn3)c(Cl)cc1NC(=O)N2

>  <Name>  (330) 
nan

>  <Pocket>  (330) 
nan

>  <ATP_Site>  (330) 
nan

>  <Peripheral>  (330) 
nan

>  <Num_H_Atoms_ProtBoundConf>  (330) 
nan

>  <Num_Resolved_Atoms>  (330) 
nan

>  <Num_Not_Resolved_Atoms>  (330) 
nan

$$$$
CHEMBL222413
     RDKit          3D

  0  0  0  0  0  0  0  0  0  0999 V3000
M  V30 BEGIN CTAB
M  V30 COUNTS 55 58 0 0 0
M  V30 BEGIN ATOM
M  V30 1 N 6.000163 -0.214046 5.608264 0
M  V30 2 C 5.650937 0.049020 4.518925 0
M  V30 3 C 5.241357 0.382132 3.160992 0
M  V30 4 N 6.091458 0.854309 2.238491 0
M  V30 5 C 5.623941 1.133906 1.014832 0
M  V30 6 C 4.318114 0.920941 0.786265 0
M  V30 7 N 3.484086 0.454225 1.697891 0
M  V30 8 C 3.908764 0.163351 2.931509 0
M  V30 9 O 2.898898 -0.318844 3.780701 0
M  V30 10 C 1.544370 -0.296042 3.328353 0
M  V30 11 C 1.132774 1.115572 3.063652 0
M  V30 12 C -0.158014 1.195751 2.261996 0
M  V30 13 C -0.474863 2.623447 1.905400 0
M  V30 14 C -1.583623 2.809218 0.931279 0
M  V30 15 O -1.357954 2.306603 -0.354922 0
M  V30 16 C -1.113651 1.036097 -0.780641 0
M  V30 17 C -2.146921 0.104124 -0.611174 0
M  V30 18 C -2.177760 -1.244033 -0.950919 0
M  V30 19 O -3.154024 -1.970837 -0.749513 0
M  V30 20 C -4.197967 -2.698328 -0.521208 0
M  V30 21 C -4.098787 -4.159900 -0.940472 0
M  V30 22 C -4.473379 -4.600239 -2.204805 0
M  V30 23 C -4.344018 -5.951637 -2.486797 0
M  V30 24 C -3.853842 -6.844975 -1.534750 0
M  V30 25 N -3.507216 -6.360290 -0.327905 0
M  V30 26 C -3.606948 -5.056911 0.014496 0
M  V30 27 C -1.018006 -1.732426 -1.542595 0
M  V30 28 Cl -0.999223 -3.415721 -1.990691 0
M  V30 29 C 0.055949 -0.844535 -1.739781 0
M  V30 30 C 0.019966 0.510812 -1.370041 0
M  V30 31 N 1.303496 1.004943 -1.732711 0
M  V30 32 C 2.588252 1.159642 -1.183616 0
M  V30 33 O 1.872002 0.639598 -0.323583 0
M  V30 34 N 3.820069 1.251310 -0.505437 0
M  V30 35 H 6.207542 1.513668 0.202530 0
M  V30 36 H 0.959634 -0.703465 4.186211 0
M  V30 37 H 1.374461 -0.986262 2.484435 0
M  V30 38 H 1.948360 1.703921 2.653507 0
M  V30 39 H 0.914931 1.549005 4.102809 0
M  V30 40 H -0.946451 0.811508 2.989021 0
M  V30 41 H -0.190203 0.476392 1.444059 0
M  V30 42 H -0.818881 3.110523 2.864998 0
M  V30 43 H 0.441213 3.197524 1.627039 0
M  V30 44 H -2.454016 2.206483 1.338315 0
M  V30 45 H -1.981918 3.844829 0.908285 0
M  V30 46 H -3.060023 0.477051 -0.148994 0
M  V30 47 H -5.082047 -2.348448 -1.167804 0
M  V30 48 H -4.579852 -2.761424 0.544938 0
M  V30 49 H -4.840195 -3.854511 -2.880383 0
M  V30 50 H -4.637733 -6.289603 -3.474712 0
M  V30 51 H -3.761740 -7.896995 -1.778438 0
M  V30 52 H -3.329876 -4.672814 0.977805 0
M  V30 53 H 0.936339 -1.306162 -2.225539 0
M  V30 54 H 1.170314 1.291502 -2.666168 0
M  V30 55 H 4.386820 1.690106 -1.266152 0
M  V30 END ATOM
M  V30 BEGIN BOND
M  V30 1 3 1 2
M  V30 2 1 2 3
M  V30 3 2 3 4
M  V30 4 1 4 5
M  V30 5 2 5 6
M  V30 6 1 6 7
M  V30 7 2 7 8
M  V30 8 1 8 9
M  V30 9 1 9 10
M  V30 10 1 10 11
M  V30 11 1 11 12
M  V30 12 1 12 13
M  V30 13 1 13 14
M  V30 14 1 14 15
M  V30 15 1 15 16
M  V30 16 2 16 17
M  V30 17 1 17 18
M  V30 18 1 18 19
M  V30 19 1 19 20
M  V30 20 1 20 21
M  V30 21 2 21 22
M  V30 22 1 22 23
M  V30 23 2 23 24
M  V30 24 1 24 25
M  V30 25 2 25 26
M  V30 26 2 18 27
M  V30 27 1 27 28
M  V30 28 1 27 29
M  V30 29 2 29 30
M  V30 30 1 30 31
M  V30 31 1 31 32
M  V30 32 2 32 33
M  V30 33 1 32 34
M  V30 34 1 8 3
M  V30 35 1 30 16
M  V30 36 1 34 6
M  V30 37 1 26 21
M  V30 38 1 5 35
M  V30 39 1 10 36
M  V30 40 1 10 37
M  V30 41 1 11 38
M  V30 42 1 11 39
M  V30 43 1 12 40
M  V30 44 1 12 41
M  V30 45 1 13 42
M  V30 46 1 13 43
M  V30 47 1 14 44
M  V30 48 1 14 45
M  V30 49 1 17 46
M  V30 50 1 20 47
M  V30 51 1 20 48
M  V30 52 1 22 49
M  V30 53 1 23 50
M  V30 54 1 24 51
M  V30 55 1 26 52
M  V30 56 1 29 53
M  V30 57 1 31 54
M  V30 58 1 34 55
M  V30 END BOND
M  V30 END CTAB
M  END
>  <Dataset>  (331) 
ChEMBL_Kinases

>  <Ligand_Instance>  (331) 
nan

>  <PDB_ID>  (331) 
nan

>  <Standardized_SMILES>  (331) 
N#Cc1ncc2nc1OCCCCCOc1cc(OCc3cccnc3)c(Cl)cc1NC(=O)N2

>  <Name>  (331) 
nan

>  <Pocket>  (331) 
nan

>  <ATP_Site>  (331) 
nan

>  <Peripheral>  (331) 
nan

>  <Num_H_Atoms_ProtBoundConf>  (331) 
nan

>  <Num_Resolved_Atoms>  (331) 
nan

>  <Num_Not_Resolved_Atoms>  (331) 
nan

$$$$
CHEMBL221862
     RDKit          3D

  0  0  0  0  0  0  0  0  0  0999 V3000
M  V30 BEGIN CTAB
M  V30 COUNTS 56 60 0 0 0
M  V30 BEGIN ATOM
M  V30 1 N -0.240268 -1.281377 -10.240414 0
M  V30 2 C 0.356196 -1.306400 -9.240652 0
M  V30 3 C 1.074569 -1.347559 -7.994589 0
M  V30 4 C 2.387168 -1.813548 -8.096230 0
M  V30 5 C 3.163544 -1.890210 -6.946168 0
M  V30 6 C 2.594260 -1.498855 -5.750983 0
M  V30 7 N 3.297898 -1.551015 -4.603946 0
M  V30 8 C 2.807534 -1.185618 -3.402983 0
M  V30 9 O 3.521633 -1.261436 -2.378222 0
M  V30 10 C 1.517205 -0.720147 -3.258098 0
M  V30 11 C 0.898025 -0.301311 -2.001885 0
M  V30 12 C 1.467345 -0.288926 -0.745860 0
M  V30 13 C 0.538156 0.178572 0.161064 0
M  V30 14 C 0.517119 0.410280 1.521664 0
M  V30 15 C -0.577405 0.897988 2.207759 0
M  V30 16 C -0.583088 1.141384 3.673620 0
M  V30 17 N -1.014103 -0.003096 4.443075 0
M  V30 18 C -0.165048 -1.152260 4.231521 0
M  V30 19 C -0.808768 -2.347855 4.916609 0
M  V30 20 C -1.619253 -1.966506 6.113087 0
M  V30 21 C -3.076927 -1.717428 5.752043 0
M  V30 22 N -3.837844 -1.348392 6.939685 0
M  V30 23 C -1.089740 -0.750433 6.800236 0
M  V30 24 C -0.910435 0.377558 5.838638 0
M  V30 25 C -1.707224 1.155586 1.426053 0
M  V30 26 C -1.716170 0.932995 0.058467 0
M  V30 27 C -0.593032 0.442806 -0.583317 0
M  V30 28 N -0.363105 0.150976 -1.875646 0
M  V30 29 C 0.795854 -0.667223 -4.437311 0
M  V30 30 C 1.294013 -1.040887 -5.672365 0
M  V30 31 C 0.503217 -0.955565 -6.799748 0
M  V30 32 H 2.822369 -2.117751 -9.040722 0
M  V30 33 H 4.186797 -2.244408 -6.970262 0
M  V30 34 H 4.296956 -1.898990 -4.640768 0
M  V30 35 H 2.445297 -0.573664 -0.443652 0
M  V30 36 H 1.423629 0.188909 2.057446 0
M  V30 37 H -1.278749 1.973085 3.860422 0
M  V30 38 H 0.434000 1.470301 4.005024 0
M  V30 39 H 0.826728 -1.007116 4.705275 0
M  V30 40 H -0.054970 -1.354249 3.144916 0
M  V30 41 H -0.025310 -3.110993 5.172642 0
M  V30 42 H -1.451493 -2.826015 4.147793 0
M  V30 43 H -1.567961 -2.828050 6.833265 0
M  V30 44 H -3.538902 -2.658842 5.382639 0
M  V30 45 H -3.133989 -0.936245 4.989596 0
M  V30 46 H -4.056751 -2.153900 7.537751 0
M  V30 47 H -4.611661 -0.690355 6.747479 0
M  V30 48 H -1.876921 -0.446958 7.545128 0
M  V30 49 H -0.179611 -0.943091 7.396946 0
M  V30 50 H 0.132875 0.780941 5.972721 0
M  V30 51 H -1.567812 1.235798 6.070782 0
M  V30 52 H -2.586758 1.538713 1.924253 0
M  V30 53 H -2.612637 1.146791 -0.504819 0
M  V30 54 H -1.081206 0.273169 -2.624408 0
M  V30 55 H -0.245362 -0.310597 -4.435596 0
M  V30 56 H -0.506380 -0.604447 -6.766109 0
M  V30 END ATOM
M  V30 BEGIN BOND
M  V30 1 3 1 2
M  V30 2 1 2 3
M  V30 3 2 3 4
M  V30 4 1 4 5
M  V30 5 2 5 6
M  V30 6 1 6 7
M  V30 7 1 7 8
M  V30 8 2 8 9
M  V30 9 1 8 10
M  V30 10 1 10 11
M  V30 11 2 11 12
M  V30 12 1 12 13
M  V30 13 2 13 14
M  V30 14 1 14 15
M  V30 15 1 15 16
M  V30 16 1 16 17
M  V30 17 1 17 18
M  V30 18 1 18 19
M  V30 19 1 19 20
M  V30 20 1 20 21
M  V30 21 1 21 22
M  V30 22 1 20 23
M  V30 23 1 23 24
M  V30 24 2 15 25
M  V30 25 1 25 26
M  V30 26 2 26 27
M  V30 27 1 27 28
M  V30 28 2 10 29
M  V30 29 1 29 30
M  V30 30 2 30 31
M  V30 31 1 31 3
M  V30 32 1 30 6
M  V30 33 1 28 11
M  V30 34 1 27 13
M  V30 35 1 24 17
M  V30 36 1 4 32
M  V30 37 1 5 33
M  V30 38 1 7 34
M  V30 39 1 12 35
M  V30 40 1 14 36
M  V30 41 1 16 37
M  V30 42 1 16 38
M  V30 43 1 18 39
M  V30 44 1 18 40
M  V30 45 1 19 41
M  V30 46 1 19 42
M  V30 47 1 20 43
M  V30 48 1 21 44
M  V30 49 1 21 45
M  V30 50 1 22 46
M  V30 51 1 22 47
M  V30 52 1 23 48
M  V30 53 1 23 49
M  V30 54 1 24 50
M  V30 55 1 24 51
M  V30 56 1 25 52
M  V30 57 1 26 53
M  V30 58 1 28 54
M  V30 59 1 29 55
M  V30 60 1 31 56
M  V30 END BOND
M  V30 END CTAB
M  END
>  <Dataset>  (332) 
ChEMBL_Kinases

>  <Ligand_Instance>  (332) 
nan

>  <PDB_ID>  (332) 
nan

>  <Standardized_SMILES>  (332) 
N#Cc1ccc2[nH]c(=O)c(-c3cc4cc(CN5CCC(CN)CC5)ccc4[nH]3)cc2c1

>  <Name>  (332) 
nan

>  <Pocket>  (332) 
nan

>  <ATP_Site>  (332) 
nan

>  <Peripheral>  (332) 
nan

>  <Num_H_Atoms_ProtBoundConf>  (332) 
nan

>  <Num_Resolved_Atoms>  (332) 
nan

>  <Num_Not_Resolved_Atoms>  (332) 
nan

$$$$
CHEMBL221863
     RDKit          3D

  0  0  0  0  0  0  0  0  0  0999 V3000
M  V30 BEGIN CTAB
M  V30 COUNTS 50 54 0 0 0
M  V30 BEGIN ATOM
M  V30 1 O 4.105884 -0.813785 1.783304 0
M  V30 2 C 4.426888 -0.605526 0.586777 0
M  V30 3 N 5.709218 -0.322574 0.295107 0
M  V30 4 C 6.142039 -0.086020 -0.956478 0
M  V30 5 C 7.468805 0.200646 -1.208479 0
M  V30 6 C 7.907337 0.444684 -2.512262 0
M  V30 7 C 6.929991 0.377710 -3.505484 0
M  V30 8 Br 7.520666 0.712181 -5.308821 0
M  V30 9 C 5.604125 0.093448 -3.271721 0
M  V30 10 C 5.208104 -0.142003 -1.971125 0
M  V30 11 C 3.894509 -0.433776 -1.656629 0
M  V30 12 C 3.442547 -0.677548 -0.376206 0
M  V30 13 C 2.039420 -0.978807 -0.125444 0
M  V30 14 C 1.419053 -1.244360 1.067368 0
M  V30 15 C 0.066166 -1.480931 0.868579 0
M  V30 16 C -0.977608 -1.786612 1.722005 0
M  V30 17 C -2.249192 -1.965799 1.182338 0
M  V30 18 C -3.342469 -2.292580 2.130157 0
M  V30 19 N -3.930206 -1.061623 2.579995 0
M  V30 20 C -5.009078 -1.308334 3.512070 0
M  V30 21 C -5.182213 -0.054519 4.341297 0
M  V30 22 C -5.018729 1.192480 3.501027 0
M  V30 23 C -5.206278 0.914659 2.031512 0
M  V30 24 C -4.418338 -0.242699 1.512392 0
M  V30 25 C -2.442784 -1.836958 -0.175999 0
M  V30 26 C -1.368176 -1.527663 -1.010373 0
M  V30 27 C -0.091315 -1.343268 -0.504975 0
M  V30 28 N 1.089174 -1.045811 -1.075639 0
M  V30 29 H 6.396096 -0.286504 1.083044 0
M  V30 30 H 8.189067 0.241313 -0.405452 0
M  V30 31 H 8.939708 0.670930 -2.734389 0
M  V30 32 H 4.894454 0.056691 -4.089989 0
M  V30 33 H 3.183705 -0.468060 -2.496883 0
M  V30 34 H 1.848638 -1.281671 2.049486 0
M  V30 35 H -0.798525 -1.882259 2.786166 0
M  V30 36 H -2.927221 -2.801172 3.038999 0
M  V30 37 H -4.063717 -2.969837 1.632280 0
M  V30 38 H -4.690473 -2.148454 4.169584 0
M  V30 39 H -5.948200 -1.617301 3.024221 0
M  V30 40 H -6.136186 -0.103275 4.891317 0
M  V30 41 H -4.371636 -0.031754 5.113441 0
M  V30 42 H -5.847560 1.891953 3.779111 0
M  V30 43 H -4.078128 1.736658 3.685115 0
M  V30 44 H -4.866949 1.830197 1.483673 0
M  V30 45 H -6.293543 0.809457 1.788182 0
M  V30 46 H -3.503157 0.096786 0.944291 0
M  V30 47 H -5.025201 -0.771746 0.754325 0
M  V30 48 H -3.430205 -1.976042 -0.595491 0
M  V30 49 H -1.501437 -1.422399 -2.080901 0
M  V30 50 H 1.194451 -0.899562 -2.105160 0
M  V30 END ATOM
M  V30 BEGIN BOND
M  V30 1 2 1 2
M  V30 2 1 2 3
M  V30 3 1 3 4
M  V30 4 2 4 5
M  V30 5 1 5 6
M  V30 6 2 6 7
M  V30 7 1 7 8
M  V30 8 1 7 9
M  V30 9 2 9 10
M  V30 10 1 10 11
M  V30 11 2 11 12
M  V30 12 1 12 13
M  V30 13 2 13 14
M  V30 14 1 14 15
M  V30 15 2 15 16
M  V30 16 1 16 17
M  V30 17 1 17 18
M  V30 18 1 18 19
M  V30 19 1 19 20
M  V30 20 1 20 21
M  V30 21 1 21 22
M  V30 22 1 22 23
M  V30 23 1 23 24
M  V30 24 2 17 25
M  V30 25 1 25 26
M  V30 26 2 26 27
M  V30 27 1 27 28
M  V30 28 1 12 2
M  V30 29 1 28 13
M  V30 30 1 10 4
M  V30 31 1 27 15
M  V30 32 1 24 19
M  V30 33 1 3 29
M  V30 34 1 5 30
M  V30 35 1 6 31
M  V30 36 1 9 32
M  V30 37 1 11 33
M  V30 38 1 14 34
M  V30 39 1 16 35
M  V30 40 1 18 36
M  V30 41 1 18 37
M  V30 42 1 20 38
M  V30 43 1 20 39
M  V30 44 1 21 40
M  V30 45 1 21 41
M  V30 46 1 22 42
M  V30 47 1 22 43
M  V30 48 1 23 44
M  V30 49 1 23 45
M  V30 50 1 24 46
M  V30 51 1 24 47
M  V30 52 1 25 48
M  V30 53 1 26 49
M  V30 54 1 28 50
M  V30 END BOND
M  V30 END CTAB
M  END
>  <Dataset>  (333) 
ChEMBL_Kinases

>  <Ligand_Instance>  (333) 
nan

>  <PDB_ID>  (333) 
nan

>  <Standardized_SMILES>  (333) 
O=c1[nH]c2ccc(Br)cc2cc1-c1cc2cc(CN3CCCCC3)ccc2[nH]1

>  <Name>  (333) 
nan

>  <Pocket>  (333) 
nan

>  <ATP_Site>  (333) 
nan

>  <Peripheral>  (333) 
nan

>  <Num_H_Atoms_ProtBoundConf>  (333) 
nan

>  <Num_Resolved_Atoms>  (333) 
nan

>  <Num_Not_Resolved_Atoms>  (333) 
nan

$$$$
CHEMBL221864
     RDKit          3D

  0  0  0  0  0  0  0  0  0  0999 V3000
M  V30 BEGIN CTAB
M  V30 COUNTS 60 65 0 0 0
M  V30 BEGIN ATOM
M  V30 1 C 6.574040 -4.183491 7.421621 0
M  V30 2 N 5.698596 -3.305807 6.645607 0
M  V30 3 C 6.116673 -2.598552 5.563184 0
M  V30 4 C 5.024633 -1.892168 5.096192 0
M  V30 5 C 4.966316 -0.986021 3.950497 0
M  V30 6 C 5.994881 -0.187424 3.492807 0
M  V30 7 C 5.818912 0.630601 2.394523 0
M  V30 8 C 4.626620 0.695860 1.703617 0
M  V30 9 N 4.399274 1.473081 0.629167 0
M  V30 10 C 3.208286 1.492455 -0.004562 0
M  V30 11 O 3.063281 2.241745 -1.002420 0
M  V30 12 C 2.143541 0.719769 0.402625 0
M  V30 13 C 0.835485 0.696382 -0.239523 0
M  V30 14 C -0.225385 -0.079674 0.173556 0
M  V30 15 C -1.300728 0.148291 -0.659806 0
M  V30 16 C -2.597027 -0.324455 -0.742099 0
M  V30 17 C -3.496755 0.092452 -1.718854 0
M  V30 18 C -4.837661 -0.535335 -1.621629 0
M  V30 19 N -4.977610 -1.766343 -2.320311 0
M  V30 20 C -6.332618 -2.241520 -2.132716 0
M  V30 21 C -7.349604 -1.346212 -2.777616 0
M  V30 22 C -6.881146 -0.723164 -4.049190 0
M  V30 23 C -5.692942 -1.388420 -4.658280 0
M  V30 24 C -4.581365 -1.705848 -3.687914 0
M  V30 25 C -3.062965 1.020284 -2.641083 0
M  V30 26 C -1.769466 1.506487 -2.576925 0
M  V30 27 C -0.896179 1.076236 -1.597479 0
M  V30 28 N 0.381280 1.370808 -1.305232 0
M  V30 29 C 2.401673 -0.068265 1.506166 0
M  V30 30 C 3.603125 -0.105130 2.166783 0
M  V30 31 C 3.750862 -0.931667 3.261143 0
M  V30 32 C 3.964446 -2.200367 5.925073 0
M  V30 33 N 4.406208 -3.075313 6.874117 0
M  V30 34 H 6.212779 -4.336896 8.443744 0
M  V30 35 H 7.571375 -3.700252 7.445219 0
M  V30 36 H 6.687558 -5.132696 6.838238 0
M  V30 37 H 7.106162 -2.579109 5.135856 0
M  V30 38 H 6.920596 -0.242951 4.035063 0
M  V30 39 H 6.639048 1.254121 2.045753 0
M  V30 40 H 5.182849 2.075558 0.287886 0
M  V30 41 H -0.266998 -0.766161 0.999489 0
M  V30 42 H -2.856960 -1.056481 0.027880 0
M  V30 43 H -5.108338 -0.737548 -0.545636 0
M  V30 44 H -5.602267 0.239952 -1.924053 0
M  V30 45 H -6.510423 -2.349055 -1.056188 0
M  V30 46 H -6.389670 -3.256087 -2.586661 0
M  V30 47 H -7.652633 -0.577557 -2.015544 0
M  V30 48 H -8.281723 -1.968892 -2.906594 0
M  V30 49 H -6.781784 0.398050 -4.000327 0
M  V30 50 H -7.724089 -0.863437 -4.790855 0
M  V30 51 H -6.041573 -2.306384 -5.194132 0
M  V30 52 H -5.284546 -0.717160 -5.454897 0
M  V30 53 H -4.191832 -2.726403 -3.948267 0
M  V30 54 H -3.714783 -1.040823 -3.793441 0
M  V30 55 H -3.804163 1.311763 -3.378800 0
M  V30 56 H -1.463600 2.233695 -3.317948 0
M  V30 57 H 0.918415 2.056222 -1.875971 0
M  V30 58 H 1.579065 -0.704007 1.868694 0
M  V30 59 H 2.913101 -1.526653 3.565888 0
M  V30 60 H 2.924430 -1.845048 5.889437 0
M  V30 END ATOM
M  V30 BEGIN BOND
M  V30 1 1 1 2
M  V30 2 1 2 3
M  V30 3 2 3 4
M  V30 4 1 4 5
M  V30 5 2 5 6
M  V30 6 1 6 7
M  V30 7 2 7 8
M  V30 8 1 8 9
M  V30 9 1 9 10
M  V30 10 2 10 11
M  V30 11 1 10 12
M  V30 12 1 12 13
M  V30 13 2 13 14
M  V30 14 1 14 15
M  V30 15 2 15 16
M  V30 16 1 16 17
M  V30 17 1 17 18
M  V30 18 1 18 19
M  V30 19 1 19 20
M  V30 20 1 20 21
M  V30 21 1 21 22
M  V30 22 1 22 23
M  V30 23 1 23 24
M  V30 24 2 17 25
M  V30 25 1 25 26
M  V30 26 2 26 27
M  V30 27 1 27 28
M  V30 28 2 12 29
M  V30 29 1 29 30
M  V30 30 2 30 31
M  V30 31 1 4 32
M  V30 32 2 32 33
M  V30 33 1 33 2
M  V30 34 1 31 5
M  V30 35 1 30 8
M  V30 36 1 28 13
M  V30 37 1 27 15
M  V30 38 1 24 19
M  V30 39 1 1 34
M  V30 40 1 1 35
M  V30 41 1 1 36
M  V30 42 1 3 37
M  V30 43 1 6 38
M  V30 44 1 7 39
M  V30 45 1 9 40
M  V30 46 1 14 41
M  V30 47 1 16 42
M  V30 48 1 18 43
M  V30 49 1 18 44
M  V30 50 1 20 45
M  V30 51 1 20 46
M  V30 52 1 21 47
M  V30 53 1 21 48
M  V30 54 1 22 49
M  V30 55 1 22 50
M  V30 56 1 23 51
M  V30 57 1 23 52
M  V30 58 1 24 53
M  V30 59 1 24 54
M  V30 60 1 25 55
M  V30 61 1 26 56
M  V30 62 1 28 57
M  V30 63 1 29 58
M  V30 64 1 31 59
M  V30 65 1 32 60
M  V30 END BOND
M  V30 END CTAB
M  END
>  <Dataset>  (334) 
ChEMBL_Kinases

>  <Ligand_Instance>  (334) 
nan

>  <PDB_ID>  (334) 
nan

>  <Standardized_SMILES>  (334) 
Cn1cc(-c2ccc3[nH]c(=O)c(-c4cc5cc(CN6CCCCC6)ccc5[nH]4)cc3c2)cn1

>  <Name>  (334) 
nan

>  <Pocket>  (334) 
nan

>  <ATP_Site>  (334) 
nan

>  <Peripheral>  (334) 
nan

>  <Num_H_Atoms_ProtBoundConf>  (334) 
nan

>  <Num_Resolved_Atoms>  (334) 
nan

>  <Num_Not_Resolved_Atoms>  (334) 
nan

$$$$
CHEMBL221958
     RDKit          3D

  0  0  0  0  0  0  0  0  0  0999 V3000
M  V30 BEGIN CTAB
M  V30 COUNTS 56 57 0 0 0
M  V30 BEGIN ATOM
M  V30 1 C 5.091025 -5.558253 1.886543 0
M  V30 2 C 6.175767 -4.501916 1.865598 0
M  V30 3 C 5.803304 -3.406551 0.879950 0
M  V30 4 N 4.566681 -2.852283 1.327413 0
M  V30 5 C 4.117966 -1.818632 0.488596 0
M  V30 6 O 4.912852 -1.618457 -0.466310 0
M  V30 7 C 2.927163 -0.992691 0.566503 0
M  V30 8 C 2.762324 -0.033615 -0.407837 0
M  V30 9 N 3.694092 0.154016 -1.442078 0
M  V30 10 C 1.671314 0.810695 -0.440325 0
M  V30 11 C 0.672857 0.745106 0.507132 0
M  V30 12 C -0.456454 1.647286 0.437045 0
M  V30 13 O -0.516897 2.511893 -0.496203 0
M  V30 14 N -1.530387 1.649973 1.343688 0
M  V30 15 C -2.678175 2.506321 1.344287 0
M  V30 16 C -3.703390 2.173121 0.342692 0
M  V30 17 C -3.786322 2.646840 -0.958345 0
M  V30 18 C -4.803489 2.254520 -1.804164 0
M  V30 19 C -5.779193 1.373484 -1.385391 0
M  V30 20 S -7.067119 0.882753 -2.480928 0
M  V30 21 C -6.555072 -0.580332 -3.337930 0
M  V30 22 O -7.386755 1.983889 -3.451968 0
M  V30 23 O -8.280981 0.558216 -1.668600 0
M  V30 24 C -5.758489 0.861426 -0.100573 0
M  V30 25 C -4.716830 1.288104 0.704508 0
M  V30 26 N 0.864549 -0.198635 1.439954 0
M  V30 27 C 1.913770 -1.029231 1.493112 0
M  V30 28 O 2.018569 -1.970270 2.498479 0
M  V30 29 C 1.040270 -2.085100 3.485849 0
M  V30 30 C -0.297739 -2.412774 2.822938 0
M  V30 31 H 4.306406 -5.260658 2.619952 0
M  V30 32 H 4.719912 -5.750948 0.875164 0
M  V30 33 H 5.538020 -6.503865 2.311206 0
M  V30 34 H 7.129580 -5.004098 1.629002 0
M  V30 35 H 6.214978 -4.081576 2.913433 0
M  V30 36 H 5.748728 -3.884728 -0.117831 0
M  V30 37 H 6.615140 -2.675867 0.858873 0
M  V30 38 H 3.959545 -3.076180 2.144047 0
M  V30 39 H 4.349401 0.251153 -2.214146 0
M  V30 40 H 4.495757 0.698774 -1.840505 0
M  V30 41 H 1.556242 1.561615 -1.215951 0
M  V30 42 H -1.492457 0.931861 2.126906 0
M  V30 43 H -3.174496 2.568920 2.329433 0
M  V30 44 H -2.326006 3.546400 1.123846 0
M  V30 45 H -3.019788 3.329313 -1.261864 0
M  V30 46 H -4.811779 2.661080 -2.809604 0
M  V30 47 H -7.175721 -1.456752 -3.044153 0
M  V30 48 H -5.503190 -0.812622 -3.104472 0
M  V30 49 H -6.640156 -0.404422 -4.431433 0
M  V30 50 H -6.491826 0.169420 0.288177 0
M  V30 51 H -4.703302 0.879485 1.724429 0
M  V30 52 H 1.339903 -2.913986 4.181707 0
M  V30 53 H 0.985622 -1.106599 4.015631 0
M  V30 54 H -0.173644 -2.776319 1.794705 0
M  V30 55 H -0.930611 -1.505140 2.808472 0
M  V30 56 H -0.807969 -3.179026 3.424185 0
M  V30 END ATOM
M  V30 BEGIN BOND
M  V30 1 1 1 2
M  V30 2 1 2 3
M  V30 3 1 3 4
M  V30 4 1 4 5
M  V30 5 2 5 6
M  V30 6 1 5 7
M  V30 7 2 7 8
M  V30 8 1 8 9
M  V30 9 1 8 10
M  V30 10 2 10 11
M  V30 11 1 11 12
M  V30 12 2 12 13
M  V30 13 1 12 14
M  V30 14 1 14 15
M  V30 15 1 15 16
M  V30 16 2 16 17
M  V30 17 1 17 18
M  V30 18 2 18 19
M  V30 19 1 19 20
M  V30 20 1 20 21
M  V30 21 2 20 22
M  V30 22 2 20 23
M  V30 23 1 19 24
M  V30 24 2 24 25
M  V30 25 1 11 26
M  V30 26 2 26 27
M  V30 27 1 27 28
M  V30 28 1 28 29
M  V30 29 1 29 30
M  V30 30 1 27 7
M  V30 31 1 25 16
M  V30 32 1 1 31
M  V30 33 1 1 32
M  V30 34 1 1 33
M  V30 35 1 2 34
M  V30 36 1 2 35
M  V30 37 1 3 36
M  V30 38 1 3 37
M  V30 39 1 4 38
M  V30 40 1 9 39
M  V30 41 1 9 40
M  V30 42 1 10 41
M  V30 43 1 14 42
M  V30 44 1 15 43
M  V30 45 1 15 44
M  V30 46 1 17 45
M  V30 47 1 18 46
M  V30 48 1 21 47
M  V30 49 1 21 48
M  V30 50 1 21 49
M  V30 51 1 24 50
M  V30 52 1 25 51
M  V30 53 1 29 52
M  V30 54 1 29 53
M  V30 55 1 30 54
M  V30 56 1 30 55
M  V30 57 1 30 56
M  V30 END BOND
M  V30 END CTAB
M  END
>  <Dataset>  (335) 
ChEMBL_Kinases

>  <Ligand_Instance>  (335) 
nan

>  <PDB_ID>  (335) 
nan

>  <Standardized_SMILES>  (335) 
CCCNC(=O)c1c(N)cc(C(=O)NCc2ccc(S(C)(=O)=O)cc2)nc1OCC

>  <Name>  (335) 
nan

>  <Pocket>  (335) 
nan

>  <ATP_Site>  (335) 
nan

>  <Peripheral>  (335) 
nan

>  <Num_H_Atoms_ProtBoundConf>  (335) 
nan

>  <Num_Resolved_Atoms>  (335) 
nan

>  <Num_Not_Resolved_Atoms>  (335) 
nan

$$$$
CHEMBL221963
     RDKit          3D

  0  0  0  0  0  0  0  0  0  0999 V3000
M  V30 BEGIN CTAB
M  V30 COUNTS 49 50 0 0 0
M  V30 BEGIN ATOM
M  V30 1 C -2.199972 -1.618426 -1.396148 0
M  V30 2 C -1.854137 -3.038020 -1.785030 0
M  V30 3 O -1.596962 -3.841590 -0.660009 0
M  V30 4 C -0.557915 -3.498353 0.203065 0
M  V30 5 N 0.199631 -2.397308 -0.043784 0
M  V30 6 C 1.209333 -2.017372 0.746999 0
M  V30 7 C 1.997576 -0.808459 0.417259 0
M  V30 8 O 2.942786 -0.428389 1.154582 0
M  V30 9 N 1.685639 -0.077688 -0.733635 0
M  V30 10 C 2.316507 1.126120 -1.247021 0
M  V30 11 C 1.844619 2.285740 -0.432990 0
M  V30 12 C 2.416545 2.800377 0.712473 0
M  V30 13 C 1.826268 3.890052 1.333086 0
M  V30 14 C 0.673484 4.486570 0.841460 0
M  V30 15 S -0.006463 5.857434 1.687601 0
M  V30 16 C -1.171512 5.325099 2.910339 0
M  V30 17 O 1.064212 6.720052 2.319628 0
M  V30 18 O -0.675096 6.744805 0.667062 0
M  V30 19 C 0.131907 3.944368 -0.304322 0
M  V30 20 C 0.691685 2.860469 -0.949059 0
M  V30 21 C 1.568210 -2.724234 1.895141 0
M  V30 22 C 0.778447 -3.834869 2.114097 0
M  V30 23 N 1.030439 -4.656995 3.253246 0
M  V30 24 C -0.253211 -4.240330 1.323780 0
M  V30 25 C -1.059551 -5.396308 1.569837 0
M  V30 26 C -1.756233 -6.365010 1.772799 0
M  V30 27 C -2.602856 -7.548241 2.009280 0
M  V30 28 O -2.149632 -8.631503 1.224406 0
M  V30 29 H -2.291230 -1.601851 -0.292786 0
M  V30 30 H -3.157029 -1.276527 -1.866862 0
M  V30 31 H -1.444704 -0.876374 -1.683493 0
M  V30 32 H -0.880862 -2.964138 -2.347892 0
M  V30 33 H -2.595575 -3.491471 -2.443964 0
M  V30 34 H 0.882840 -0.432212 -1.327415 0
M  V30 35 H 3.424915 1.056260 -1.068210 0
M  V30 36 H 2.142086 1.277016 -2.310768 0
M  V30 37 H 3.308812 2.290695 1.039415 0
M  V30 38 H 2.336031 4.233913 2.227463 0
M  V30 39 H -1.970253 6.080397 3.093000 0
M  V30 40 H -0.600579 5.193457 3.871167 0
M  V30 41 H -1.588752 4.327204 2.664999 0
M  V30 42 H -0.778751 4.428891 -0.678261 0
M  V30 43 H 0.170798 2.516187 -1.853993 0
M  V30 44 H 2.382597 -2.441433 2.558674 0
M  V30 45 H 0.494329 -4.238788 4.035771 0
M  V30 46 H 1.624814 -5.509290 3.322814 0
M  V30 47 H -3.640534 -7.376381 1.694556 0
M  V30 48 H -2.508236 -7.807730 3.076936 0
M  V30 49 H -1.211566 -8.413267 0.930306 0
M  V30 END ATOM
M  V30 BEGIN BOND
M  V30 1 1 1 2
M  V30 2 1 2 3
M  V30 3 1 3 4
M  V30 4 2 4 5
M  V30 5 1 5 6
M  V30 6 1 6 7
M  V30 7 2 7 8
M  V30 8 1 7 9
M  V30 9 1 9 10
M  V30 10 1 10 11
M  V30 11 2 11 12
M  V30 12 1 12 13
M  V30 13 2 13 14
M  V30 14 1 14 15
M  V30 15 1 15 16
M  V30 16 2 15 17
M  V30 17 2 15 18
M  V30 18 1 14 19
M  V30 19 2 19 20
M  V30 20 2 6 21
M  V30 21 1 21 22
M  V30 22 1 22 23
M  V30 23 2 22 24
M  V30 24 1 24 25
M  V30 25 3 25 26
M  V30 26 1 26 27
M  V30 27 1 27 28
M  V30 28 1 24 4
M  V30 29 1 20 11
M  V30 30 1 1 29
M  V30 31 1 1 30
M  V30 32 1 1 31
M  V30 33 1 2 32
M  V30 34 1 2 33
M  V30 35 1 9 34
M  V30 36 1 10 35
M  V30 37 1 10 36
M  V30 38 1 12 37
M  V30 39 1 13 38
M  V30 40 1 16 39
M  V30 41 1 16 40
M  V30 42 1 16 41
M  V30 43 1 19 42
M  V30 44 1 20 43
M  V30 45 1 21 44
M  V30 46 1 23 45
M  V30 47 1 23 46
M  V30 48 1 27 47
M  V30 49 1 27 48
M  V30 50 1 28 49
M  V30 END BOND
M  V30 END CTAB
M  END
>  <Dataset>  (336) 
ChEMBL_Kinases

>  <Ligand_Instance>  (336) 
nan

>  <PDB_ID>  (336) 
nan

>  <Standardized_SMILES>  (336) 
CCOc1nc(C(=O)NCc2ccc(S(C)(=O)=O)cc2)cc(N)c1C#CCO

>  <Name>  (336) 
nan

>  <Pocket>  (336) 
nan

>  <ATP_Site>  (336) 
nan

>  <Peripheral>  (336) 
nan

>  <Num_H_Atoms_ProtBoundConf>  (336) 
nan

>  <Num_Resolved_Atoms>  (336) 
nan

>  <Num_Not_Resolved_Atoms>  (336) 
nan

$$$$
CHEMBL221985
     RDKit          3D

  0  0  0  0  0  0  0  0  0  0999 V3000
M  V30 BEGIN CTAB
M  V30 COUNTS 67 70 0 0 0
M  V30 BEGIN ATOM
M  V30 1 C 4.553204 -1.253494 0.889628 0
M  V30 2 O 3.359068 -0.642012 0.462766 0
M  V30 3 C 2.364429 -1.593975 0.567180 0
M  V30 4 C 1.002816 -1.044197 0.126195 0
M  V30 5 N 0.002068 -2.078957 0.254969 0
M  V30 6 C -0.217765 -2.887373 -0.792871 0
M  V30 7 S 0.341649 -3.142883 -2.463195 0
M  V30 8 C -0.690425 -2.179881 -3.590791 0
M  V30 9 C -0.500950 -0.687509 -3.437572 0
M  V30 10 C 0.881536 -0.269702 -3.721199 0
M  V30 11 O 1.991479 -0.754243 -4.065439 0
M  V30 12 N 1.041631 1.147640 -3.559495 0
M  V30 13 C 2.321880 1.809322 -3.784459 0
M  V30 14 C 2.396932 3.040677 -2.902996 0
M  V30 15 O 1.856206 2.710604 -1.665430 0
M  V30 16 C 0.460695 2.678395 -1.813036 0
M  V30 17 C 0.043439 2.152345 -3.166798 0
M  V30 18 N -1.182925 -3.754453 -0.403321 0
M  V30 19 C -1.555591 -3.487621 0.865386 0
M  V30 20 C -2.518457 -4.058849 1.799515 0
M  V30 21 C -3.573787 -3.274731 2.256857 0
M  V30 22 C -4.569183 -3.660761 3.140544 0
M  V30 23 C -4.491296 -4.957299 3.604539 0
M  V30 24 F -5.449429 -5.356841 4.466171 0
M  V30 25 C -3.459479 -5.782575 3.180928 0
M  V30 26 C -2.500873 -5.355560 2.307694 0
M  V30 27 C -0.794812 -2.414361 1.283005 0
M  V30 28 C -0.745038 -1.680174 2.543123 0
M  V30 29 C -0.348839 -2.411109 3.647926 0
M  V30 30 C -0.270039 -1.801470 4.891631 0
M  V30 31 N -0.584652 -0.479344 5.020176 0
M  V30 32 C -0.964733 0.217897 3.954781 0
M  V30 33 N -1.319548 1.611430 3.963944 0
M  V30 34 C -0.133530 2.395071 3.718897 0
M  V30 35 C -0.059044 3.892363 3.646504 0
M  V30 36 O 0.982982 1.846932 3.538806 0
M  V30 37 C -1.063795 -0.329544 2.688635 0
M  V30 38 H 5.416076 -0.560693 0.839566 0
M  V30 39 H 4.794430 -2.117276 0.236361 0
M  V30 40 H 4.426394 -1.659955 1.928009 0
M  V30 41 H 2.259576 -1.832633 1.659901 0
M  V30 42 H 2.584374 -2.546374 0.048763 0
M  V30 43 H 1.115055 -0.674055 -0.904251 0
M  V30 44 H 0.755121 -0.148447 0.739413 0
M  V30 45 H -1.770771 -2.460712 -3.497360 0
M  V30 46 H -0.451007 -2.419518 -4.662446 0
M  V30 47 H -1.202229 -0.134143 -4.082886 0
M  V30 48 H -0.758749 -0.412391 -2.378790 0
M  V30 49 H 2.341543 2.170916 -4.827260 0
M  V30 50 H 3.164494 1.134267 -3.643166 0
M  V30 51 H 1.793591 3.868290 -3.323381 0
M  V30 52 H 3.463955 3.368055 -2.792796 0
M  V30 53 H 0.030506 2.048314 -0.988903 0
M  V30 54 H 0.049858 3.693316 -1.629398 0
M  V30 55 H 0.042656 2.953355 -3.907068 0
M  V30 56 H -0.972558 1.686767 -3.060004 0
M  V30 57 H -3.617108 -2.250196 1.876728 0
M  V30 58 H -5.330120 -2.942255 3.408957 0
M  V30 59 H -3.421033 -6.809391 3.565252 0
M  V30 60 H -1.677462 -5.979951 1.955969 0
M  V30 61 H -0.093075 -3.468823 3.567489 0
M  V30 62 H 0.040635 -2.351014 5.790357 0
M  V30 63 H -2.172784 2.172127 4.095929 0
M  V30 64 H 0.188553 4.225428 2.609815 0
M  V30 65 H 0.776072 4.205357 4.294276 0
M  V30 66 H -1.002243 4.376411 3.935652 0
M  V30 67 H -1.368810 0.201251 1.796850 0
M  V30 END ATOM
M  V30 BEGIN BOND
M  V30 1 1 1 2
M  V30 2 1 2 3
M  V30 3 1 3 4
M  V30 4 1 4 5
M  V30 5 1 5 6
M  V30 6 1 6 7
M  V30 7 1 7 8
M  V30 8 1 8 9
M  V30 9 1 9 10
M  V30 10 2 10 11
M  V30 11 1 10 12
M  V30 12 1 12 13
M  V30 13 1 13 14
M  V30 14 1 14 15
M  V30 15 1 15 16
M  V30 16 1 16 17
M  V30 17 2 6 18
M  V30 18 1 18 19
M  V30 19 1 19 20
M  V30 20 2 20 21
M  V30 21 1 21 22
M  V30 22 2 22 23
M  V30 23 1 23 24
M  V30 24 1 23 25
M  V30 25 2 25 26
M  V30 26 2 19 27
M  V30 27 1 27 28
M  V30 28 2 28 29
M  V30 29 1 29 30
M  V30 30 2 30 31
M  V30 31 1 31 32
M  V30 32 1 32 33
M  V30 33 1 33 34
M  V30 34 1 34 35
M  V30 35 2 34 36
M  V30 36 2 32 37
M  V30 37 1 27 5
M  V30 38 1 37 28
M  V30 39 1 17 12
M  V30 40 1 26 20
M  V30 41 1 1 38
M  V30 42 1 1 39
M  V30 43 1 1 40
M  V30 44 1 3 41
M  V30 45 1 3 42
M  V30 46 1 4 43
M  V30 47 1 4 44
M  V30 48 1 8 45
M  V30 49 1 8 46
M  V30 50 1 9 47
M  V30 51 1 9 48
M  V30 52 1 13 49
M  V30 53 1 13 50
M  V30 54 1 14 51
M  V30 55 1 14 52
M  V30 56 1 16 53
M  V30 57 1 16 54
M  V30 58 1 17 55
M  V30 59 1 17 56
M  V30 60 1 21 57
M  V30 61 1 22 58
M  V30 62 1 25 59
M  V30 63 1 26 60
M  V30 64 1 29 61
M  V30 65 1 30 62
M  V30 66 1 33 63
M  V30 67 1 35 64
M  V30 68 1 35 65
M  V30 69 1 35 66
M  V30 70 1 37 67
M  V30 END BOND
M  V30 END CTAB
M  END
>  <Dataset>  (337) 
ChEMBL_Kinases

>  <Ligand_Instance>  (337) 
nan

>  <PDB_ID>  (337) 
nan

>  <Standardized_SMILES>  (337) 
COCCn1c(SCCC(=O)N2CCOCC2)nc(-c2ccc(F)cc2)c1-c1ccnc(NC(C)=O)c1

>  <Name>  (337) 
nan

>  <Pocket>  (337) 
nan

>  <ATP_Site>  (337) 
nan

>  <Peripheral>  (337) 
nan

>  <Num_H_Atoms_ProtBoundConf>  (337) 
nan

>  <Num_Resolved_Atoms>  (337) 
nan

>  <Num_Not_Resolved_Atoms>  (337) 
nan

$$$$
CHEMBL222006
     RDKit          3D

  0  0  0  0  0  0  0  0  0  0999 V3000
M  V30 BEGIN CTAB
M  V30 COUNTS 56 61 0 0 0
M  V30 BEGIN ATOM
M  V30 1 O 1.629071 -0.170536 3.657730 0
M  V30 2 C 2.284536 0.467028 2.795787 0
M  V30 3 N 3.499166 0.947901 3.112295 0
M  V30 4 C 4.264384 1.639823 2.249077 0
M  V30 5 C 5.508702 2.104610 2.649084 0
M  V30 6 C 6.262267 2.811961 1.727802 0
M  V30 7 C 5.764041 3.031338 0.459841 0
M  V30 8 N 6.498773 3.753295 -0.527065 0
M  V30 9 N 7.817365 3.817478 -0.569565 0
M  V30 10 C 8.217812 4.571250 -1.613266 0
M  V30 11 C 7.053297 4.992845 -2.247150 0
M  V30 12 N 6.037405 4.464825 -1.542612 0
M  V30 13 C 4.523257 2.556805 0.091273 0
M  V30 14 C 3.748418 1.848609 0.986329 0
M  V30 15 C 2.508885 1.355025 0.671170 0
M  V30 16 C 1.719287 0.644754 1.551758 0
M  V30 17 C 0.412136 0.155525 1.133768 0
M  V30 18 C -0.506889 -0.563778 1.866862 0
M  V30 19 C -1.621919 -0.829290 1.094896 0
M  V30 20 C -2.804250 -1.509256 1.366576 0
M  V30 21 C -3.770629 -1.620330 0.371575 0
M  V30 22 C -5.069422 -2.315057 0.520899 0
M  V30 23 N -5.046397 -3.696192 0.157972 0
M  V30 24 C -6.313235 -4.357276 0.318251 0
M  V30 25 C -6.238615 -5.701534 -0.360263 0
M  V30 26 C -4.912686 -5.861898 -1.108951 0
M  V30 27 C -3.742536 -5.671376 -0.173112 0
M  V30 28 C -4.013944 -4.483480 0.748308 0
M  V30 29 C -3.467565 -1.029472 -0.837863 0
M  V30 30 C -2.292173 -0.348867 -1.120445 0
M  V30 31 C -1.339399 -0.245712 -0.122235 0
M  V30 32 N -0.130496 0.332378 -0.079384 0
M  V30 33 H 3.863468 0.769977 4.087339 0
M  V30 34 H 5.869338 1.912984 3.656494 0
M  V30 35 H 7.234925 3.184422 2.015368 0
M  V30 36 H 9.203588 4.850733 -1.970126 0
M  V30 37 H 6.960314 5.615799 -3.125129 0
M  V30 38 H 4.100738 2.709107 -0.891764 0
M  V30 39 H 2.152196 1.547367 -0.332859 0
M  V30 40 H -0.432787 -0.899775 2.885676 0
M  V30 41 H -3.010874 -1.953253 2.308790 0
M  V30 42 H -5.805854 -1.782549 -0.110344 0
M  V30 43 H -5.462890 -2.230400 1.566288 0
M  V30 44 H -7.149426 -3.734809 -0.088165 0
M  V30 45 H -6.450573 -4.518383 1.410921 0
M  V30 46 H -6.276228 -6.540268 0.355377 0
M  V30 47 H -7.035169 -5.803401 -1.125484 0
M  V30 48 H -4.852201 -5.109065 -1.919245 0
M  V30 49 H -4.946470 -6.904676 -1.506847 0
M  V30 50 H -2.834917 -5.433383 -0.776953 0
M  V30 51 H -3.548687 -6.588638 0.416300 0
M  V30 52 H -3.075293 -3.942487 0.983690 0
M  V30 53 H -4.377788 -4.912456 1.708669 0
M  V30 54 H -4.172821 -1.071834 -1.670024 0
M  V30 55 H -2.110997 0.094984 -2.091374 0
M  V30 56 H 0.303268 0.842743 -0.893098 0
M  V30 END ATOM
M  V30 BEGIN BOND
M  V30 1 2 1 2
M  V30 2 1 2 3
M  V30 3 1 3 4
M  V30 4 2 4 5
M  V30 5 1 5 6
M  V30 6 2 6 7
M  V30 7 1 7 8
M  V30 8 1 8 9
M  V30 9 2 9 10
M  V30 10 1 10 11
M  V30 11 2 11 12
M  V30 12 1 7 13
M  V30 13 2 13 14
M  V30 14 1 14 15
M  V30 15 2 15 16
M  V30 16 1 16 17
M  V30 17 2 17 18
M  V30 18 1 18 19
M  V30 19 2 19 20
M  V30 20 1 20 21
M  V30 21 1 21 22
M  V30 22 1 22 23
M  V30 23 1 23 24
M  V30 24 1 24 25
M  V30 25 1 25 26
M  V30 26 1 26 27
M  V30 27 1 27 28
M  V30 28 2 21 29
M  V30 29 1 29 30
M  V30 30 2 30 31
M  V30 31 1 31 32
M  V30 32 1 16 2
M  V30 33 1 32 17
M  V30 34 1 14 4
M  V30 35 1 31 19
M  V30 36 1 12 8
M  V30 37 1 28 23
M  V30 38 1 3 33
M  V30 39 1 5 34
M  V30 40 1 6 35
M  V30 41 1 10 36
M  V30 42 1 11 37
M  V30 43 1 13 38
M  V30 44 1 15 39
M  V30 45 1 18 40
M  V30 46 1 20 41
M  V30 47 1 22 42
M  V30 48 1 22 43
M  V30 49 1 24 44
M  V30 50 1 24 45
M  V30 51 1 25 46
M  V30 52 1 25 47
M  V30 53 1 26 48
M  V30 54 1 26 49
M  V30 55 1 27 50
M  V30 56 1 27 51
M  V30 57 1 28 52
M  V30 58 1 28 53
M  V30 59 1 29 54
M  V30 60 1 30 55
M  V30 61 1 32 56
M  V30 END BOND
M  V30 END CTAB
M  END
>  <Dataset>  (338) 
ChEMBL_Kinases

>  <Ligand_Instance>  (338) 
nan

>  <PDB_ID>  (338) 
nan

>  <Standardized_SMILES>  (338) 
O=c1[nH]c2ccc(-n3nccn3)cc2cc1-c1cc2cc(CN3CCCCC3)ccc2[nH]1

>  <Name>  (338) 
nan

>  <Pocket>  (338) 
nan

>  <ATP_Site>  (338) 
nan

>  <Peripheral>  (338) 
nan

>  <Num_H_Atoms_ProtBoundConf>  (338) 
nan

>  <Num_Resolved_Atoms>  (338) 
nan

>  <Num_Not_Resolved_Atoms>  (338) 
nan

$$$$
CHEMBL222050
     RDKit          3D

  0  0  0  0  0  0  0  0  0  0999 V3000
M  V30 BEGIN CTAB
M  V30 COUNTS 75 78 0 0 0
M  V30 BEGIN ATOM
M  V30 1 C 1.723502 0.931639 5.829972 0
M  V30 2 C 2.067099 1.078387 4.390525 0
M  V30 3 C 3.200889 1.796793 4.085649 0
M  V30 4 C 3.505971 1.921503 2.730220 0
M  V30 5 C 2.774087 1.392379 1.714756 0
M  V30 6 C 3.126697 1.524352 0.303330 0
M  V30 7 O 2.341078 0.994208 -0.552767 0
M  V30 8 N 4.312438 2.225222 -0.073400 0
M  V30 9 C 4.485453 2.242830 -1.514809 0
M  V30 10 C 5.781514 1.514038 -1.905017 0
M  V30 11 C 6.072820 2.020097 -3.282495 0
M  V30 12 C 5.223001 3.258557 -3.487789 0
M  V30 13 C 4.737300 3.610518 -2.074185 0
M  V30 14 C 1.659351 0.692669 2.125404 0
M  V30 15 C 1.241969 0.492099 3.421893 0
M  V30 16 N 0.097361 -0.268008 3.774169 0
M  V30 17 C -0.865886 -0.831508 2.899720 0
M  V30 18 N -1.779626 -1.687321 3.387956 0
M  V30 19 C -2.741623 -2.260032 2.654601 0
M  V30 20 N -3.676442 -3.169705 3.214123 0
M  V30 21 C -4.692112 -3.749469 2.361231 0 CFG=1
M  V30 22 C -4.134309 -4.525628 1.199078 0
M  V30 23 C -5.306763 -5.430279 0.851452 0
M  V30 24 N -5.961306 -5.735686 2.094073 0
M  V30 25 C -5.503800 -4.799744 3.078860 0
M  V30 26 N -2.791618 -1.954970 1.341219 0
M  V30 27 C -1.917684 -1.111240 0.774336 0
M  V30 28 N -1.814305 -0.676144 -0.575757 0
M  V30 29 C -2.744912 0.433055 -0.742702 0
M  V30 30 C -0.999623 -1.129803 -1.677056 0
M  V30 31 C -1.708567 -1.807731 -2.788623 0
M  V30 32 C -2.768609 -1.010614 -3.486886 0
M  V30 33 C -2.317466 -3.140946 -2.406086 0
M  V30 34 C -0.629715 -2.116846 -3.852387 0
M  V30 35 N -1.004287 -0.601901 1.604206 0
M  V30 36 H 0.797683 1.517604 6.099440 0
M  V30 37 H 1.540991 -0.125993 6.054189 0
M  V30 38 H 2.534071 1.297314 6.478245 0
M  V30 39 H 3.791285 2.221075 4.879941 0
M  V30 40 H 4.404888 2.494211 2.529123 0
M  V30 41 H 4.966217 2.664478 0.586840 0
M  V30 42 H 3.693725 1.751382 -2.073806 0
M  V30 43 H 6.623828 1.798347 -1.216371 0
M  V30 44 H 5.567214 0.440964 -1.857141 0
M  V30 45 H 7.136141 2.330221 -3.408213 0
M  V30 46 H 5.907949 1.246990 -4.064377 0
M  V30 47 H 5.782330 4.107793 -3.934630 0
M  V30 48 H 4.334614 2.950513 -4.067988 0
M  V30 49 H 3.833494 4.247219 -2.115311 0
M  V30 50 H 5.611826 4.098727 -1.598052 0
M  V30 51 H 1.086156 0.271445 1.300277 0
M  V30 52 H -0.027135 -0.404961 4.790960 0
M  V30 53 H -3.588501 -3.384523 4.228958 0
M  V30 54 H -5.327687 -2.930982 1.975216 0
M  V30 55 H -3.960133 -3.781911 0.374468 0
M  V30 56 H -3.206546 -5.062189 1.390891 0
M  V30 57 H -4.920181 -6.317012 0.341507 0
M  V30 58 H -5.956675 -4.847725 0.148039 0
M  V30 59 H -5.772479 -6.721211 2.343061 0
M  V30 60 H -5.013179 -5.239171 3.960709 0
M  V30 61 H -6.420765 -4.268313 3.463341 0
M  V30 62 H -2.718071 0.890033 -1.753544 0
M  V30 63 H -3.813400 0.125356 -0.573964 0
M  V30 64 H -2.450327 1.213384 -0.004014 0
M  V30 65 H -0.396955 -0.273158 -2.109209 0
M  V30 66 H -0.196638 -1.848058 -1.331648 0
M  V30 67 H -3.070917 -1.641274 -4.375494 0
M  V30 68 H -2.425851 -0.063374 -3.936281 0
M  V30 69 H -3.687656 -0.946839 -2.880886 0
M  V30 70 H -2.298004 -3.780721 -3.337174 0
M  V30 71 H -3.393573 -3.058196 -2.127585 0
M  V30 72 H -1.704756 -3.680857 -1.657220 0
M  V30 73 H -0.024206 -2.993333 -3.581347 0
M  V30 74 H -1.131376 -2.239959 -4.858667 0
M  V30 75 H 0.056840 -1.259181 -3.998252 0
M  V30 END ATOM
M  V30 BEGIN BOND
M  V30 1 1 1 2
M  V30 2 2 2 3
M  V30 3 1 3 4
M  V30 4 2 4 5
M  V30 5 1 5 6
M  V30 6 2 6 7
M  V30 7 1 6 8
M  V30 8 1 8 9
M  V30 9 1 9 10
M  V30 10 1 10 11
M  V30 11 1 11 12
M  V30 12 1 12 13
M  V30 13 1 5 14
M  V30 14 2 14 15
M  V30 15 1 15 16
M  V30 16 1 16 17
M  V30 17 2 17 18
M  V30 18 1 18 19
M  V30 19 1 19 20
M  V30 20 1 20 21
M  V30 21 1 21 22
M  V30 22 1 22 23
M  V30 23 1 23 24
M  V30 24 1 24 25
M  V30 25 2 19 26
M  V30 26 1 26 27
M  V30 27 1 27 28
M  V30 28 1 28 29
M  V30 29 1 28 30
M  V30 30 1 30 31
M  V30 31 1 31 32
M  V30 32 1 31 33
M  V30 33 1 31 34
M  V30 34 2 27 35
M  V30 35 1 15 2
M  V30 36 1 35 17
M  V30 37 1 13 9
M  V30 38 1 25 21
M  V30 39 1 1 36
M  V30 40 1 1 37
M  V30 41 1 1 38
M  V30 42 1 3 39
M  V30 43 1 4 40
M  V30 44 1 8 41
M  V30 45 1 9 42
M  V30 46 1 10 43
M  V30 47 1 10 44
M  V30 48 1 11 45
M  V30 49 1 11 46
M  V30 50 1 12 47
M  V30 51 1 12 48
M  V30 52 1 13 49
M  V30 53 1 13 50
M  V30 54 1 14 51
M  V30 55 1 16 52
M  V30 56 1 20 53
M  V30 57 1 21 54 CFG=3
M  V30 58 1 22 55
M  V30 59 1 22 56
M  V30 60 1 23 57
M  V30 61 1 23 58
M  V30 62 1 24 59
M  V30 63 1 25 60
M  V30 64 1 25 61
M  V30 65 1 29 62
M  V30 66 1 29 63
M  V30 67 1 29 64
M  V30 68 1 30 65
M  V30 69 1 30 66
M  V30 70 1 32 67
M  V30 71 1 32 68
M  V30 72 1 32 69
M  V30 73 1 33 70
M  V30 74 1 33 71
M  V30 75 1 33 72
M  V30 76 1 34 73
M  V30 77 1 34 74
M  V30 78 1 34 75
M  V30 END BOND
M  V30 END CTAB
M  END
>  <Dataset>  (339) 
ChEMBL_Kinases

>  <Ligand_Instance>  (339) 
nan

>  <PDB_ID>  (339) 
nan

>  <Standardized_SMILES>  (339) 
Cc1ccc(C(=O)NC2CCCC2)cc1Nc1nc(N[C@H]2CCNC2)nc(N(C)CC(C)(C)C)n1

>  <Name>  (339) 
nan

>  <Pocket>  (339) 
nan

>  <ATP_Site>  (339) 
nan

>  <Peripheral>  (339) 
nan

>  <Num_H_Atoms_ProtBoundConf>  (339) 
nan

>  <Num_Resolved_Atoms>  (339) 
nan

>  <Num_Not_Resolved_Atoms>  (339) 
nan

$$$$
CHEMBL222339
     RDKit          3D

  0  0  0  0  0  0  0  0  0  0999 V3000
M  V30 BEGIN CTAB
M  V30 COUNTS 67 70 0 0 0
M  V30 BEGIN ATOM
M  V30 1 C 4.773837 -0.646962 1.330798 0
M  V30 2 O 4.113037 -1.856035 1.153784 0
M  V30 3 C 3.177752 -2.127869 2.142535 0
M  V30 4 C 2.117688 -1.053946 2.171443 0
M  V30 5 C 1.353448 -0.924744 0.885425 0
M  V30 6 N 0.632227 -2.092670 0.485914 0
M  V30 7 C 0.756194 -3.210841 -0.249889 0
M  V30 8 S 2.300339 -3.456286 -1.112455 0
M  V30 9 C 2.279531 -2.734031 -2.777482 0
M  V30 10 C 2.181579 -1.253624 -2.757642 0
M  V30 11 C 3.224072 -0.347394 -2.726780 0
M  V30 12 C 2.968987 1.006669 -2.709942 0
M  V30 13 C 1.667051 1.446907 -2.724158 0
M  V30 14 S 1.258263 3.159051 -2.701411 0 CHG=1 VAL=3
M  V30 15 C 1.081275 3.711939 -1.001562 0
M  V30 16 O 2.476321 4.047894 -3.435375 0 CHG=-1 VAL=1
M  V30 17 C 0.595914 0.595220 -2.754856 0
M  V30 18 C 0.866906 -0.775299 -2.771643 0
M  V30 19 N -0.357671 -3.964515 -0.201934 0
M  V30 20 C -1.245878 -3.331521 0.585586 0
M  V30 21 C -2.564314 -3.899248 0.838940 0
M  V30 22 C -2.857778 -5.117110 1.445226 0
M  V30 23 C -4.136462 -5.532602 1.624774 0
M  V30 24 C -5.236564 -4.771536 1.216197 0
M  V30 25 F -6.520199 -5.150598 1.377350 0
M  V30 26 C -4.891585 -3.581397 0.624953 0
M  V30 27 C -3.616159 -3.097262 0.410734 0
M  V30 28 C -0.627968 -2.154664 1.019804 0
M  V30 29 C -1.427056 -1.306916 1.898510 0
M  V30 30 C -1.800083 -1.766343 3.158600 0
M  V30 31 C -2.560229 -0.953459 3.983728 0
M  V30 32 N -2.947082 0.274435 3.592334 0
M  V30 33 C -2.612089 0.772512 2.375307 0
M  V30 34 N -2.990320 2.064621 1.899930 0
M  V30 35 C -2.046286 3.085870 2.220158 0
M  V30 36 C -2.215959 4.530077 1.830179 0
M  V30 37 O -0.940203 3.027995 2.851553 0
M  V30 38 C -1.854052 -0.037519 1.551939 0
M  V30 39 H 5.290698 -0.713220 2.333341 0
M  V30 40 H 4.165205 0.245732 1.201032 0
M  V30 41 H 5.561047 -0.623180 0.519496 0
M  V30 42 H 2.702880 -3.107120 1.840109 0
M  V30 43 H 3.688894 -2.237112 3.114847 0
M  V30 44 H 2.625521 -0.110219 2.450326 0
M  V30 45 H 1.438582 -1.327927 3.029165 0
M  V30 46 H 0.777226 0.014543 0.818717 0
M  V30 47 H 2.157431 -0.781280 0.096599 0
M  V30 48 H 1.472085 -3.173884 -3.387820 0
M  V30 49 H 3.226901 -3.075346 -3.265552 0
M  V30 50 H 4.214720 -0.780579 -2.717187 0
M  V30 51 H 3.790426 1.708775 -2.686218 0
M  V30 52 H 1.235979 2.840384 -0.340252 0
M  V30 53 H 0.017941 4.022674 -0.846945 0
M  V30 54 H 1.743121 4.553457 -0.768734 0
M  V30 55 H -0.447597 0.923885 -2.766674 0
M  V30 56 H -0.005209 -1.440907 -2.796469 0
M  V30 57 H -1.984705 -5.687309 1.752601 0
M  V30 58 H -4.337015 -6.487389 2.100779 0
M  V30 59 H -5.738323 -2.961664 0.293530 0
M  V30 60 H -3.493672 -2.122066 -0.077772 0
M  V30 61 H -1.459748 -2.759614 3.416778 0
M  V30 62 H -2.842644 -1.333083 4.969633 0
M  V30 63 H -3.801600 2.453792 1.366437 0
M  V30 64 H -3.127042 4.600890 1.213479 0
M  V30 65 H -2.299098 5.109885 2.751444 0
M  V30 66 H -1.357594 4.811586 1.172685 0
M  V30 67 H -1.580132 0.357278 0.566828 0
M  V30 END ATOM
M  V30 BEGIN BOND
M  V30 1 1 1 2
M  V30 2 1 2 3
M  V30 3 1 3 4
M  V30 4 1 4 5
M  V30 5 1 5 6
M  V30 6 1 6 7
M  V30 7 1 7 8
M  V30 8 1 8 9
M  V30 9 1 9 10
M  V30 10 2 10 11
M  V30 11 1 11 12
M  V30 12 2 12 13
M  V30 13 1 13 14
M  V30 14 1 14 15
M  V30 15 1 14 16
M  V30 16 1 13 17
M  V30 17 2 17 18
M  V30 18 2 7 19
M  V30 19 1 19 20
M  V30 20 1 20 21
M  V30 21 2 21 22
M  V30 22 1 22 23
M  V30 23 2 23 24
M  V30 24 1 24 25
M  V30 25 1 24 26
M  V30 26 2 26 27
M  V30 27 2 20 28
M  V30 28 1 28 29
M  V30 29 2 29 30
M  V30 30 1 30 31
M  V30 31 2 31 32
M  V30 32 1 32 33
M  V30 33 1 33 34
M  V30 34 1 34 35
M  V30 35 1 35 36
M  V30 36 2 35 37
M  V30 37 2 33 38
M  V30 38 1 28 6
M  V30 39 1 38 29
M  V30 40 1 18 10
M  V30 41 1 27 21
M  V30 42 1 1 39
M  V30 43 1 1 40
M  V30 44 1 1 41
M  V30 45 1 3 42
M  V30 46 1 3 43
M  V30 47 1 4 44
M  V30 48 1 4 45
M  V30 49 1 5 46
M  V30 50 1 5 47
M  V30 51 1 9 48
M  V30 52 1 9 49
M  V30 53 1 11 50
M  V30 54 1 12 51
M  V30 55 1 15 52
M  V30 56 1 15 53
M  V30 57 1 15 54
M  V30 58 1 17 55
M  V30 59 1 18 56
M  V30 60 1 22 57
M  V30 61 1 23 58
M  V30 62 1 26 59
M  V30 63 1 27 60
M  V30 64 1 30 61
M  V30 65 1 31 62
M  V30 66 1 34 63
M  V30 67 1 36 64
M  V30 68 1 36 65
M  V30 69 1 36 66
M  V30 70 1 38 67
M  V30 END BOND
M  V30 END CTAB
M  END
>  <Dataset>  (340) 
ChEMBL_Kinases

>  <Ligand_Instance>  (340) 
nan

>  <PDB_ID>  (340) 
nan

>  <Standardized_SMILES>  (340) 
COCCCn1c(SCc2ccc([S+](C)[O-])cc2)nc(-c2ccc(F)cc2)c1-c1ccnc(NC(C)=O)c1

>  <Name>  (340) 
nan

>  <Pocket>  (340) 
nan

>  <ATP_Site>  (340) 
nan

>  <Peripheral>  (340) 
nan

>  <Num_H_Atoms_ProtBoundConf>  (340) 
nan

>  <Num_Resolved_Atoms>  (340) 
nan

>  <Num_Not_Resolved_Atoms>  (340) 
nan

$$$$
CHEMBL222098
     RDKit          3D

  0  0  0  0  0  0  0  0  0  0999 V3000
M  V30 BEGIN CTAB
M  V30 COUNTS 69 71 0 0 0
M  V30 BEGIN ATOM
M  V30 1 C 3.440437 2.824621 -1.312033 0
M  V30 2 O 3.571356 2.017702 -0.185282 0
M  V30 3 N 2.491082 2.231761 0.594534 0
M  V30 4 C 2.107707 3.099838 1.649208 0
M  V30 5 O 2.874937 3.980802 2.109560 0
M  V30 6 C 0.771992 2.949451 2.205965 0
M  V30 7 C 0.446417 3.813863 3.226341 0
M  V30 8 C -0.825049 3.703538 3.789882 0
M  V30 9 C -1.750787 2.769042 3.362069 0
M  V30 10 C -3.086026 2.687230 3.985498 0
M  V30 11 C -1.419958 1.906929 2.341397 0
M  V30 12 N -2.345939 0.909929 1.859458 0
M  V30 13 C -1.894469 0.066266 0.780388 0
M  V30 14 N -2.176393 0.475858 -0.492134 0
M  V30 15 C -1.787182 -0.249687 -1.553324 0
M  V30 16 N -2.144348 0.282105 -2.816191 0
M  V30 17 C -2.910227 1.543589 -2.802646 0
M  V30 18 C -1.974454 -0.056474 -4.196874 0
M  V30 19 C -1.231207 -1.330574 -4.477045 0
M  V30 20 C -1.850121 -2.562172 -3.913640 0
M  V30 21 C -1.179765 -1.553928 -6.001251 0
M  V30 22 C 0.213850 -1.114775 -4.069895 0
M  V30 23 N -1.119226 -1.375280 -1.268994 0
M  V30 24 C -0.814092 -1.828797 -0.067381 0
M  V30 25 N -0.115555 -3.013738 0.180285 0
M  V30 26 C 0.199702 -3.401528 1.541402 0
M  V30 27 C 1.656254 -3.646869 1.749282 0
M  V30 28 N 2.317272 -4.226290 0.612862 0
M  V30 29 C 3.324593 -3.381648 0.013938 0
M  V30 30 C 1.426548 -4.850045 -0.319835 0
M  V30 31 C 0.343925 -3.934025 -0.820227 0
M  V30 32 N -1.229123 -1.061847 0.948413 0
M  V30 33 C -0.165704 2.030129 1.799307 0
M  V30 34 H 4.418887 2.950406 -1.821609 0
M  V30 35 H 3.017797 3.802378 -0.958093 0
M  V30 36 H 2.733800 2.415870 -2.059579 0
M  V30 37 H 1.926115 1.482044 0.155442 0
M  V30 38 H 1.109461 4.552415 3.600403 0
M  V30 39 H -1.069377 4.391952 4.594093 0
M  V30 40 H -3.186406 3.486541 4.764260 0
M  V30 41 H -3.876956 2.852613 3.227318 0
M  V30 42 H -3.280796 1.729088 4.500501 0
M  V30 43 H -3.264889 0.866563 2.315260 0
M  V30 44 H -3.074284 1.913638 -1.772650 0
M  V30 45 H -3.834316 1.483585 -3.388095 0
M  V30 46 H -2.253346 2.296525 -3.284495 0
M  V30 47 H -2.938829 -0.134378 -4.750424 0
M  V30 48 H -1.458670 0.822085 -4.690384 0
M  V30 49 H -2.738518 -2.406184 -3.280242 0
M  V30 50 H -2.214109 -3.293118 -4.700513 0
M  V30 51 H -1.038574 -3.159330 -3.401423 0
M  V30 52 H -2.205731 -1.772419 -6.346395 0
M  V30 53 H -0.672052 -0.729014 -6.525267 0
M  V30 54 H -0.636141 -2.532330 -6.119465 0
M  V30 55 H 0.335940 -0.253460 -3.359271 0
M  V30 56 H 0.859433 -0.833007 -4.930943 0
M  V30 57 H 0.577056 -2.070057 -3.685624 0
M  V30 58 H -0.358732 -4.360676 1.712993 0
M  V30 59 H -0.125525 -2.593687 2.247222 0
M  V30 60 H 1.755271 -4.370416 2.588919 0
M  V30 61 H 2.219817 -2.734854 2.053659 0
M  V30 62 H 2.973009 -3.001633 -0.969041 0
M  V30 63 H 4.242214 -3.998894 -0.127391 0
M  V30 64 H 3.616372 -2.568129 0.719305 0
M  V30 65 H 2.054384 -5.110579 -1.220005 0
M  V30 66 H 1.053442 -5.825681 0.053340 0
M  V30 67 H -0.531751 -4.600128 -1.053456 0
M  V30 68 H 0.686212 -3.375156 -1.689056 0
M  V30 69 H 0.090961 1.356446 1.001778 0
M  V30 END ATOM
M  V30 BEGIN BOND
M  V30 1 1 1 2
M  V30 2 1 2 3
M  V30 3 1 3 4
M  V30 4 2 4 5
M  V30 5 1 4 6
M  V30 6 2 6 7
M  V30 7 1 7 8
M  V30 8 2 8 9
M  V30 9 1 9 10
M  V30 10 1 9 11
M  V30 11 1 11 12
M  V30 12 1 12 13
M  V30 13 2 13 14
M  V30 14 1 14 15
M  V30 15 1 15 16
M  V30 16 1 16 17
M  V30 17 1 16 18
M  V30 18 1 18 19
M  V30 19 1 19 20
M  V30 20 1 19 21
M  V30 21 1 19 22
M  V30 22 2 15 23
M  V30 23 1 23 24
M  V30 24 1 24 25
M  V30 25 1 25 26
M  V30 26 1 26 27
M  V30 27 1 27 28
M  V30 28 1 28 29
M  V30 29 1 28 30
M  V30 30 1 30 31
M  V30 31 2 24 32
M  V30 32 2 11 33
M  V30 33 1 33 6
M  V30 34 1 32 13
M  V30 35 1 31 25
M  V30 36 1 1 34
M  V30 37 1 1 35
M  V30 38 1 1 36
M  V30 39 1 3 37
M  V30 40 1 7 38
M  V30 41 1 8 39
M  V30 42 1 10 40
M  V30 43 1 10 41
M  V30 44 1 10 42
M  V30 45 1 12 43
M  V30 46 1 17 44
M  V30 47 1 17 45
M  V30 48 1 17 46
M  V30 49 1 18 47
M  V30 50 1 18 48
M  V30 51 1 20 49
M  V30 52 1 20 50
M  V30 53 1 20 51
M  V30 54 1 21 52
M  V30 55 1 21 53
M  V30 56 1 21 54
M  V30 57 1 22 55
M  V30 58 1 22 56
M  V30 59 1 22 57
M  V30 60 1 26 58
M  V30 61 1 26 59
M  V30 62 1 27 60
M  V30 63 1 27 61
M  V30 64 1 29 62
M  V30 65 1 29 63
M  V30 66 1 29 64
M  V30 67 1 30 65
M  V30 68 1 30 66
M  V30 69 1 31 67
M  V30 70 1 31 68
M  V30 71 1 33 69
M  V30 END BOND
M  V30 END CTAB
M  END
>  <Dataset>  (341) 
ChEMBL_Kinases

>  <Ligand_Instance>  (341) 
nan

>  <PDB_ID>  (341) 
nan

>  <Standardized_SMILES>  (341) 
CONC(=O)c1ccc(C)c(Nc2nc(N(C)CC(C)(C)C)nc(N3CCN(C)CC3)n2)c1

>  <Name>  (341) 
nan

>  <Pocket>  (341) 
nan

>  <ATP_Site>  (341) 
nan

>  <Peripheral>  (341) 
nan

>  <Num_H_Atoms_ProtBoundConf>  (341) 
nan

>  <Num_Resolved_Atoms>  (341) 
nan

>  <Num_Not_Resolved_Atoms>  (341) 
nan

$$$$
CHEMBL222158
     RDKit          3D

  0  0  0  0  0  0  0  0  0  0999 V3000
M  V30 BEGIN CTAB
M  V30 COUNTS 60 64 0 0 0
M  V30 BEGIN ATOM
M  V30 1 C 4.722645 1.361983 4.185499 0
M  V30 2 C 4.659340 0.782980 2.782736 0
M  V30 3 N 5.304363 -0.495157 2.794087 0
M  V30 4 C 5.263226 -1.077608 1.467310 0
M  V30 5 C 3.848666 -1.250960 1.027609 0
M  V30 6 C 3.115435 -0.291892 0.331526 0
M  V30 7 C 1.813310 -0.613746 -0.000320 0
M  V30 8 N 1.326308 -1.819518 0.360181 0
M  V30 9 C 0.074294 -2.232160 0.087567 0
M  V30 10 C -1.101623 -1.688698 -0.583666 0
M  V30 11 C -1.609737 -2.301403 -1.706244 0
M  V30 12 C -2.717224 -1.810987 -2.357413 0
M  V30 13 N -3.353383 -0.700799 -1.916720 0
M  V30 14 C -2.850650 -0.110136 -0.821332 0
M  V30 15 C -3.489095 1.125900 -0.256429 0 CFG=1
M  V30 16 C -3.115132 1.259107 1.226102 0
M  V30 17 C -2.885219 2.315909 -0.954494 0
M  V30 18 C -3.544576 2.739956 -2.100922 0
M  V30 19 C -3.123882 3.812587 -2.856739 0
M  V30 20 C -1.993916 4.474144 -2.429220 0
M  V30 21 C -1.310695 4.078848 -1.290121 0
M  V30 22 C -1.751519 2.998423 -0.546403 0
M  V30 23 N -1.757423 -0.577530 -0.162139 0
M  V30 24 C -0.031875 -3.499394 0.614887 0
M  V30 25 C -1.092493 -4.495484 0.673980 0
M  V30 26 C -0.901083 -5.730402 0.050906 0
M  V30 27 C -1.900318 -6.688799 0.099233 0
M  V30 28 C -3.109153 -6.459667 0.758612 0
M  V30 29 F -4.095048 -7.396314 0.810342 0
M  V30 30 C -3.273268 -5.220511 1.370823 0
M  V30 31 C -2.292238 -4.229738 1.344873 0
M  V30 32 N 1.168788 -3.780330 1.178438 0
M  V30 33 C 1.999320 -2.750497 1.021617 0
M  V30 34 C 3.302551 -2.484181 1.378731 0
M  V30 35 H 5.711945 1.839057 4.358183 0
M  V30 36 H 4.615546 0.553127 4.931945 0
M  V30 37 H 3.957155 2.130879 4.365658 0
M  V30 38 H 3.579382 0.736867 2.521146 0
M  V30 39 H 5.236692 1.490773 2.144698 0
M  V30 40 H 4.880124 -1.129325 3.512950 0
M  V30 41 H 5.817961 -2.033046 1.412110 0
M  V30 42 H 5.779482 -0.354872 0.800912 0
M  V30 43 H 3.631207 0.641153 0.103382 0
M  V30 44 H 1.248899 0.140702 -0.543329 0
M  V30 45 H -1.136403 -3.193888 -2.099022 0
M  V30 46 H -3.097557 -2.321624 -3.248814 0
M  V30 47 H -4.574508 1.132872 -0.332296 0
M  V30 48 H -2.034009 0.997555 1.373341 0
M  V30 49 H -3.185043 2.337024 1.491599 0
M  V30 50 H -3.778526 0.651978 1.870768 0
M  V30 51 H -4.433090 2.227059 -2.444991 0
M  V30 52 H -3.663882 4.114204 -3.744434 0
M  V30 53 H -1.647530 5.326104 -3.016790 0
M  V30 54 H -0.410432 4.600873 -0.943481 0
M  V30 55 H -1.271083 2.623781 0.361402 0
M  V30 56 H 0.033688 -5.927619 -0.467820 0
M  V30 57 H -1.792619 -7.662511 -0.372118 0
M  V30 58 H -4.191516 -4.993534 1.894757 0
M  V30 59 H -2.461037 -3.273019 1.837173 0
M  V30 60 H 3.843134 -3.243456 1.915040 0
M  V30 END ATOM
M  V30 BEGIN BOND
M  V30 1 1 1 2
M  V30 2 1 2 3
M  V30 3 1 3 4
M  V30 4 1 4 5
M  V30 5 1 5 6
M  V30 6 2 6 7
M  V30 7 1 7 8
M  V30 8 1 8 9
M  V30 9 1 9 10
M  V30 10 2 10 11
M  V30 11 1 11 12
M  V30 12 2 12 13
M  V30 13 1 13 14
M  V30 14 1 14 15
M  V30 15 1 15 16
M  V30 16 1 15 17
M  V30 17 2 17 18
M  V30 18 1 18 19
M  V30 19 2 19 20
M  V30 20 1 20 21
M  V30 21 2 21 22
M  V30 22 2 14 23
M  V30 23 2 9 24
M  V30 24 1 24 25
M  V30 25 2 25 26
M  V30 26 1 26 27
M  V30 27 2 27 28
M  V30 28 1 28 29
M  V30 29 1 28 30
M  V30 30 2 30 31
M  V30 31 1 24 32
M  V30 32 2 32 33
M  V30 33 1 33 34
M  V30 34 2 34 5
M  V30 35 1 33 8
M  V30 36 1 23 10
M  V30 37 1 31 25
M  V30 38 1 22 17
M  V30 39 1 1 35
M  V30 40 1 1 36
M  V30 41 1 1 37
M  V30 42 1 2 38
M  V30 43 1 2 39
M  V30 44 1 3 40
M  V30 45 1 4 41
M  V30 46 1 4 42
M  V30 47 1 6 43
M  V30 48 1 7 44
M  V30 49 1 11 45
M  V30 50 1 12 46
M  V30 51 1 15 47 CFG=1
M  V30 52 1 16 48
M  V30 53 1 16 49
M  V30 54 1 16 50
M  V30 55 1 18 51
M  V30 56 1 19 52
M  V30 57 1 20 53
M  V30 58 1 21 54
M  V30 59 1 22 55
M  V30 60 1 26 56
M  V30 61 1 27 57
M  V30 62 1 30 58
M  V30 63 1 31 59
M  V30 64 1 34 60
M  V30 END BOND
M  V30 END CTAB
M  END
>  <Dataset>  (342) 
ChEMBL_Kinases

>  <Ligand_Instance>  (342) 
nan

>  <PDB_ID>  (342) 
nan

>  <Standardized_SMILES>  (342) 
CCNCc1ccn2c(-c3ccnc([C@@H](C)c4ccccc4)n3)c(-c3ccc(F)cc3)nc2c1

>  <Name>  (342) 
nan

>  <Pocket>  (342) 
nan

>  <ATP_Site>  (342) 
nan

>  <Peripheral>  (342) 
nan

>  <Num_H_Atoms_ProtBoundConf>  (342) 
nan

>  <Num_Resolved_Atoms>  (342) 
nan

>  <Num_Not_Resolved_Atoms>  (342) 
nan

$$$$
CHEMBL222227
     RDKit          3D

  0  0  0  0  0  0  0  0  0  0999 V3000
M  V30 BEGIN CTAB
M  V30 COUNTS 52 54 0 0 0
M  V30 BEGIN ATOM
M  V30 1 C -4.505320 0.435010 -4.447162 0
M  V30 2 S -3.831493 1.805196 -3.459493 0
M  V30 3 C -2.798938 1.054122 -2.194671 0
M  V30 4 N -3.461052 0.747099 -1.044108 0
M  V30 5 C -2.611048 0.196773 -0.170818 0
M  V30 6 C -2.789891 -0.307310 1.187744 0
M  V30 7 C -2.564256 -1.642933 1.437621 0
M  V30 8 C -2.726427 -2.142942 2.712428 0
M  V30 9 C -3.116763 -1.325189 3.767318 0
M  V30 10 F -3.275067 -1.828034 5.026679 0
M  V30 11 C -3.338240 0.019186 3.488971 0
M  V30 12 C -3.180668 0.545551 2.209871 0
M  V30 13 C -1.419375 0.181898 -0.829878 0
M  V30 14 C -0.149204 -0.330125 -0.331295 0
M  V30 15 C 0.539429 0.118997 0.780425 0
M  V30 16 C 1.741519 -0.488708 1.118892 0
M  V30 17 N 2.251715 -1.501726 0.393100 0
M  V30 18 C 1.600051 -1.963722 -0.701718 0
M  V30 19 N 2.132309 -3.048776 -1.490704 0
M  V30 20 C 3.017010 -2.934946 -2.614684 0
M  V30 21 C 3.459438 -4.165790 -3.303066 0
M  V30 22 O 3.471117 -1.866933 -3.092816 0
M  V30 23 C 0.398112 -1.383788 -1.072023 0
M  V30 24 N -1.490294 0.695310 -2.065464 0
M  V30 25 C -0.635816 0.956332 -3.189244 0
M  V30 26 C -0.031659 2.337153 -3.172465 0
M  V30 27 N 0.792612 2.632397 -2.051751 0
M  V30 28 C 1.981816 1.915378 -1.716077 0
M  V30 29 C 2.811272 2.272320 -0.527503 0
M  V30 30 O 2.355233 0.952156 -2.433904 0
M  V30 31 H -5.529922 0.144334 -4.073560 0
M  V30 32 H -3.906145 -0.483506 -4.377681 0
M  V30 33 H -4.573296 0.693388 -5.523926 0
M  V30 34 H -2.262402 -2.317898 0.664076 0
M  V30 35 H -2.561089 -3.190334 2.964880 0
M  V30 36 H -3.643787 0.685221 4.288651 0
M  V30 37 H -3.362621 1.593058 2.039001 0
M  V30 38 H 0.068873 0.936154 1.314537 0
M  V30 39 H 2.245246 -0.105050 1.996060 0
M  V30 40 H 1.795213 -3.960231 -1.147777 0
M  V30 41 H 3.228164 -4.093941 -4.403563 0
M  V30 42 H 4.577828 -4.237882 -3.268796 0
M  V30 43 H 2.987394 -5.075030 -2.934100 0
M  V30 44 H -0.081249 -1.792356 -1.955840 0
M  V30 45 H 0.250400 0.250778 -3.166811 0
M  V30 46 H -1.125843 0.775789 -4.161145 0
M  V30 47 H 0.460885 2.544881 -4.146906 0
M  V30 48 H -0.910616 3.041609 -3.132576 0
M  V30 49 H 0.580106 3.420764 -1.371280 0
M  V30 50 H 2.151834 2.485796 0.339646 0
M  V30 51 H 3.414349 3.202275 -0.701473 0
M  V30 52 H 3.448244 1.415917 -0.249730 0
M  V30 END ATOM
M  V30 BEGIN BOND
M  V30 1 1 1 2
M  V30 2 1 2 3
M  V30 3 2 3 4
M  V30 4 1 4 5
M  V30 5 1 5 6
M  V30 6 2 6 7
M  V30 7 1 7 8
M  V30 8 2 8 9
M  V30 9 1 9 10
M  V30 10 1 9 11
M  V30 11 2 11 12
M  V30 12 2 5 13
M  V30 13 1 13 14
M  V30 14 2 14 15
M  V30 15 1 15 16
M  V30 16 2 16 17
M  V30 17 1 17 18
M  V30 18 1 18 19
M  V30 19 1 19 20
M  V30 20 1 20 21
M  V30 21 2 20 22
M  V30 22 2 18 23
M  V30 23 1 13 24
M  V30 24 1 24 25
M  V30 25 1 25 26
M  V30 26 1 26 27
M  V30 27 1 27 28
M  V30 28 1 28 29
M  V30 29 2 28 30
M  V30 30 1 24 3
M  V30 31 1 12 6
M  V30 32 1 23 14
M  V30 33 1 1 31
M  V30 34 1 1 32
M  V30 35 1 1 33
M  V30 36 1 7 34
M  V30 37 1 8 35
M  V30 38 1 11 36
M  V30 39 1 12 37
M  V30 40 1 15 38
M  V30 41 1 16 39
M  V30 42 1 19 40
M  V30 43 1 21 41
M  V30 44 1 21 42
M  V30 45 1 21 43
M  V30 46 1 23 44
M  V30 47 1 25 45
M  V30 48 1 25 46
M  V30 49 1 26 47
M  V30 50 1 26 48
M  V30 51 1 27 49
M  V30 52 1 29 50
M  V30 53 1 29 51
M  V30 54 1 29 52
M  V30 END BOND
M  V30 END CTAB
M  END
>  <Dataset>  (343) 
ChEMBL_Kinases

>  <Ligand_Instance>  (343) 
nan

>  <PDB_ID>  (343) 
nan

>  <Standardized_SMILES>  (343) 
CSc1nc(-c2ccc(F)cc2)c(-c2ccnc(NC(C)=O)c2)n1CCNC(C)=O

>  <Name>  (343) 
nan

>  <Pocket>  (343) 
nan

>  <ATP_Site>  (343) 
nan

>  <Peripheral>  (343) 
nan

>  <Num_H_Atoms_ProtBoundConf>  (343) 
nan

>  <Num_Resolved_Atoms>  (343) 
nan

>  <Num_Not_Resolved_Atoms>  (343) 
nan

$$$$
CHEMBL222267
     RDKit          3D

  0  0  0  0  0  0  0  0  0  0999 V3000
M  V30 BEGIN CTAB
M  V30 COUNTS 68 70 0 0 0
M  V30 BEGIN ATOM
M  V30 1 C 1.358950 -0.258932 5.030473 0
M  V30 2 C 2.069260 -1.209355 4.077985 0
M  V30 3 N 2.246326 -0.542633 2.801761 0
M  V30 4 C 3.023843 0.637735 2.753122 0
M  V30 5 O 3.566048 1.107360 3.795775 0
M  V30 6 C 3.267695 1.398592 1.537959 0
M  V30 7 C 4.202890 2.408099 1.491750 0
M  V30 8 C 4.390904 3.111127 0.316169 0
M  V30 9 C 3.647170 2.814487 -0.824186 0
M  V30 10 C 3.848672 3.583238 -2.076859 0
M  V30 11 C 2.700367 1.816245 -0.830039 0
M  V30 12 N 1.937643 1.491720 -1.986238 0
M  V30 13 C 0.917729 0.525624 -1.739464 0
M  V30 14 N -0.168298 1.267871 -1.460289 0
M  V30 15 C -1.376177 0.739541 -1.141213 0
M  V30 16 N -2.552940 1.481506 -0.842820 0
M  V30 17 C -3.814328 0.952526 -0.512015 0 CFG=1
M  V30 18 C -4.465447 0.066603 -1.534110 0
M  V30 19 C -5.620532 -0.480425 -0.708292 0
M  V30 20 N -4.945523 -0.849979 0.521822 0
M  V30 21 C -3.858431 0.082173 0.722439 0
M  V30 22 N -1.496793 -0.585974 -1.101229 0
M  V30 23 C -0.406578 -1.324284 -1.381572 0
M  V30 24 N -0.431641 -2.768048 -1.327479 0
M  V30 25 C -1.197597 -3.209272 -2.463926 0
M  V30 26 C 0.279334 -3.275209 -0.197339 0
M  V30 27 C -0.534906 -3.891148 0.889623 0
M  V30 28 C -1.349832 -5.082165 0.441829 0
M  V30 29 C -1.498557 -2.914609 1.527521 0
M  V30 30 C 0.430903 -4.336229 1.987247 0
M  V30 31 N 0.815193 -0.810560 -1.704884 0
M  V30 32 C 2.575170 1.161775 0.384745 0
M  V30 33 H 0.836931 -0.818182 5.818172 0
M  V30 34 H 2.024333 0.491031 5.484934 0
M  V30 35 H 0.605206 0.302156 4.434966 0
M  V30 36 H 1.509139 -2.144078 3.965182 0
M  V30 37 H 3.090039 -1.454665 4.498626 0
M  V30 38 H 1.810015 -0.934698 1.956790 0
M  V30 39 H 4.773242 2.623778 2.395079 0
M  V30 40 H 5.128496 3.907828 0.278576 0
M  V30 41 H 2.969786 4.265608 -2.221751 0
M  V30 42 H 4.786550 4.183838 -1.985166 0
M  V30 43 H 3.917945 2.891689 -2.924632 0
M  V30 44 H 2.134002 1.934848 -2.901502 0
M  V30 45 H -2.379315 2.531754 -0.894512 0
M  V30 46 H -4.514407 1.791607 -0.326770 0
M  V30 47 H -3.873830 -0.815828 -1.809060 0
M  V30 48 H -4.902486 0.611223 -2.391215 0
M  V30 49 H -6.033721 -1.394139 -1.207693 0
M  V30 50 H -6.380120 0.295758 -0.515329 0
M  V30 51 H -4.525518 -1.792184 0.367152 0
M  V30 52 H -2.888635 -0.441778 0.804483 0
M  V30 53 H -4.055534 0.664977 1.638662 0
M  V30 54 H -0.863224 -2.705089 -3.410056 0
M  V30 55 H -2.277886 -2.977768 -2.350887 0
M  V30 56 H -1.140236 -4.301742 -2.661669 0
M  V30 57 H 0.961475 -4.118069 -0.557441 0
M  V30 58 H 0.996598 -2.553523 0.236581 0
M  V30 59 H -2.435740 -4.871414 0.464935 0
M  V30 60 H -1.088780 -5.436132 -0.574338 0
M  V30 61 H -1.128463 -5.962016 1.114736 0
M  V30 62 H -1.642090 -3.246466 2.581443 0
M  V30 63 H -2.460898 -3.010653 1.021847 0
M  V30 64 H -1.112425 -1.884850 1.582424 0
M  V30 65 H -0.065629 -4.165479 2.963025 0
M  V30 66 H 1.337413 -3.698647 1.913421 0
M  V30 67 H 0.676644 -5.417600 1.880016 0
M  V30 68 H 1.833384 0.360640 0.417474 0
M  V30 END ATOM
M  V30 BEGIN BOND
M  V30 1 1 1 2
M  V30 2 1 2 3
M  V30 3 1 3 4
M  V30 4 2 4 5
M  V30 5 1 4 6
M  V30 6 2 6 7
M  V30 7 1 7 8
M  V30 8 2 8 9
M  V30 9 1 9 10
M  V30 10 1 9 11
M  V30 11 1 11 12
M  V30 12 1 12 13
M  V30 13 2 13 14
M  V30 14 1 14 15
M  V30 15 1 15 16
M  V30 16 1 16 17
M  V30 17 1 17 18
M  V30 18 1 18 19
M  V30 19 1 19 20
M  V30 20 1 20 21
M  V30 21 2 15 22
M  V30 22 1 22 23
M  V30 23 1 23 24
M  V30 24 1 24 25
M  V30 25 1 24 26
M  V30 26 1 26 27
M  V30 27 1 27 28
M  V30 28 1 27 29
M  V30 29 1 27 30
M  V30 30 2 23 31
M  V30 31 2 11 32
M  V30 32 1 32 6
M  V30 33 1 31 13
M  V30 34 1 21 17
M  V30 35 1 1 33
M  V30 36 1 1 34
M  V30 37 1 1 35
M  V30 38 1 2 36
M  V30 39 1 2 37
M  V30 40 1 3 38
M  V30 41 1 7 39
M  V30 42 1 8 40
M  V30 43 1 10 41
M  V30 44 1 10 42
M  V30 45 1 10 43
M  V30 46 1 12 44
M  V30 47 1 16 45
M  V30 48 1 17 46 CFG=1
M  V30 49 1 18 47
M  V30 50 1 18 48
M  V30 51 1 19 49
M  V30 52 1 19 50
M  V30 53 1 20 51
M  V30 54 1 21 52
M  V30 55 1 21 53
M  V30 56 1 25 54
M  V30 57 1 25 55
M  V30 58 1 25 56
M  V30 59 1 26 57
M  V30 60 1 26 58
M  V30 61 1 28 59
M  V30 62 1 28 60
M  V30 63 1 28 61
M  V30 64 1 29 62
M  V30 65 1 29 63
M  V30 66 1 29 64
M  V30 67 1 30 65
M  V30 68 1 30 66
M  V30 69 1 30 67
M  V30 70 1 32 68
M  V30 END BOND
M  V30 END CTAB
M  END
>  <Dataset>  (344) 
ChEMBL_Kinases

>  <Ligand_Instance>  (344) 
nan

>  <PDB_ID>  (344) 
nan

>  <Standardized_SMILES>  (344) 
CCNC(=O)c1ccc(C)c(Nc2nc(N[C@H]3CCNC3)nc(N(C)CC(C)(C)C)n2)c1

>  <Name>  (344) 
nan

>  <Pocket>  (344) 
nan

>  <ATP_Site>  (344) 
nan

>  <Peripheral>  (344) 
nan

>  <Num_H_Atoms_ProtBoundConf>  (344) 
nan

>  <Num_Resolved_Atoms>  (344) 
nan

>  <Num_Not_Resolved_Atoms>  (344) 
nan

$$$$
CHEMBL222268
     RDKit          3D

  0  0  0  0  0  0  0  0  0  0999 V3000
M  V30 BEGIN CTAB
M  V30 COUNTS 64 66 0 0 0
M  V30 BEGIN ATOM
M  V30 1 C 1.343514 -0.666157 5.006298 0
M  V30 2 O 1.920646 -0.094458 3.841826 0
M  V30 3 C 3.217878 0.382676 3.796417 0
M  V30 4 O 3.990776 0.346617 4.781716 0
M  V30 5 C 3.714889 0.953764 2.555483 0
M  V30 6 C 5.016205 1.448819 2.467188 0
M  V30 7 C 5.469977 1.995467 1.282633 0
M  V30 8 C 4.667518 2.067280 0.175597 0
M  V30 9 C 5.116643 2.648512 -1.129331 0
M  V30 10 C 3.379852 1.595856 0.207686 0
M  V30 11 N 2.433154 1.631766 -0.881666 0
M  V30 12 C 1.130917 1.069623 -0.723967 0
M  V30 13 N 0.137387 1.705021 -0.072510 0
M  V30 14 C -1.100716 1.136016 0.051945 0
M  V30 15 N -2.151941 1.792961 0.741818 0
M  V30 16 C -3.454512 1.269740 0.904731 0 CFG=1
M  V30 17 C -4.218646 0.993641 -0.345782 0
M  V30 18 C -5.040001 -0.210524 -0.003152 0
M  V30 19 N -4.492443 -0.845503 1.148773 0
M  V30 20 C -3.397060 -0.035366 1.637777 0
M  V30 21 N -1.222761 -0.064487 -0.514624 0
M  V30 22 C -0.299389 -0.755323 -1.170904 0
M  V30 23 N -0.539148 -2.047852 -1.743997 0
M  V30 24 C 0.583060 -2.628161 -2.450935 0
M  V30 25 C -1.852118 -2.580168 -1.531673 0
M  V30 26 C -1.918493 -3.770010 -0.621967 0
M  V30 27 C -1.098582 -4.874975 -1.220429 0
M  V30 28 C -3.361344 -4.203701 -0.459085 0
M  V30 29 C -1.399520 -3.467501 0.767192 0
M  V30 30 N 0.888535 -0.134552 -1.252332 0
M  V30 31 C 2.949288 1.049886 1.413345 0
M  V30 32 H 0.391008 -1.126935 4.718057 0
M  V30 33 H 2.028555 -1.429038 5.389557 0
M  V30 34 H 1.182942 0.150993 5.769665 0
M  V30 35 H 5.664549 1.399758 3.337432 0
M  V30 36 H 6.477167 2.374695 1.229109 0
M  V30 37 H 6.238637 2.571394 -1.125239 0
M  V30 38 H 4.878854 3.706165 -1.249292 0
M  V30 39 H 4.765644 1.986717 -1.959997 0
M  V30 40 H 2.730673 2.081002 -1.794037 0
M  V30 41 H -1.913979 2.746025 1.155523 0
M  V30 42 H -4.081738 1.978628 1.508228 0
M  V30 43 H -4.897563 1.838249 -0.591117 0
M  V30 44 H -3.613244 0.773378 -1.219840 0
M  V30 45 H -6.133377 0.048050 0.106514 0
M  V30 46 H -5.047536 -0.959514 -0.844031 0
M  V30 47 H -4.209196 -1.839895 1.027356 0
M  V30 48 H -3.488219 0.085363 2.744369 0
M  V30 49 H -2.446267 -0.572980 1.450012 0
M  V30 50 H 1.014162 -1.815282 -3.103677 0
M  V30 51 H 1.386329 -2.876433 -1.694798 0
M  V30 52 H 0.344833 -3.485416 -3.078887 0
M  V30 53 H -2.600924 -1.802927 -1.283621 0
M  V30 54 H -2.180637 -2.964892 -2.546553 0
M  V30 55 H -0.027554 -4.685145 -1.044323 0
M  V30 56 H -1.326653 -5.005171 -2.314631 0
M  V30 57 H -1.361144 -5.845500 -0.708735 0
M  V30 58 H -3.591608 -4.464864 0.600036 0
M  V30 59 H -3.579990 -5.081754 -1.115984 0
M  V30 60 H -4.065814 -3.417848 -0.774605 0
M  V30 61 H -0.412706 -2.929963 0.722418 0
M  V30 62 H -1.159788 -4.441230 1.242154 0
M  V30 63 H -2.097237 -2.941618 1.415641 0
M  V30 64 H 1.928719 0.651699 1.508941 0
M  V30 END ATOM
M  V30 BEGIN BOND
M  V30 1 1 1 2
M  V30 2 1 2 3
M  V30 3 2 3 4
M  V30 4 1 3 5
M  V30 5 2 5 6
M  V30 6 1 6 7
M  V30 7 2 7 8
M  V30 8 1 8 9
M  V30 9 1 8 10
M  V30 10 1 10 11
M  V30 11 1 11 12
M  V30 12 2 12 13
M  V30 13 1 13 14
M  V30 14 1 14 15
M  V30 15 1 15 16
M  V30 16 1 16 17
M  V30 17 1 17 18
M  V30 18 1 18 19
M  V30 19 1 19 20
M  V30 20 2 14 21
M  V30 21 1 21 22
M  V30 22 1 22 23
M  V30 23 1 23 24
M  V30 24 1 23 25
M  V30 25 1 25 26
M  V30 26 1 26 27
M  V30 27 1 26 28
M  V30 28 1 26 29
M  V30 29 2 22 30
M  V30 30 2 10 31
M  V30 31 1 31 5
M  V30 32 1 30 12
M  V30 33 1 20 16
M  V30 34 1 1 32
M  V30 35 1 1 33
M  V30 36 1 1 34
M  V30 37 1 6 35
M  V30 38 1 7 36
M  V30 39 1 9 37
M  V30 40 1 9 38
M  V30 41 1 9 39
M  V30 42 1 11 40
M  V30 43 1 15 41
M  V30 44 1 16 42 CFG=1
M  V30 45 1 17 43
M  V30 46 1 17 44
M  V30 47 1 18 45
M  V30 48 1 18 46
M  V30 49 1 19 47
M  V30 50 1 20 48
M  V30 51 1 20 49
M  V30 52 1 24 50
M  V30 53 1 24 51
M  V30 54 1 24 52
M  V30 55 1 25 53
M  V30 56 1 25 54
M  V30 57 1 27 55
M  V30 58 1 27 56
M  V30 59 1 27 57
M  V30 60 1 28 58
M  V30 61 1 28 59
M  V30 62 1 28 60
M  V30 63 1 29 61
M  V30 64 1 29 62
M  V30 65 1 29 63
M  V30 66 1 31 64
M  V30 END BOND
M  V30 END CTAB
M  END
>  <Dataset>  (345) 
ChEMBL_Kinases

>  <Ligand_Instance>  (345) 
nan

>  <PDB_ID>  (345) 
nan

>  <Standardized_SMILES>  (345) 
COC(=O)c1ccc(C)c(Nc2nc(N[C@H]3CCNC3)nc(N(C)CC(C)(C)C)n2)c1

>  <Name>  (345) 
nan

>  <Pocket>  (345) 
nan

>  <ATP_Site>  (345) 
nan

>  <Peripheral>  (345) 
nan

>  <Num_H_Atoms_ProtBoundConf>  (345) 
nan

>  <Num_Resolved_Atoms>  (345) 
nan

>  <Num_Not_Resolved_Atoms>  (345) 
nan

$$$$
CHEMBL222304
     RDKit          3D

  0  0  0  0  0  0  0  0  0  0999 V3000
M  V30 BEGIN CTAB
M  V30 COUNTS 73 77 0 0 0
M  V30 BEGIN ATOM
M  V30 1 C 1.348583 0.612795 5.043588 0
M  V30 2 C 2.532390 0.287433 4.185136 0
M  V30 3 C 3.789513 0.633674 4.615879 0
M  V30 4 C 4.909992 0.357009 3.863920 0
M  V30 5 C 4.742657 -0.278229 2.663123 0
M  V30 6 C 5.913717 -0.573579 1.865412 0
M  V30 7 N 5.879105 -1.225439 0.604669 0
M  V30 8 O 7.038088 -0.234090 2.310840 0
M  V30 9 C 3.461929 -0.605180 2.274345 0
M  V30 10 C 2.302077 -0.358666 2.975412 0
M  V30 11 N 1.006263 -0.704081 2.554186 0
M  V30 12 C 0.613182 -1.357267 1.361151 0
M  V30 13 N -0.679462 -1.605151 1.129065 0
M  V30 14 C -1.185245 -2.207518 0.056101 0
M  V30 15 N -2.568795 -2.445344 -0.138611 0
M  V30 16 C -3.609009 -2.061424 0.786129 0
M  V30 17 C -3.593400 -0.561631 0.924822 0 CFG=2
M  V30 18 C -4.656973 -0.065155 1.878240 0
M  V30 19 C -5.268158 1.235759 1.479007 0
M  V30 20 C -4.809398 1.737569 0.140836 0 CFG=1
M  V30 21 C -3.301172 1.623775 -0.031288 0
M  V30 22 C -3.587047 0.156534 -0.377462 0 CFG=2
M  V30 23 C -4.908858 0.640999 -0.881362 0
M  V30 24 C -4.704996 1.234881 -2.276585 0
M  V30 25 C -6.073500 -0.258001 -0.866641 0
M  V30 26 N -0.299465 -2.598718 -0.875153 0
M  V30 27 C 1.021032 -2.399302 -0.742576 0
M  V30 28 N 1.943991 -2.820000 -1.738385 0
M  V30 29 C 3.356273 -2.567341 -1.522875 0
M  V30 30 C 3.613142 -1.137347 -1.957610 0
M  V30 31 C 2.663586 -0.854869 -3.110729 0
M  V30 32 N 2.772461 -1.856857 -4.122973 0
M  V30 33 C 1.649308 -2.764229 -4.171157 0
M  V30 34 C 1.363381 -3.472772 -2.891695 0
M  V30 35 N 1.397435 -1.790934 0.366967 0
M  V30 36 H 1.653322 1.064223 5.988612 0
M  V30 37 H 0.773685 -0.344491 5.194779 0
M  V30 38 H 0.697009 1.282508 4.439986 0
M  V30 39 H 3.888957 1.138899 5.577403 0
M  V30 40 H 5.874838 0.637065 4.222390 0
M  V30 41 H 6.142923 -2.141749 0.179759 0
M  V30 42 H 6.251130 -2.209087 0.532329 0
M  V30 43 H 3.414237 -1.103088 1.317019 0
M  V30 44 H 0.230499 -0.437138 3.222238 0
M  V30 45 H -2.889166 -2.930689 -1.002971 0
M  V30 46 H -4.586540 -2.471705 0.535623 0
M  V30 47 H -3.291183 -2.503723 1.777868 0
M  V30 48 H -2.629241 -0.306607 1.415209 0
M  V30 49 H -4.258584 0.091934 2.920804 0
M  V30 50 H -5.387198 -0.897215 2.015643 0
M  V30 51 H -6.387527 1.197822 1.420077 0
M  V30 52 H -5.058495 2.078264 2.199502 0
M  V30 53 H -5.241907 2.704138 -0.108458 0
M  V30 54 H -2.975764 2.162599 -0.935162 0
M  V30 55 H -2.696136 1.751098 0.873399 0
M  V30 56 H -2.908528 -0.306381 -1.095808 0
M  V30 57 H -5.567769 1.012879 -2.940944 0
M  V30 58 H -3.814550 0.774699 -2.765439 0
M  V30 59 H -4.527677 2.324736 -2.249016 0
M  V30 60 H -6.816845 0.110957 -1.632610 0
M  V30 61 H -5.772947 -1.254055 -1.233730 0
M  V30 62 H -6.660241 -0.310402 0.067811 0
M  V30 63 H 3.977187 -3.219228 -2.160926 0
M  V30 64 H 3.597705 -2.729523 -0.436136 0
M  V30 65 H 4.673828 -0.973411 -2.233056 0
M  V30 66 H 3.302345 -0.498788 -1.103769 0
M  V30 67 H 1.648212 -0.720154 -2.707854 0
M  V30 68 H 3.007658 0.132141 -3.529948 0
M  V30 69 H 2.834637 -1.404862 -5.054639 0
M  V30 70 H 1.854493 -3.513398 -4.962437 0
M  V30 71 H 0.710934 -2.258229 -4.483699 0
M  V30 72 H 0.275714 -3.673694 -2.741983 0
M  V30 73 H 1.829089 -4.479274 -2.932465 0
M  V30 END ATOM
M  V30 BEGIN BOND
M  V30 1 1 1 2
M  V30 2 2 2 3
M  V30 3 1 3 4
M  V30 4 2 4 5
M  V30 5 1 5 6
M  V30 6 1 6 7
M  V30 7 2 6 8
M  V30 8 1 5 9
M  V30 9 2 9 10
M  V30 10 1 10 11
M  V30 11 1 11 12
M  V30 12 2 12 13
M  V30 13 1 13 14
M  V30 14 1 14 15
M  V30 15 1 15 16
M  V30 16 1 16 17
M  V30 17 1 17 18
M  V30 18 1 18 19
M  V30 19 1 19 20
M  V30 20 1 20 21
M  V30 21 1 21 22
M  V30 22 1 22 23
M  V30 23 1 23 24
M  V30 24 1 23 25
M  V30 25 2 14 26
M  V30 26 1 26 27
M  V30 27 1 27 28
M  V30 28 1 28 29
M  V30 29 1 29 30
M  V30 30 1 30 31
M  V30 31 1 31 32
M  V30 32 1 32 33
M  V30 33 1 33 34
M  V30 34 2 27 35
M  V30 35 1 10 2
M  V30 36 1 35 12
M  V30 37 1 22 17
M  V30 38 1 34 28
M  V30 39 1 23 20
M  V30 40 1 1 36
M  V30 41 1 1 37
M  V30 42 1 1 38
M  V30 43 1 3 39
M  V30 44 1 4 40
M  V30 45 1 7 41
M  V30 46 1 7 42
M  V30 47 1 9 43
M  V30 48 1 11 44
M  V30 49 1 15 45
M  V30 50 1 16 46
M  V30 51 1 16 47
M  V30 52 1 17 48 CFG=1
M  V30 53 1 18 49
M  V30 54 1 18 50
M  V30 55 1 19 51
M  V30 56 1 19 52
M  V30 57 1 20 53 CFG=3
M  V30 58 1 21 54
M  V30 59 1 21 55
M  V30 60 1 22 56 CFG=3
M  V30 61 1 24 57
M  V30 62 1 24 58
M  V30 63 1 24 59
M  V30 64 1 25 60
M  V30 65 1 25 61
M  V30 66 1 25 62
M  V30 67 1 29 63
M  V30 68 1 29 64
M  V30 69 1 30 65
M  V30 70 1 30 66
M  V30 71 1 31 67
M  V30 72 1 31 68
M  V30 73 1 32 69
M  V30 74 1 33 70
M  V30 75 1 33 71
M  V30 76 1 34 72
M  V30 77 1 34 73
M  V30 END BOND
M  V30 END CTAB
M  END
>  <Dataset>  (346) 
ChEMBL_Kinases

>  <Ligand_Instance>  (346) 
nan

>  <PDB_ID>  (346) 
nan

>  <Standardized_SMILES>  (346) 
Cc1ccc(C(N)=O)cc1Nc1nc(NC[C@@H]2CC[C@H]3C[C@@H]2C3(C)C)nc(N2CCCNCC2)n1

>  <Name>  (346) 
nan

>  <Pocket>  (346) 
nan

>  <ATP_Site>  (346) 
nan

>  <Peripheral>  (346) 
nan

>  <Num_H_Atoms_ProtBoundConf>  (346) 
nan

>  <Num_Resolved_Atoms>  (346) 
nan

>  <Num_Not_Resolved_Atoms>  (346) 
nan

$$$$
CHEMBL222312
     RDKit          3D

  0  0  0  0  0  0  0  0  0  0999 V3000
M  V30 BEGIN CTAB
M  V30 COUNTS 47 50 0 0 0
M  V30 BEGIN ATOM
M  V30 1 C -1.532971 -6.736793 2.166146 0
M  V30 2 O -1.578756 -5.332816 2.283455 0
M  V30 3 C -1.154476 -4.453348 1.324497 0
M  V30 4 C -0.608696 -4.780314 0.077336 0
M  V30 5 C -0.217306 -3.776130 -0.805465 0
M  V30 6 N 0.326292 -3.890734 -2.045649 0
M  V30 7 C 0.538799 -2.636364 -2.518286 0
M  V30 8 N 0.137495 -1.779871 -1.595509 0
M  V30 9 C 0.130277 -0.324137 -1.565484 0
M  V30 10 C 0.929793 0.503874 -0.896219 0
M  V30 11 C 0.786880 1.843729 -0.978759 0
M  V30 12 O 1.399780 2.943218 -0.454630 0
M  V30 13 C 2.448938 3.110804 0.405686 0
M  V30 14 C 2.165786 2.488436 1.720655 0
M  V30 15 C 1.439252 3.291067 2.612945 0
M  V30 16 C 1.075151 2.937621 3.878665 0
M  V30 17 C 1.433827 1.698213 4.351448 0
M  V30 18 C 2.148566 0.883313 3.501757 0
M  V30 19 C 2.504889 1.255336 2.235438 0
M  V30 20 C -0.262349 2.262486 -1.819889 0
M  V30 21 C -0.813559 3.577684 -2.234898 0
M  V30 22 O -0.300618 4.609774 -1.795118 0
M  V30 23 O -1.872957 3.644052 -3.090743 0
M  V30 24 S -0.947031 0.728127 -2.413611 0
M  V30 25 C -0.346428 -2.434940 -0.498585 0
M  V30 26 C -0.881674 -2.109193 0.724543 0
M  V30 27 C -1.268939 -3.104501 1.598004 0
M  V30 28 O -1.798782 -2.686976 2.809731 0
M  V30 29 C -1.921105 -1.310508 3.101685 0
M  V30 30 H -0.668267 -7.110362 1.582956 0
M  V30 31 H -1.457365 -7.239081 3.156651 0
M  V30 32 H -2.487982 -7.077092 1.714276 0
M  V30 33 H -0.520470 -5.839497 -0.133631 0
M  V30 34 H 0.957452 -2.332737 -3.469714 0
M  V30 35 H 1.710277 0.079698 -0.278604 0
M  V30 36 H 2.599906 4.205824 0.560760 0
M  V30 37 H 3.412124 2.662114 0.059042 0
M  V30 38 H 1.108335 4.300590 2.321906 0
M  V30 39 H 0.519413 3.578426 4.532132 0
M  V30 40 H 1.215636 1.288323 5.323964 0
M  V30 41 H 2.485252 -0.125192 3.777900 0
M  V30 42 H 3.071730 0.652251 1.542799 0
M  V30 43 H -2.559913 4.415069 -3.079617 0
M  V30 44 H -0.971534 -1.058732 0.939190 0
M  V30 45 H -2.292138 -1.158419 4.124860 0
M  V30 46 H -2.582596 -0.762459 2.400805 0
M  V30 47 H -0.909853 -0.844103 2.966775 0
M  V30 END ATOM
M  V30 BEGIN BOND
M  V30 1 1 1 2
M  V30 2 1 2 3
M  V30 3 2 3 4
M  V30 4 1 4 5
M  V30 5 1 5 6
M  V30 6 2 6 7
M  V30 7 1 7 8
M  V30 8 1 8 9
M  V30 9 2 9 10
M  V30 10 1 10 11
M  V30 11 1 11 12
M  V30 12 1 12 13
M  V30 13 1 13 14
M  V30 14 2 14 15
M  V30 15 1 15 16
M  V30 16 2 16 17
M  V30 17 1 17 18
M  V30 18 2 18 19
M  V30 19 2 11 20
M  V30 20 1 20 21
M  V30 21 2 21 22
M  V30 22 1 21 23
M  V30 23 1 20 24
M  V30 24 1 8 25
M  V30 25 1 25 26
M  V30 26 2 26 27
M  V30 27 1 27 28
M  V30 28 1 28 29
M  V30 29 1 27 3
M  V30 30 2 25 5
M  V30 31 1 24 9
M  V30 32 1 19 14
M  V30 33 1 1 30
M  V30 34 1 1 31
M  V30 35 1 1 32
M  V30 36 1 4 33
M  V30 37 1 7 34
M  V30 38 1 10 35
M  V30 39 1 13 36
M  V30 40 1 13 37
M  V30 41 1 15 38
M  V30 42 1 16 39
M  V30 43 1 17 40
M  V30 44 1 18 41
M  V30 45 1 19 42
M  V30 46 1 23 43
M  V30 47 1 26 44
M  V30 48 1 29 45
M  V30 49 1 29 46
M  V30 50 1 29 47
M  V30 END BOND
M  V30 END CTAB
M  END
>  <Dataset>  (347) 
ChEMBL_Kinases

>  <Ligand_Instance>  (347) 
nan

>  <PDB_ID>  (347) 
nan

>  <Standardized_SMILES>  (347) 
COc1cc2ncn(-c3cc(OCc4ccccc4)c(C(=O)O)s3)c2cc1OC

>  <Name>  (347) 
nan

>  <Pocket>  (347) 
nan

>  <ATP_Site>  (347) 
nan

>  <Peripheral>  (347) 
nan

>  <Num_H_Atoms_ProtBoundConf>  (347) 
nan

>  <Num_Resolved_Atoms>  (347) 
nan

>  <Num_Not_Resolved_Atoms>  (347) 
nan

$$$$
CHEMBL222318
     RDKit          3D

  0  0  0  0  0  0  0  0  0  0999 V3000
M  V30 BEGIN CTAB
M  V30 COUNTS 64 68 0 0 0
M  V30 BEGIN ATOM
M  V30 1 C 2.762386 -3.977853 -1.191510 0
M  V30 2 O 2.624604 -2.756795 -1.875341 0
M  V30 3 C 2.170578 -1.626212 -1.229153 0
M  V30 4 C 1.837448 -1.670413 0.128860 0
M  V30 5 C 1.393718 -0.506093 0.702368 0
M  V30 6 C 1.257843 0.690469 0.029917 0
M  V30 7 C 1.601164 0.674010 -1.306357 0
M  V30 8 C 2.056458 -0.442282 -1.974725 0
M  V30 9 O 2.404086 -0.506946 -3.282599 0
M  V30 10 C 2.387785 0.445612 -4.282797 0
M  V30 11 C 1.053302 1.000591 -4.659951 0
M  V30 12 N 1.208860 1.992363 -5.697192 0
M  V30 13 C 1.856301 3.210480 -5.252768 0
M  V30 14 C 0.801887 4.318211 -5.077514 0
M  V30 15 O -0.328204 3.780703 -4.460067 0
M  V30 16 C -1.008142 2.913316 -5.317107 0
M  V30 17 C -0.054445 2.327392 -6.340249 0
M  V30 18 N 0.807071 1.611543 0.885977 0
M  V30 19 C 0.652559 1.012091 2.104306 0
M  V30 20 N 1.022465 -0.294861 1.959931 0
M  V30 21 C 0.918665 -1.055017 3.129207 0
M  V30 22 C -0.118706 -1.823116 3.644589 0
M  V30 23 C 0.013370 -2.467616 4.837392 0
M  V30 24 O -0.725036 -3.233281 5.586891 0
M  V30 25 C -1.859177 -3.901847 5.846090 0
M  V30 26 C -3.105513 -3.080186 5.816131 0
M  V30 27 C -3.389028 -2.326044 6.945967 0
M  V30 28 C -4.452127 -1.446719 6.935141 0
M  V30 29 C -5.227474 -1.331527 5.780848 0
M  V30 30 C -4.886913 -2.120959 4.684053 0
M  V30 31 C -3.821182 -3.030614 4.639799 0
M  V30 32 C -3.612129 -3.896679 3.479164 0
M  V30 33 F -2.402120 -3.921484 2.899787 0
M  V30 34 F -4.028304 -5.211821 3.746119 0
M  V30 35 F -4.515739 -3.474618 2.483551 0
M  V30 36 C 1.251540 -2.290703 5.474494 0
M  V30 37 C 1.892808 -2.701004 6.657584 0
M  V30 38 N 2.403550 -3.034314 7.641426 0
M  V30 39 S 2.159329 -1.211722 4.332965 0
M  V30 40 H 3.548687 -3.916928 -0.389761 0
M  V30 41 H 1.855084 -4.374422 -0.741964 0
M  V30 42 H 3.155888 -4.772641 -1.895571 0
M  V30 43 H 1.917401 -2.566605 0.716771 0
M  V30 44 H 1.505745 1.599946 -1.815598 0
M  V30 45 H 2.894302 -0.013185 -5.185728 0
M  V30 46 H 3.114485 1.253932 -3.975616 0
M  V30 47 H 0.492146 0.147463 -5.168503 0
M  V30 48 H 0.392779 1.283330 -3.837082 0
M  V30 49 H 2.542195 3.550513 -6.030003 0
M  V30 50 H 2.302256 3.075074 -4.256397 0
M  V30 51 H 1.244068 5.055419 -4.384862 0
M  V30 52 H 0.539666 4.795026 -6.044498 0
M  V30 53 H -1.835181 3.403780 -5.856794 0
M  V30 54 H -1.403874 2.055107 -4.720877 0
M  V30 55 H -0.502790 1.378157 -6.697512 0
M  V30 56 H 0.145542 3.040041 -7.162401 0
M  V30 57 H 0.284721 1.625641 2.942162 0
M  V30 58 H -0.987380 -1.820536 3.013855 0
M  V30 59 H -2.003483 -4.845454 5.254051 0
M  V30 60 H -1.805418 -4.292093 6.911130 0
M  V30 61 H -2.822425 -2.378515 7.862538 0
M  V30 62 H -4.792632 -0.805196 7.718186 0
M  V30 63 H -6.085477 -0.665537 5.669559 0
M  V30 64 H -5.489380 -2.033753 3.783403 0
M  V30 END ATOM
M  V30 BEGIN BOND
M  V30 1 1 1 2
M  V30 2 1 2 3
M  V30 3 2 3 4
M  V30 4 1 4 5
M  V30 5 2 5 6
M  V30 6 1 6 7
M  V30 7 2 7 8
M  V30 8 1 8 9
M  V30 9 1 9 10
M  V30 10 1 10 11
M  V30 11 1 11 12
M  V30 12 1 12 13
M  V30 13 1 13 14
M  V30 14 1 14 15
M  V30 15 1 15 16
M  V30 16 1 16 17
M  V30 17 1 6 18
M  V30 18 2 18 19
M  V30 19 1 19 20
M  V30 20 1 20 21
M  V30 21 2 21 22
M  V30 22 1 22 23
M  V30 23 1 23 24
M  V30 24 1 24 25
M  V30 25 1 25 26
M  V30 26 2 26 27
M  V30 27 1 27 28
M  V30 28 2 28 29
M  V30 29 1 29 30
M  V30 30 2 30 31
M  V30 31 1 31 32
M  V30 32 1 32 33
M  V30 33 1 32 34
M  V30 34 1 32 35
M  V30 35 2 23 36
M  V30 36 1 36 37
M  V30 37 3 37 38
M  V30 38 1 36 39
M  V30 39 1 8 3
M  V30 40 1 17 12
M  V30 41 1 39 21
M  V30 42 1 20 5
M  V30 43 1 31 26
M  V30 44 1 1 40
M  V30 45 1 1 41
M  V30 46 1 1 42
M  V30 47 1 4 43
M  V30 48 1 7 44
M  V30 49 1 10 45
M  V30 50 1 10 46
M  V30 51 1 11 47
M  V30 52 1 11 48
M  V30 53 1 13 49
M  V30 54 1 13 50
M  V30 55 1 14 51
M  V30 56 1 14 52
M  V30 57 1 16 53
M  V30 58 1 16 54
M  V30 59 1 17 55
M  V30 60 1 17 56
M  V30 61 1 19 57
M  V30 62 1 22 58
M  V30 63 1 25 59
M  V30 64 1 25 60
M  V30 65 1 27 61
M  V30 66 1 28 62
M  V30 67 1 29 63
M  V30 68 1 30 64
M  V30 END BOND
M  V30 END CTAB
M  END
>  <Dataset>  (348) 
ChEMBL_Kinases

>  <Ligand_Instance>  (348) 
nan

>  <PDB_ID>  (348) 
nan

>  <Standardized_SMILES>  (348) 
COc1cc2c(cc1OCCN1CCOCC1)ncn2-c1cc(OCc2ccccc2C(F)(F)F)c(C#N)s1

>  <Name>  (348) 
nan

>  <Pocket>  (348) 
nan

>  <ATP_Site>  (348) 
nan

>  <Peripheral>  (348) 
nan

>  <Num_H_Atoms_ProtBoundConf>  (348) 
nan

>  <Num_Resolved_Atoms>  (348) 
nan

>  <Num_Not_Resolved_Atoms>  (348) 
nan

$$$$
CHEMBL222051
     RDKit          3D

  0  0  0  0  0  0  0  0  0  0999 V3000
M  V30 BEGIN CTAB
M  V30 COUNTS 64 67 0 0 0
M  V30 BEGIN ATOM
M  V30 1 C 1.055764 -0.291795 5.439425 0
M  V30 2 S 1.742399 -1.504138 4.306568 0
M  V30 3 C 2.025309 -0.874488 2.661470 0
M  V30 4 C 0.800043 -0.521516 1.878094 0
M  V30 5 N -0.085487 -1.623756 1.651613 0
M  V30 6 C -1.142571 -2.144518 2.298591 0
M  V30 7 S -1.786873 -1.444410 3.810160 0
M  V30 8 C -3.067101 -0.192817 3.488188 0
M  V30 9 C -2.560272 1.005268 2.814897 0
M  V30 10 C -2.539291 1.089372 1.418823 0
M  V30 11 C -2.069366 2.201872 0.716310 0
M  V30 12 C -1.597427 3.283371 1.432842 0
M  V30 13 S -1.047764 4.592040 0.404377 0 CHG=1 VAL=3
M  V30 14 C 0.683147 4.298331 0.080562 0
M  V30 15 O -1.166038 6.028503 1.295488 0 CHG=-1 VAL=1
M  V30 16 C -1.601076 3.239761 2.821768 0
M  V30 17 C -2.073288 2.123421 3.462040 0
M  V30 18 N -1.616360 -3.230080 1.636730 0
M  V30 19 C -0.859604 -3.434082 0.528602 0
M  V30 20 C -1.160514 -4.544985 -0.362430 0
M  V30 21 C -2.426025 -4.417959 -0.948555 0
M  V30 22 C -2.918632 -5.356800 -1.826634 0
M  V30 23 C -2.138168 -6.464320 -2.141918 0
M  V30 24 F -2.462048 -7.475568 -2.978668 0
M  V30 25 C -0.892481 -6.589334 -1.564880 0
M  V30 26 C -0.421386 -5.634753 -0.687801 0
M  V30 27 C 0.080839 -2.427370 0.559478 0
M  V30 28 C 1.085967 -2.327911 -0.495132 0
M  V30 29 C 2.154626 -3.143577 -0.806613 0
M  V30 30 C 2.952704 -2.810996 -1.879358 0
M  V30 31 N 2.718121 -1.722965 -2.621721 0
M  V30 32 C 1.687259 -0.898237 -2.355072 0
M  V30 33 N 1.517171 0.235480 -3.200796 0
M  V30 34 C 1.960929 1.589044 -3.234086 0
M  V30 35 C 1.491526 2.413360 -4.370827 0
M  V30 36 O 2.708430 1.987879 -2.312692 0
M  V30 37 C 0.864011 -1.196033 -1.289082 0
M  V30 38 H 1.867965 0.023424 6.156551 0
M  V30 39 H 0.279979 -0.754859 6.052058 0
M  V30 40 H 0.741866 0.648282 4.941911 0
M  V30 41 H 2.526332 -1.707463 2.084572 0
M  V30 42 H 2.763703 -0.064536 2.694873 0
M  V30 43 H 0.203732 0.293651 2.361673 0
M  V30 44 H 1.145376 -0.088444 0.917982 0
M  V30 45 H -3.659861 0.001643 4.381933 0
M  V30 46 H -3.781005 -0.684611 2.765078 0
M  V30 47 H -2.915074 0.227540 0.874380 0
M  V30 48 H -2.114213 2.124267 -0.373258 0
M  V30 49 H 1.178914 4.039781 1.036862 0
M  V30 50 H 1.182244 5.169438 -0.359685 0
M  V30 51 H 0.775564 3.383930 -0.561918 0
M  V30 52 H -1.218087 4.120599 3.274135 0
M  V30 53 H -2.056057 2.135921 4.535483 0
M  V30 54 H -3.138333 -3.605147 -0.790875 0
M  V30 55 H -3.876317 -5.316720 -2.307095 0
M  V30 56 H -0.182334 -7.402902 -1.724155 0
M  V30 57 H 0.538004 -5.669870 -0.201967 0
M  V30 58 H 2.224747 -3.977246 -0.128899 0
M  V30 59 H 3.759980 -3.490724 -2.057842 0
M  V30 60 H 0.892142 -0.202174 -3.916601 0
M  V30 61 H 1.312058 1.774400 -5.254185 0
M  V30 62 H 2.281185 3.156950 -4.582049 0
M  V30 63 H 0.519420 2.912729 -4.135020 0
M  V30 64 H 0.062063 -0.448534 -1.179987 0
M  V30 END ATOM
M  V30 BEGIN BOND
M  V30 1 1 1 2
M  V30 2 1 2 3
M  V30 3 1 3 4
M  V30 4 1 4 5
M  V30 5 1 5 6
M  V30 6 1 6 7
M  V30 7 1 7 8
M  V30 8 1 8 9
M  V30 9 2 9 10
M  V30 10 1 10 11
M  V30 11 2 11 12
M  V30 12 1 12 13
M  V30 13 1 13 14
M  V30 14 1 13 15
M  V30 15 1 12 16
M  V30 16 2 16 17
M  V30 17 2 6 18
M  V30 18 1 18 19
M  V30 19 1 19 20
M  V30 20 2 20 21
M  V30 21 1 21 22
M  V30 22 2 22 23
M  V30 23 1 23 24
M  V30 24 1 23 25
M  V30 25 2 25 26
M  V30 26 2 19 27
M  V30 27 1 27 28
M  V30 28 2 28 29
M  V30 29 1 29 30
M  V30 30 2 30 31
M  V30 31 1 31 32
M  V30 32 1 32 33
M  V30 33 1 33 34
M  V30 34 1 34 35
M  V30 35 2 34 36
M  V30 36 2 32 37
M  V30 37 1 27 5
M  V30 38 1 37 28
M  V30 39 1 17 9
M  V30 40 1 26 20
M  V30 41 1 1 38
M  V30 42 1 1 39
M  V30 43 1 1 40
M  V30 44 1 3 41
M  V30 45 1 3 42
M  V30 46 1 4 43
M  V30 47 1 4 44
M  V30 48 1 8 45
M  V30 49 1 8 46
M  V30 50 1 10 47
M  V30 51 1 11 48
M  V30 52 1 14 49
M  V30 53 1 14 50
M  V30 54 1 14 51
M  V30 55 1 16 52
M  V30 56 1 17 53
M  V30 57 1 21 54
M  V30 58 1 22 55
M  V30 59 1 25 56
M  V30 60 1 26 57
M  V30 61 1 29 58
M  V30 62 1 30 59
M  V30 63 1 33 60
M  V30 64 1 35 61
M  V30 65 1 35 62
M  V30 66 1 35 63
M  V30 67 1 37 64
M  V30 END BOND
M  V30 END CTAB
M  END
>  <Dataset>  (349) 
ChEMBL_Kinases

>  <Ligand_Instance>  (349) 
nan

>  <PDB_ID>  (349) 
nan

>  <Standardized_SMILES>  (349) 
CSCCn1c(SCc2ccc([S+](C)[O-])cc2)nc(-c2ccc(F)cc2)c1-c1ccnc(NC(C)=O)c1

>  <Name>  (349) 
nan

>  <Pocket>  (349) 
nan

>  <ATP_Site>  (349) 
nan

>  <Peripheral>  (349) 
nan

>  <Num_H_Atoms_ProtBoundConf>  (349) 
nan

>  <Num_Resolved_Atoms>  (349) 
nan

>  <Num_Not_Resolved_Atoms>  (349) 
nan

$$$$
CHEMBL2208008
     RDKit          3D

  0  0  0  0  0  0  0  0  0  0999 V3000
M  V30 BEGIN CTAB
M  V30 COUNTS 46 49 0 0 0
M  V30 BEGIN ATOM
M  V30 1 C 1.986821 -3.619358 5.723405 0
M  V30 2 C 2.326487 -2.174878 5.584359 0
M  V30 3 N 3.252140 -1.917805 4.492010 0
M  V30 4 C 2.829169 -2.292302 3.161131 0
M  V30 5 O 1.689492 -2.780160 3.284884 0
M  V30 6 C 3.859654 -1.976152 2.159801 0
M  V30 7 C 3.477781 -2.324644 0.743753 0
M  V30 8 C 2.261523 -1.574756 0.343407 0
M  V30 9 N 2.368210 -0.349430 -0.228822 0
M  V30 10 C 1.151013 0.126349 -0.507395 0
M  V30 11 C 0.804469 1.462987 -1.152426 0
M  V30 12 N -0.210651 1.975980 -1.439172 0
M  V30 13 C -0.329705 3.174367 -2.009194 0
M  V30 14 C -1.703112 3.661803 -2.299627 0
M  V30 15 C 0.959421 3.856737 -2.273592 0
M  V30 16 S 2.171609 2.560817 -1.609165 0
M  V30 17 C 0.233478 -0.794233 -0.115105 0
M  V30 18 C -1.211512 -0.677957 -0.234796 0
M  V30 19 C -2.143243 -0.676248 0.766701 0
M  V30 20 C -3.498363 -0.562379 0.574452 0
M  V30 21 C -4.018043 -0.436188 -0.720320 0
M  V30 22 N -5.314691 -0.325715 -0.927979 0
M  V30 23 C -5.718523 -0.212922 -2.153811 0
M  V30 24 S -4.102179 -0.265572 -3.153974 0
M  V30 25 C -3.113967 -0.435209 -1.730434 0
M  V30 26 C -1.754358 -0.550789 -1.517972 0
M  V30 27 N 0.941561 -1.816940 0.398120 0
M  V30 28 H 2.677948 -4.183685 5.047388 0
M  V30 29 H 2.053324 -4.005581 6.769299 0
M  V30 30 H 0.961445 -3.795422 5.340790 0
M  V30 31 H 2.728454 -1.825738 6.545012 0
M  V30 32 H 1.391684 -1.600813 5.423711 0
M  V30 33 H 4.175688 -1.472872 4.744287 0
M  V30 34 H 4.854046 -2.397472 2.428070 0
M  V30 35 H 4.005805 -0.869575 2.199943 0
M  V30 36 H 4.329300 -2.095373 0.067208 0
M  V30 37 H 3.294081 -3.417297 0.619500 0
M  V30 38 H -2.287215 2.909840 -2.899620 0
M  V30 39 H -2.249877 3.791677 -1.332018 0
M  V30 40 H -1.697985 4.627484 -2.820844 0
M  V30 41 H 0.754519 4.947351 -2.796522 0
M  V30 42 H -1.686931 -0.777793 1.765739 0
M  V30 43 H -4.054732 -0.583684 1.502007 0
M  V30 44 H -6.929816 -0.116790 -2.243818 0
M  V30 45 H -1.200313 -0.530519 -2.427406 0
M  V30 46 H 0.574391 -2.705610 0.796935 0
M  V30 END ATOM
M  V30 BEGIN BOND
M  V30 1 1 1 2
M  V30 2 1 2 3
M  V30 3 1 3 4
M  V30 4 2 4 5
M  V30 5 1 4 6
M  V30 6 1 6 7
M  V30 7 1 7 8
M  V30 8 2 8 9
M  V30 9 1 9 10
M  V30 10 1 10 11
M  V30 11 2 11 12
M  V30 12 1 12 13
M  V30 13 1 13 14
M  V30 14 2 13 15
M  V30 15 1 15 16
M  V30 16 2 10 17
M  V30 17 1 17 18
M  V30 18 2 18 19
M  V30 19 1 19 20
M  V30 20 2 20 21
M  V30 21 1 21 22
M  V30 22 2 22 23
M  V30 23 1 23 24
M  V30 24 1 24 25
M  V30 25 2 25 26
M  V30 26 1 17 27
M  V30 27 1 27 8
M  V30 28 1 16 11
M  V30 29 1 26 18
M  V30 30 1 25 21
M  V30 31 1 1 28
M  V30 32 1 1 29
M  V30 33 1 1 30
M  V30 34 1 2 31
M  V30 35 1 2 32
M  V30 36 1 3 33
M  V30 37 1 6 34
M  V30 38 1 6 35
M  V30 39 1 7 36
M  V30 40 1 7 37
M  V30 41 1 14 38
M  V30 42 1 14 39
M  V30 43 1 14 40
M  V30 44 1 15 41
M  V30 45 1 19 42
M  V30 46 1 20 43
M  V30 47 1 23 44
M  V30 48 1 26 45
M  V30 49 1 27 46
M  V30 END BOND
M  V30 END CTAB
M  END
>  <Dataset>  (350) 
ChEMBL_Kinases

>  <Ligand_Instance>  (350) 
nan

>  <PDB_ID>  (350) 
nan

>  <Standardized_SMILES>  (350) 
CCNC(=O)CCc1nc(-c2nc(C)cs2)c(-c2ccc3ncsc3c2)[nH]1

>  <Name>  (350) 
nan

>  <Pocket>  (350) 
nan

>  <ATP_Site>  (350) 
nan

>  <Peripheral>  (350) 
nan

>  <Num_H_Atoms_ProtBoundConf>  (350) 
nan

>  <Num_Resolved_Atoms>  (350) 
nan

>  <Num_Not_Resolved_Atoms>  (350) 
nan

$$$$
CHEMBL2208007
     RDKit          3D

  0  0  0  0  0  0  0  0  0  0999 V3000
M  V30 BEGIN CTAB
M  V30 COUNTS 46 49 0 0 0
M  V30 BEGIN ATOM
M  V30 1 C 3.955047 -4.282186 4.839516 0
M  V30 2 C 3.280802 -4.452602 3.493043 0
M  V30 3 C 4.315525 -4.216279 2.412725 0
M  V30 4 C 3.708203 -4.371020 1.031247 0
M  V30 5 N 2.625330 -3.439961 0.788225 0
M  V30 6 C 2.841750 -2.037677 0.842019 0
M  V30 7 O 3.964516 -1.533962 1.098859 0
M  V30 8 C 1.733738 -1.118726 0.593302 0
M  V30 9 N 1.865870 0.243792 0.632273 0
M  V30 10 C 0.698453 0.811201 0.367643 0
M  V30 11 C 0.393352 2.248663 0.308218 0
M  V30 12 N -0.910617 2.840630 0.014674 0
M  V30 13 C -0.758584 4.163459 0.059044 0
M  V30 14 C -2.128090 4.720958 -0.244507 0
M  V30 15 C 0.541239 5.035867 0.362336 0
M  V30 16 S 1.646566 3.509404 0.603690 0
M  V30 17 C -0.221133 -0.157163 0.150043 0
M  V30 18 C -1.629635 0.000482 -0.175451 0
M  V30 19 C -2.700344 -0.417872 0.582192 0
M  V30 20 C -4.016315 -0.270682 0.276139 0
M  V30 21 C -4.380309 0.355058 -0.903053 0
M  V30 22 N -5.552187 0.629734 -1.444010 0
M  V30 23 C -5.839670 1.144911 -2.414390 0
M  V30 24 S -4.098954 1.546269 -3.124795 0
M  V30 25 C -3.301875 0.803345 -1.716569 0
M  V30 26 C -1.952328 0.620018 -1.342104 0
M  V30 27 N 0.440202 -1.334298 0.294584 0
M  V30 28 H 4.497854 -5.188459 5.153976 0
M  V30 29 H 4.596499 -3.382441 4.739134 0
M  V30 30 H 3.176527 -4.081022 5.600925 0
M  V30 31 H 2.499511 -3.673858 3.452089 0
M  V30 32 H 2.896001 -5.463564 3.346704 0
M  V30 33 H 5.130497 -4.951447 2.505769 0
M  V30 34 H 4.683604 -3.171596 2.599049 0
M  V30 35 H 3.314390 -5.412915 1.002221 0
M  V30 36 H 4.500341 -4.283477 0.277084 0
M  V30 37 H 1.639017 -3.764204 0.563057 0
M  V30 38 H -2.359480 4.489041 -1.282854 0
M  V30 39 H -2.882718 4.414139 0.501373 0
M  V30 40 H -2.121097 5.840180 -0.189233 0
M  V30 41 H 0.220438 6.135880 0.296946 0
M  V30 42 H -2.450112 -0.921641 1.530372 0
M  V30 43 H -4.768765 -0.657662 0.982870 0
M  V30 44 H -6.964369 1.285947 -2.704018 0
M  V30 45 H -1.292632 1.017503 -2.071486 0
M  V30 46 H 0.052238 -2.318233 0.199027 0
M  V30 END ATOM
M  V30 BEGIN BOND
M  V30 1 1 1 2
M  V30 2 1 2 3
M  V30 3 1 3 4
M  V30 4 1 4 5
M  V30 5 1 5 6
M  V30 6 2 6 7
M  V30 7 1 6 8
M  V30 8 2 8 9
M  V30 9 1 9 10
M  V30 10 1 10 11
M  V30 11 2 11 12
M  V30 12 1 12 13
M  V30 13 1 13 14
M  V30 14 2 13 15
M  V30 15 1 15 16
M  V30 16 2 10 17
M  V30 17 1 17 18
M  V30 18 2 18 19
M  V30 19 1 19 20
M  V30 20 2 20 21
M  V30 21 1 21 22
M  V30 22 2 22 23
M  V30 23 1 23 24
M  V30 24 1 24 25
M  V30 25 2 25 26
M  V30 26 1 17 27
M  V30 27 1 27 8
M  V30 28 1 16 11
M  V30 29 1 26 18
M  V30 30 1 25 21
M  V30 31 1 1 28
M  V30 32 1 1 29
M  V30 33 1 1 30
M  V30 34 1 2 31
M  V30 35 1 2 32
M  V30 36 1 3 33
M  V30 37 1 3 34
M  V30 38 1 4 35
M  V30 39 1 4 36
M  V30 40 1 5 37
M  V30 41 1 14 38
M  V30 42 1 14 39
M  V30 43 1 14 40
M  V30 44 1 15 41
M  V30 45 1 19 42
M  V30 46 1 20 43
M  V30 47 1 23 44
M  V30 48 1 26 45
M  V30 49 1 27 46
M  V30 END BOND
M  V30 END CTAB
M  END
>  <Dataset>  (351) 
ChEMBL_Kinases

>  <Ligand_Instance>  (351) 
nan

>  <PDB_ID>  (351) 
nan

>  <Standardized_SMILES>  (351) 
CCCCNC(=O)c1nc(-c2nc(C)cs2)c(-c2ccc3ncsc3c2)[nH]1

>  <Name>  (351) 
nan

>  <Pocket>  (351) 
nan

>  <ATP_Site>  (351) 
nan

>  <Peripheral>  (351) 
nan

>  <Num_H_Atoms_ProtBoundConf>  (351) 
nan

>  <Num_Resolved_Atoms>  (351) 
nan

>  <Num_Not_Resolved_Atoms>  (351) 
nan

$$$$
CHEMBL2208006
     RDKit          3D

  0  0  0  0  0  0  0  0  0  0999 V3000
M  V30 BEGIN CTAB
M  V30 COUNTS 47 50 0 0 0
M  V30 BEGIN ATOM
M  V30 1 C -1.126918 -4.271719 4.675306 0
M  V30 2 C -0.236740 -3.130864 5.074471 0
M  V30 3 C -0.620188 -1.880121 4.298361 0
M  V30 4 C 0.273292 -0.777981 4.728124 0
M  V30 5 O 0.999596 -1.329873 5.547243 0
M  V30 6 C 0.719325 0.616885 4.670967 0
M  V30 7 C -0.051917 1.475090 3.693606 0
M  V30 8 C 0.058830 1.036391 2.298734 0
M  V30 9 N 0.996244 1.489727 1.449328 0
M  V30 10 C 0.852294 0.897516 0.269606 0
M  V30 11 C 1.794392 1.315633 -0.808350 0
M  V30 12 N 2.486641 1.617896 -1.608642 0
M  V30 13 C 3.166937 2.687522 -1.919028 0
M  V30 14 C 3.799422 4.056274 -1.982078 0
M  V30 15 C 3.433869 1.695111 -2.915904 0
M  V30 16 S 2.367586 0.292410 -2.268967 0
M  V30 17 C -0.189250 0.041040 0.325143 0
M  V30 18 C -0.737906 -0.771715 -0.734163 0
M  V30 19 C -2.073179 -0.429140 -0.985085 0
M  V30 20 C -2.850703 -1.004943 -1.930324 0
M  V30 21 C -2.382632 -2.035372 -2.782085 0
M  V30 22 N -2.829551 -2.772044 -3.754348 0
M  V30 23 C -2.353537 -3.601031 -4.402155 0
M  V30 24 S -0.588599 -3.611080 -3.603984 0
M  V30 25 C -1.093219 -2.319261 -2.488740 0
M  V30 26 C -0.232720 -1.762329 -1.523262 0
M  V30 27 N -0.657883 0.154671 1.604008 0
M  V30 28 H -1.639233 -4.603834 5.603690 0
M  V30 29 H -0.547281 -5.136397 4.287454 0
M  V30 30 H -1.825458 -3.958957 3.890156 0
M  V30 31 H 0.820226 -3.428677 4.841592 0
M  V30 32 H -0.255368 -2.896123 6.159209 0
M  V30 33 H -0.390368 -2.091972 3.241338 0
M  V30 34 H -1.687149 -1.638743 4.420035 0
M  V30 35 H 1.776852 0.677066 4.361779 0
M  V30 36 H 0.617925 1.114470 5.659810 0
M  V30 37 H 0.395537 2.492152 3.795455 0
M  V30 38 H -1.105369 1.604852 4.017588 0
M  V30 39 H 3.029326 4.843013 -1.763280 0
M  V30 40 H 4.199000 4.246209 -2.997928 0
M  V30 41 H 4.600338 4.197440 -1.260895 0
M  V30 42 H 4.142558 1.760998 -3.880733 0
M  V30 43 H -2.613232 0.353948 -0.432355 0
M  V30 44 H -3.900254 -0.723623 -2.119535 0
M  V30 45 H -3.238014 -3.985063 -5.208388 0
M  V30 46 H 0.756807 -2.044877 -1.350712 0
M  V30 47 H -1.470243 -0.404845 1.929532 0
M  V30 END ATOM
M  V30 BEGIN BOND
M  V30 1 1 1 2
M  V30 2 1 2 3
M  V30 3 1 3 4
M  V30 4 2 4 5
M  V30 5 1 4 6
M  V30 6 1 6 7
M  V30 7 1 7 8
M  V30 8 2 8 9
M  V30 9 1 9 10
M  V30 10 1 10 11
M  V30 11 2 11 12
M  V30 12 1 12 13
M  V30 13 1 13 14
M  V30 14 2 13 15
M  V30 15 1 15 16
M  V30 16 2 10 17
M  V30 17 1 17 18
M  V30 18 2 18 19
M  V30 19 1 19 20
M  V30 20 2 20 21
M  V30 21 1 21 22
M  V30 22 2 22 23
M  V30 23 1 23 24
M  V30 24 1 24 25
M  V30 25 2 25 26
M  V30 26 1 17 27
M  V30 27 1 27 8
M  V30 28 1 16 11
M  V30 29 1 26 18
M  V30 30 1 25 21
M  V30 31 1 1 28
M  V30 32 1 1 29
M  V30 33 1 1 30
M  V30 34 1 2 31
M  V30 35 1 2 32
M  V30 36 1 3 33
M  V30 37 1 3 34
M  V30 38 1 6 35
M  V30 39 1 6 36
M  V30 40 1 7 37
M  V30 41 1 7 38
M  V30 42 1 14 39
M  V30 43 1 14 40
M  V30 44 1 14 41
M  V30 45 1 15 42
M  V30 46 1 19 43
M  V30 47 1 20 44
M  V30 48 1 23 45
M  V30 49 1 26 46
M  V30 50 1 27 47
M  V30 END BOND
M  V30 END CTAB
M  END
>  <Dataset>  (352) 
ChEMBL_Kinases

>  <Ligand_Instance>  (352) 
nan

>  <PDB_ID>  (352) 
nan

>  <Standardized_SMILES>  (352) 
CCCC(=O)CCc1nc(-c2nc(C)cs2)c(-c2ccc3ncsc3c2)[nH]1

>  <Name>  (352) 
nan

>  <Pocket>  (352) 
nan

>  <ATP_Site>  (352) 
nan

>  <Peripheral>  (352) 
nan

>  <Num_H_Atoms_ProtBoundConf>  (352) 
nan

>  <Num_Resolved_Atoms>  (352) 
nan

>  <Num_Not_Resolved_Atoms>  (352) 
nan

$$$$
CHEMBL2208005
     RDKit          3D

  0  0  0  0  0  0  0  0  0  0999 V3000
M  V30 BEGIN CTAB
M  V30 COUNTS 47 50 0 0 0
M  V30 BEGIN ATOM
M  V30 1 C 0.439914 -4.897069 2.931668 0
M  V30 2 C 1.702617 -4.861141 2.121841 0
M  V30 3 C 2.794776 -4.148924 2.829786 0
M  V30 4 C 2.467284 -2.731675 3.126025 0
M  V30 5 N 1.331832 -2.632711 3.984471 0
M  V30 6 C 0.961016 -1.245845 4.253164 0
M  V30 7 C 0.620382 -0.518407 3.026300 0
M  V30 8 N 1.508253 0.174358 2.254674 0
M  V30 9 C 0.846918 0.711584 1.216167 0
M  V30 10 C 1.311984 1.563511 0.061941 0
M  V30 11 N 0.926468 2.091026 -0.871196 0
M  V30 12 C 1.620308 2.802267 -1.736800 0
M  V30 13 C 1.102198 3.497037 -2.969798 0
M  V30 14 C 2.997883 2.929985 -1.487067 0
M  V30 15 S 3.171215 1.932176 0.098193 0
M  V30 16 C -0.486595 0.382311 1.285780 0
M  V30 17 C -1.568984 0.740094 0.385507 0
M  V30 18 C -2.008314 2.025266 0.128790 0
M  V30 19 C -3.029522 2.369758 -0.719222 0
M  V30 20 C -3.709140 1.371222 -1.400294 0
M  V30 21 N -4.709095 1.486570 -2.251760 0
M  V30 22 C -5.287342 0.672708 -2.827826 0
M  V30 23 S -4.369569 -0.890490 -2.184895 0
M  V30 24 C -3.277169 0.076782 -1.150786 0
M  V30 25 C -2.246030 -0.251548 -0.292685 0
M  V30 26 N -0.564977 -0.364592 2.404226 0
M  V30 27 H -0.217806 -5.759532 2.610421 0
M  V30 28 H 0.610959 -5.060150 4.004578 0
M  V30 29 H -0.128032 -3.957231 2.724945 0
M  V30 30 H 1.544605 -4.364750 1.133383 0
M  V30 31 H 1.964290 -5.923544 1.871415 0
M  V30 32 H 3.793408 -4.283751 2.355102 0
M  V30 33 H 2.917020 -4.659974 3.834614 0
M  V30 34 H 2.278715 -2.186213 2.178061 0
M  V30 35 H 3.370396 -2.277187 3.626771 0
M  V30 36 H 1.595857 -3.114441 4.883353 0
M  V30 37 H 1.799707 -0.791248 4.809629 0
M  V30 38 H 0.073738 -1.287613 4.932640 0
M  V30 39 H 1.122611 4.600042 -2.852444 0
M  V30 40 H 1.757028 3.273248 -3.841476 0
M  V30 41 H 0.100639 3.112258 -3.244929 0
M  V30 42 H 3.775540 3.447442 -2.028543 0
M  V30 43 H -1.455418 2.804229 0.679505 0
M  V30 44 H -3.236516 3.433460 -0.796912 0
M  V30 45 H -6.144702 0.860950 -3.549409 0
M  V30 46 H -2.038032 -1.293674 -0.212377 0
M  V30 47 H -1.440235 -0.800844 2.787065 0
M  V30 END ATOM
M  V30 BEGIN BOND
M  V30 1 1 1 2
M  V30 2 1 2 3
M  V30 3 1 3 4
M  V30 4 1 4 5
M  V30 5 1 5 6
M  V30 6 1 6 7
M  V30 7 2 7 8
M  V30 8 1 8 9
M  V30 9 1 9 10
M  V30 10 2 10 11
M  V30 11 1 11 12
M  V30 12 1 12 13
M  V30 13 2 12 14
M  V30 14 1 14 15
M  V30 15 2 9 16
M  V30 16 1 16 17
M  V30 17 2 17 18
M  V30 18 1 18 19
M  V30 19 2 19 20
M  V30 20 1 20 21
M  V30 21 2 21 22
M  V30 22 1 22 23
M  V30 23 1 23 24
M  V30 24 2 24 25
M  V30 25 1 16 26
M  V30 26 1 26 7
M  V30 27 1 15 10
M  V30 28 1 25 17
M  V30 29 1 24 20
M  V30 30 1 1 27
M  V30 31 1 1 28
M  V30 32 1 1 29
M  V30 33 1 2 30
M  V30 34 1 2 31
M  V30 35 1 3 32
M  V30 36 1 3 33
M  V30 37 1 4 34
M  V30 38 1 4 35
M  V30 39 1 5 36
M  V30 40 1 6 37
M  V30 41 1 6 38
M  V30 42 1 13 39
M  V30 43 1 13 40
M  V30 44 1 13 41
M  V30 45 1 14 42
M  V30 46 1 18 43
M  V30 47 1 19 44
M  V30 48 1 22 45
M  V30 49 1 25 46
M  V30 50 1 26 47
M  V30 END BOND
M  V30 END CTAB
M  END
>  <Dataset>  (353) 
ChEMBL_Kinases

>  <Ligand_Instance>  (353) 
nan

>  <PDB_ID>  (353) 
nan

>  <Standardized_SMILES>  (353) 
CCCCNCc1nc(-c2nc(C)cs2)c(-c2ccc3ncsc3c2)[nH]1

>  <Name>  (353) 
nan

>  <Pocket>  (353) 
nan

>  <ATP_Site>  (353) 
nan

>  <Peripheral>  (353) 
nan

>  <Num_H_Atoms_ProtBoundConf>  (353) 
nan

>  <Num_Resolved_Atoms>  (353) 
nan

>  <Num_Not_Resolved_Atoms>  (353) 
nan

$$$$
CHEMBL2208004
     RDKit          3D

  0  0  0  0  0  0  0  0  0  0999 V3000
M  V30 BEGIN CTAB
M  V30 COUNTS 49 52 0 0 0
M  V30 BEGIN ATOM
M  V30 1 C 4.875099 2.187234 4.897813 0
M  V30 2 C 4.518815 2.059429 3.417294 0
M  V30 3 C 4.161904 0.651835 3.057802 0
M  V30 4 C 3.803844 0.469617 1.625263 0
M  V30 5 O 3.777572 1.450772 0.820528 0
M  V30 6 N 3.485805 -0.849328 1.168576 0
M  V30 7 C 3.514557 -1.979230 2.082919 0
M  V30 8 C 3.128050 -1.076176 -0.220705 0
M  V30 9 C 1.662054 -0.942788 -0.400656 0
M  V30 10 N 0.940398 0.171402 -0.713203 0
M  V30 11 C -0.356008 -0.163935 -0.774026 0
M  V30 12 C -1.547201 0.717252 -1.085358 0
M  V30 13 N -2.679106 0.619530 -1.179082 0
M  V30 14 C -3.572622 1.533629 -1.469354 0
M  V30 15 C -5.033442 1.271601 -1.562826 0
M  V30 16 C -3.052602 2.811634 -1.695063 0
M  V30 17 S -1.194704 2.509099 -1.440232 0
M  V30 18 C -0.521660 -1.474007 -0.510166 0
M  V30 19 C -1.746534 -2.244467 -0.471252 0
M  V30 20 C -2.628766 -2.499726 -1.496757 0
M  V30 21 C -3.778121 -3.235871 -1.414944 0
M  V30 22 C -4.131595 -3.804883 -0.185595 0
M  V30 23 N -5.165778 -4.547145 0.167824 0
M  V30 24 C -5.434656 -5.002870 1.183368 0
M  V30 25 S -3.976214 -4.411047 2.282081 0
M  V30 26 C -3.228244 -3.539917 0.851692 0
M  V30 27 C -2.056399 -2.786817 0.759090 0
M  V30 28 N 0.738741 -1.936068 -0.282286 0
M  V30 29 H 5.878954 1.762029 5.025471 0
M  V30 30 H 4.176140 1.536126 5.465434 0
M  V30 31 H 4.829348 3.245144 5.223322 0
M  V30 32 H 3.694833 2.777160 3.232124 0
M  V30 33 H 5.419484 2.424558 2.869571 0
M  V30 34 H 4.975052 -0.009918 3.387487 0
M  V30 35 H 3.244400 0.385004 3.629464 0
M  V30 36 H 2.897869 -1.686413 2.981398 0
M  V30 37 H 3.096874 -2.862795 1.594436 0
M  V30 38 H 4.567421 -2.107759 2.404619 0
M  V30 39 H 3.492499 -2.054475 -0.586445 0
M  V30 40 H 3.612659 -0.245199 -0.800967 0
M  V30 41 H -5.637103 2.132994 -1.152718 0
M  V30 42 H -5.353085 1.188416 -2.613900 0
M  V30 43 H -5.372290 0.401896 -1.003328 0
M  V30 44 H -3.742762 3.749349 -1.969570 0
M  V30 45 H -2.342136 -2.047959 -2.462899 0
M  V30 46 H -4.385629 -3.360683 -2.300724 0
M  V30 47 H -6.437522 -5.645196 1.252733 0
M  V30 48 H -1.533234 -2.730368 1.701680 0
M  V30 49 H 1.007945 -2.918119 -0.044334 0
M  V30 END ATOM
M  V30 BEGIN BOND
M  V30 1 1 1 2
M  V30 2 1 2 3
M  V30 3 1 3 4
M  V30 4 2 4 5
M  V30 5 1 4 6
M  V30 6 1 6 7
M  V30 7 1 6 8
M  V30 8 1 8 9
M  V30 9 2 9 10
M  V30 10 1 10 11
M  V30 11 1 11 12
M  V30 12 2 12 13
M  V30 13 1 13 14
M  V30 14 1 14 15
M  V30 15 2 14 16
M  V30 16 1 16 17
M  V30 17 2 11 18
M  V30 18 1 18 19
M  V30 19 2 19 20
M  V30 20 1 20 21
M  V30 21 2 21 22
M  V30 22 1 22 23
M  V30 23 2 23 24
M  V30 24 1 24 25
M  V30 25 1 25 26
M  V30 26 2 26 27
M  V30 27 1 18 28
M  V30 28 1 28 9
M  V30 29 1 17 12
M  V30 30 1 27 19
M  V30 31 1 26 22
M  V30 32 1 1 29
M  V30 33 1 1 30
M  V30 34 1 1 31
M  V30 35 1 2 32
M  V30 36 1 2 33
M  V30 37 1 3 34
M  V30 38 1 3 35
M  V30 39 1 7 36
M  V30 40 1 7 37
M  V30 41 1 7 38
M  V30 42 1 8 39
M  V30 43 1 8 40
M  V30 44 1 15 41
M  V30 45 1 15 42
M  V30 46 1 15 43
M  V30 47 1 16 44
M  V30 48 1 20 45
M  V30 49 1 21 46
M  V30 50 1 24 47
M  V30 51 1 27 48
M  V30 52 1 28 49
M  V30 END BOND
M  V30 END CTAB
M  END
>  <Dataset>  (354) 
ChEMBL_Kinases

>  <Ligand_Instance>  (354) 
nan

>  <PDB_ID>  (354) 
nan

>  <Standardized_SMILES>  (354) 
CCCC(=O)N(C)Cc1nc(-c2nc(C)cs2)c(-c2ccc3ncsc3c2)[nH]1

>  <Name>  (354) 
nan

>  <Pocket>  (354) 
nan

>  <ATP_Site>  (354) 
nan

>  <Peripheral>  (354) 
nan

>  <Num_H_Atoms_ProtBoundConf>  (354) 
nan

>  <Num_Resolved_Atoms>  (354) 
nan

>  <Num_Not_Resolved_Atoms>  (354) 
nan

$$$$
CHEMBL2208003
     RDKit          3D

  0  0  0  0  0  0  0  0  0  0999 V3000
M  V30 BEGIN CTAB
M  V30 COUNTS 44 48 0 0 0
M  V30 BEGIN ATOM
M  V30 1 C 0.836462 -5.294077 2.451660 0
M  V30 2 C 1.787288 -4.210705 2.000754 0
M  V30 3 C 3.239962 -4.153801 2.174852 0
M  V30 4 S 3.539974 -2.516677 1.335715 0
M  V30 5 C 1.869350 -2.241101 0.951777 0
M  V30 6 C 1.435070 -1.014201 0.228491 0
M  V30 7 N 2.196224 -0.002829 -0.205912 0
M  V30 8 C 1.440158 0.931366 -0.819500 0
M  V30 9 C 2.028740 2.177936 -1.404674 0
M  V30 10 N 2.039926 3.237753 -0.381315 0
M  V30 11 C 3.195287 3.376030 0.481250 0
M  V30 12 C 2.849757 4.575859 1.313955 0
M  V30 13 C 1.337954 4.524952 1.344445 0
M  V30 14 C 1.035875 4.203992 -0.088025 0
M  V30 15 O 0.178329 4.589746 -0.930531 0
M  V30 16 N 0.176373 0.475144 -0.757538 0
M  V30 17 C 0.136146 -0.711822 -0.123545 0
M  V30 18 C -1.069179 -1.491642 0.121390 0
M  V30 19 C -1.334598 -2.760760 -0.366816 0
M  V30 20 C -2.468562 -3.479373 -0.130569 0
M  V30 21 C -3.472916 -2.951720 0.653304 0
M  V30 22 N -4.634710 -3.469038 1.003259 0
M  V30 23 C -5.475193 -3.035532 1.655173 0
M  V30 24 S -4.707879 -1.328386 2.098011 0
M  V30 25 C -3.216204 -1.673677 1.150464 0
M  V30 26 C -2.064343 -0.949683 0.907606 0
M  V30 27 N 1.150132 -3.237813 1.387084 0
M  V30 28 H 1.380573 -6.105544 2.931522 0
M  V30 29 H 0.117139 -4.886852 3.187162 0
M  V30 30 H 0.280018 -5.721438 1.609821 0
M  V30 31 H 3.638790 -5.073381 2.726222 0
M  V30 32 H 3.024607 2.008001 -1.808479 0
M  V30 33 H 1.297494 2.497469 -2.192535 0
M  V30 34 H 3.272730 2.504250 1.176764 0
M  V30 35 H 4.131548 3.518626 -0.096324 0
M  V30 36 H 3.288041 4.531720 2.332903 0
M  V30 37 H 3.162808 5.501434 0.793813 0
M  V30 38 H 0.894576 5.485457 1.647894 0
M  V30 39 H 1.022213 3.683140 2.011052 0
M  V30 40 H -0.620173 1.021941 -1.168293 0
M  V30 41 H -0.529945 -3.179320 -0.993072 0
M  V30 42 H -2.509520 -4.475126 -0.600718 0
M  V30 43 H -6.449519 -3.568107 1.900201 0
M  V30 44 H -2.032917 0.016969 1.368893 0
M  V30 END ATOM
M  V30 BEGIN BOND
M  V30 1 1 1 2
M  V30 2 2 2 3
M  V30 3 1 3 4
M  V30 4 1 4 5
M  V30 5 1 5 6
M  V30 6 1 6 7
M  V30 7 2 7 8
M  V30 8 1 8 9
M  V30 9 1 9 10
M  V30 10 1 10 11
M  V30 11 1 11 12
M  V30 12 1 12 13
M  V30 13 1 13 14
M  V30 14 2 14 15
M  V30 15 1 8 16
M  V30 16 1 16 17
M  V30 17 1 17 18
M  V30 18 2 18 19
M  V30 19 1 19 20
M  V30 20 2 20 21
M  V30 21 1 21 22
M  V30 22 2 22 23
M  V30 23 1 23 24
M  V30 24 1 24 25
M  V30 25 2 25 26
M  V30 26 2 5 27
M  V30 27 1 27 2
M  V30 28 2 17 6
M  V30 29 1 26 18
M  V30 30 1 14 10
M  V30 31 1 25 21
M  V30 32 1 1 28
M  V30 33 1 1 29
M  V30 34 1 1 30
M  V30 35 1 3 31
M  V30 36 1 9 32
M  V30 37 1 9 33
M  V30 38 1 11 34
M  V30 39 1 11 35
M  V30 40 1 12 36
M  V30 41 1 12 37
M  V30 42 1 13 38
M  V30 43 1 13 39
M  V30 44 1 16 40
M  V30 45 1 19 41
M  V30 46 1 20 42
M  V30 47 1 23 43
M  V30 48 1 26 44
M  V30 END BOND
M  V30 END CTAB
M  END
>  <Dataset>  (355) 
ChEMBL_Kinases

>  <Ligand_Instance>  (355) 
nan

>  <PDB_ID>  (355) 
nan

>  <Standardized_SMILES>  (355) 
Cc1csc(-c2nc(CN3CCCC3=O)[nH]c2-c2ccc3ncsc3c2)n1

>  <Name>  (355) 
nan

>  <Pocket>  (355) 
nan

>  <ATP_Site>  (355) 
nan

>  <Peripheral>  (355) 
nan

>  <Num_H_Atoms_ProtBoundConf>  (355) 
nan

>  <Num_Resolved_Atoms>  (355) 
nan

>  <Num_Not_Resolved_Atoms>  (355) 
nan

$$$$
CHEMBL2208002
     RDKit          3D

  0  0  0  0  0  0  0  0  0  0999 V3000
M  V30 BEGIN CTAB
M  V30 COUNTS 45 49 0 0 0
M  V30 BEGIN ATOM
M  V30 1 C -0.771969 -5.591155 2.916032 0
M  V30 2 C 0.381684 -4.713328 2.519948 0
M  V30 3 C 1.765952 -5.222992 2.737773 0
M  V30 4 S 2.740224 -3.786818 2.094394 0
M  V30 5 C 1.174442 -2.806234 1.668554 0
M  V30 6 C 1.393133 -1.511086 1.090769 0
M  V30 7 N 2.501763 -0.820326 0.778959 0
M  V30 8 C 2.185721 0.369576 0.247809 0
M  V30 9 C 3.125965 1.436445 -0.230294 0
M  V30 10 C 3.021345 1.648477 -1.703477 0
M  V30 11 C 2.683751 3.049603 -2.121835 0
M  V30 12 N 1.646042 3.557826 -1.282965 0
M  V30 13 C 2.027981 3.692217 0.084037 0
M  V30 14 C 2.956530 2.652053 0.611212 0
M  V30 15 N 0.822327 0.453876 0.213676 0
M  V30 16 C 0.339476 -0.713602 0.737065 0
M  V30 17 C -1.083626 -0.985714 0.863924 0
M  V30 18 C -1.821318 -1.982349 0.260795 0
M  V30 19 C -3.157905 -2.179734 0.426136 0
M  V30 20 C -3.903489 -1.337074 1.263871 0
M  V30 21 N -5.174362 -1.316204 1.584421 0
M  V30 22 C -5.773798 -0.625243 2.268533 0
M  V30 23 S -4.385536 0.540645 2.848448 0
M  V30 24 C -3.189159 -0.366344 1.852365 0
M  V30 25 C -1.804026 -0.147121 1.692340 0
M  V30 26 N 0.267511 -3.505500 1.984502 0
M  V30 27 H -0.717612 -6.569375 2.404687 0
M  V30 28 H -0.751432 -5.819848 4.017888 0
M  V30 29 H -1.728600 -5.119918 2.643803 0
M  V30 30 H 1.941367 -6.237760 3.187012 0
M  V30 31 H 4.147520 1.008275 -0.006377 0
M  V30 32 H 2.262452 0.971116 -2.190233 0
M  V30 33 H 3.985969 1.401480 -2.216339 0
M  V30 34 H 2.299979 3.051337 -3.156183 0
M  V30 35 H 3.571010 3.706873 -2.087440 0
M  V30 36 H 0.712039 3.192422 -1.478346 0
M  V30 37 H 1.080156 3.770843 0.687437 0
M  V30 38 H 2.477205 4.714124 0.183054 0
M  V30 39 H 2.657353 2.289535 1.638452 0
M  V30 40 H 3.968778 3.126006 0.764325 0
M  V30 41 H 0.241098 1.255084 -0.142987 0
M  V30 42 H -1.239312 -2.638204 -0.391704 0
M  V30 43 H -3.595229 -3.002558 -0.112765 0
M  V30 44 H -6.997684 -0.945152 2.310997 0
M  V30 45 H -1.454883 0.682823 2.257873 0
M  V30 END ATOM
M  V30 BEGIN BOND
M  V30 1 1 1 2
M  V30 2 2 2 3
M  V30 3 1 3 4
M  V30 4 1 4 5
M  V30 5 1 5 6
M  V30 6 1 6 7
M  V30 7 2 7 8
M  V30 8 1 8 9
M  V30 9 1 9 10
M  V30 10 1 10 11
M  V30 11 1 11 12
M  V30 12 1 12 13
M  V30 13 1 13 14
M  V30 14 1 8 15
M  V30 15 1 15 16
M  V30 16 1 16 17
M  V30 17 2 17 18
M  V30 18 1 18 19
M  V30 19 2 19 20
M  V30 20 1 20 21
M  V30 21 2 21 22
M  V30 22 1 22 23
M  V30 23 1 23 24
M  V30 24 2 24 25
M  V30 25 2 5 26
M  V30 26 1 26 2
M  V30 27 2 16 6
M  V30 28 1 25 17
M  V30 29 1 14 9
M  V30 30 1 24 20
M  V30 31 1 1 27
M  V30 32 1 1 28
M  V30 33 1 1 29
M  V30 34 1 3 30
M  V30 35 1 9 31
M  V30 36 1 10 32
M  V30 37 1 10 33
M  V30 38 1 11 34
M  V30 39 1 11 35
M  V30 40 1 12 36
M  V30 41 1 13 37
M  V30 42 1 13 38
M  V30 43 1 14 39
M  V30 44 1 14 40
M  V30 45 1 15 41
M  V30 46 1 18 42
M  V30 47 1 19 43
M  V30 48 1 22 44
M  V30 49 1 25 45
M  V30 END BOND
M  V30 END CTAB
M  END
>  <Dataset>  (356) 
ChEMBL_Kinases

>  <Ligand_Instance>  (356) 
nan

>  <PDB_ID>  (356) 
nan

>  <Standardized_SMILES>  (356) 
Cc1csc(-c2nc(C3CCNCC3)[nH]c2-c2ccc3ncsc3c2)n1

>  <Name>  (356) 
nan

>  <Pocket>  (356) 
nan

>  <ATP_Site>  (356) 
nan

>  <Peripheral>  (356) 
nan

>  <Num_H_Atoms_ProtBoundConf>  (356) 
nan

>  <Num_Resolved_Atoms>  (356) 
nan

>  <Num_Not_Resolved_Atoms>  (356) 
nan

$$$$
CHEMBL2208001
     RDKit          3D

  0  0  0  0  0  0  0  0  0  0999 V3000
M  V30 BEGIN CTAB
M  V30 COUNTS 44 48 0 0 0
M  V30 BEGIN ATOM
M  V30 1 C 0.873689 -5.156893 2.983473 0
M  V30 2 C 1.580706 -3.902508 2.535135 0
M  V30 3 C 2.987739 -3.800300 2.780747 0
M  V30 4 S 3.305819 -2.105158 2.044153 0
M  V30 5 C 1.486626 -1.890775 1.562398 0
M  V30 6 C 1.143969 -0.661938 0.909347 0
M  V30 7 N 1.874661 0.410323 0.554250 0
M  V30 8 C 1.068675 1.313740 -0.040163 0
M  V30 9 C 1.431818 2.645153 -0.594381 0
M  V30 10 C 2.436048 2.396387 -1.693383 0
M  V30 11 C 3.161779 3.659204 -2.093822 0
M  V30 12 O 3.572023 4.401864 -0.994549 0
M  V30 13 C 3.435546 3.746777 0.202056 0
M  V30 14 C 1.970800 3.506645 0.501503 0
M  V30 15 N -0.188616 0.799207 -0.058127 0
M  V30 16 C -0.140741 -0.432001 0.533790 0
M  V30 17 C -1.323735 -1.261570 0.679376 0
M  V30 18 C -1.565246 -2.500055 0.120959 0
M  V30 19 C -2.692807 -3.244416 0.285409 0
M  V30 20 C -3.735381 -2.772298 1.075906 0
M  V30 21 N -4.901474 -3.274295 1.393392 0
M  V30 22 C -5.751096 -2.874468 2.045976 0
M  V30 23 S -4.999166 -1.199885 2.584586 0
M  V30 24 C -3.517463 -1.554595 1.635009 0
M  V30 25 C -2.351743 -0.781716 1.466796 0
M  V30 26 N 0.898037 -2.943675 1.938178 0
M  V30 27 H 1.126713 -5.991908 2.303170 0
M  V30 28 H 1.264961 -5.459618 3.999235 0
M  V30 29 H -0.206224 -5.050850 3.030236 0
M  V30 30 H 3.604830 -4.511461 3.246611 0
M  V30 31 H 0.530350 3.161731 -1.025104 0
M  V30 32 H 3.132821 1.627261 -1.355134 0
M  V30 33 H 1.853339 2.060040 -2.574564 0
M  V30 34 H 2.441217 4.267331 -2.676348 0
M  V30 35 H 4.002558 3.372321 -2.753148 0
M  V30 36 H 3.863755 4.373574 0.993621 0
M  V30 37 H 3.948190 2.764516 0.233126 0
M  V30 38 H 1.413758 4.455389 0.655938 0
M  V30 39 H 1.965120 2.982211 1.500634 0
M  V30 40 H -1.012921 1.299621 -0.465950 0
M  V30 41 H -0.743261 -2.883470 -0.508468 0
M  V30 42 H -2.728406 -4.202430 -0.223857 0
M  V30 43 H -6.737348 -3.607765 2.144801 0
M  V30 44 H -2.382036 0.149935 1.994774 0
M  V30 END ATOM
M  V30 BEGIN BOND
M  V30 1 1 1 2
M  V30 2 2 2 3
M  V30 3 1 3 4
M  V30 4 1 4 5
M  V30 5 1 5 6
M  V30 6 1 6 7
M  V30 7 2 7 8
M  V30 8 1 8 9
M  V30 9 1 9 10
M  V30 10 1 10 11
M  V30 11 1 11 12
M  V30 12 1 12 13
M  V30 13 1 13 14
M  V30 14 1 8 15
M  V30 15 1 15 16
M  V30 16 1 16 17
M  V30 17 2 17 18
M  V30 18 1 18 19
M  V30 19 2 19 20
M  V30 20 1 20 21
M  V30 21 2 21 22
M  V30 22 1 22 23
M  V30 23 1 23 24
M  V30 24 2 24 25
M  V30 25 2 5 26
M  V30 26 1 26 2
M  V30 27 2 16 6
M  V30 28 1 25 17
M  V30 29 1 14 9
M  V30 30 1 24 20
M  V30 31 1 1 27
M  V30 32 1 1 28
M  V30 33 1 1 29
M  V30 34 1 3 30
M  V30 35 1 9 31
M  V30 36 1 10 32
M  V30 37 1 10 33
M  V30 38 1 11 34
M  V30 39 1 11 35
M  V30 40 1 13 36
M  V30 41 1 13 37
M  V30 42 1 14 38
M  V30 43 1 14 39
M  V30 44 1 15 40
M  V30 45 1 18 41
M  V30 46 1 19 42
M  V30 47 1 22 43
M  V30 48 1 25 44
M  V30 END BOND
M  V30 END CTAB
M  END
>  <Dataset>  (357) 
ChEMBL_Kinases

>  <Ligand_Instance>  (357) 
nan

>  <PDB_ID>  (357) 
nan

>  <Standardized_SMILES>  (357) 
Cc1csc(-c2nc(C3CCOCC3)[nH]c2-c2ccc3ncsc3c2)n1

>  <Name>  (357) 
nan

>  <Pocket>  (357) 
nan

>  <ATP_Site>  (357) 
nan

>  <Peripheral>  (357) 
nan

>  <Num_H_Atoms_ProtBoundConf>  (357) 
nan

>  <Num_Resolved_Atoms>  (357) 
nan

>  <Num_Not_Resolved_Atoms>  (357) 
nan

$$$$
CHEMBL2208000
     RDKit          3D

  0  0  0  0  0  0  0  0  0  0999 V3000
M  V30 BEGIN CTAB
M  V30 COUNTS 45 49 0 0 0
M  V30 BEGIN ATOM
M  V30 1 C -0.434209 -5.493381 2.504210 0
M  V30 2 C 0.608543 -4.433525 2.439800 0
M  V30 3 C 2.090228 -4.486591 2.923486 0
M  V30 4 S 2.652381 -2.793566 2.464438 0
M  V30 5 C 0.959818 -2.332134 1.761692 0
M  V30 6 C 0.875933 -0.989946 1.232226 0
M  V30 7 N 1.765498 0.010370 1.135010 0
M  V30 8 C 1.173234 1.071256 0.552491 0
M  V30 9 C 2.002562 2.279866 0.358119 0
M  V30 10 C 3.157005 2.056786 -0.590137 0
M  V30 11 C 3.759894 3.415974 -0.884549 0
M  V30 12 C 3.215191 4.469654 0.040281 0
M  V30 13 O 3.065501 5.635449 -0.335982 0
M  V30 14 C 2.797028 4.287925 1.462939 0
M  V30 15 C 2.591185 2.796181 1.648213 0
M  V30 16 N -0.103678 0.747120 0.275340 0
M  V30 17 C -0.301102 -0.521045 0.689002 0
M  V30 18 C -1.570753 -1.222978 0.555629 0
M  V30 19 C -2.370938 -1.703624 1.570594 0
M  V30 20 C -3.564942 -2.361781 1.378784 0
M  V30 21 C -4.039640 -2.581132 0.079315 0
M  V30 22 N -5.173388 -3.204065 -0.165939 0
M  V30 23 C -5.559772 -3.378344 -1.351808 0
M  V30 24 S -4.163078 -2.565860 -2.356111 0
M  V30 25 C -3.270643 -2.117572 -0.943431 0
M  V30 26 C -2.079642 -1.462466 -0.711369 0
M  V30 27 N 0.254209 -3.273321 1.893864 0
M  V30 28 H -0.019265 -6.461811 2.873104 0
M  V30 29 H -1.255145 -5.126937 3.122636 0
M  V30 30 H -0.837946 -5.716281 1.493311 0
M  V30 31 H 2.227265 -5.643303 3.400564 0
M  V30 32 H 1.374591 3.057790 -0.126587 0
M  V30 33 H 3.905853 1.392759 -0.124198 0
M  V30 34 H 2.836316 1.603486 -1.547110 0
M  V30 35 H 4.852154 3.446725 -0.771671 0
M  V30 36 H 3.511398 3.723478 -1.912390 0
M  V30 37 H 1.778131 4.737119 1.643126 0
M  V30 38 H 3.529064 4.730593 2.142522 0
M  V30 39 H 3.600937 2.339112 1.772768 0
M  V30 40 H 1.962640 2.562802 2.526430 0
M  V30 41 H -0.729605 1.442017 -0.180510 0
M  V30 42 H -1.973555 -1.517354 2.582897 0
M  V30 43 H -4.055173 -2.666422 2.293624 0
M  V30 44 H -6.612763 -3.961025 -1.463810 0
M  V30 45 H -1.602488 -1.165000 -1.630668 0
M  V30 END ATOM
M  V30 BEGIN BOND
M  V30 1 1 1 2
M  V30 2 2 2 3
M  V30 3 1 3 4
M  V30 4 1 4 5
M  V30 5 1 5 6
M  V30 6 1 6 7
M  V30 7 2 7 8
M  V30 8 1 8 9
M  V30 9 1 9 10
M  V30 10 1 10 11
M  V30 11 1 11 12
M  V30 12 2 12 13
M  V30 13 1 12 14
M  V30 14 1 14 15
M  V30 15 1 8 16
M  V30 16 1 16 17
M  V30 17 1 17 18
M  V30 18 2 18 19
M  V30 19 1 19 20
M  V30 20 2 20 21
M  V30 21 1 21 22
M  V30 22 2 22 23
M  V30 23 1 23 24
M  V30 24 1 24 25
M  V30 25 2 25 26
M  V30 26 2 5 27
M  V30 27 1 27 2
M  V30 28 2 17 6
M  V30 29 1 26 18
M  V30 30 1 15 9
M  V30 31 1 25 21
M  V30 32 1 1 28
M  V30 33 1 1 29
M  V30 34 1 1 30
M  V30 35 1 3 31
M  V30 36 1 9 32
M  V30 37 1 10 33
M  V30 38 1 10 34
M  V30 39 1 11 35
M  V30 40 1 11 36
M  V30 41 1 14 37
M  V30 42 1 14 38
M  V30 43 1 15 39
M  V30 44 1 15 40
M  V30 45 1 16 41
M  V30 46 1 19 42
M  V30 47 1 20 43
M  V30 48 1 23 44
M  V30 49 1 26 45
M  V30 END BOND
M  V30 END CTAB
M  END
>  <Dataset>  (358) 
ChEMBL_Kinases

>  <Ligand_Instance>  (358) 
nan

>  <PDB_ID>  (358) 
nan

>  <Standardized_SMILES>  (358) 
Cc1csc(-c2nc(C3CCC(=O)CC3)[nH]c2-c2ccc3ncsc3c2)n1

>  <Name>  (358) 
nan

>  <Pocket>  (358) 
nan

>  <ATP_Site>  (358) 
nan

>  <Peripheral>  (358) 
nan

>  <Num_H_Atoms_ProtBoundConf>  (358) 
nan

>  <Num_Resolved_Atoms>  (358) 
nan

>  <Num_Not_Resolved_Atoms>  (358) 
nan

$$$$
CHEMBL2207999
     RDKit          3D

  0  0  0  0  0  0  0  0  0  0999 V3000
M  V30 BEGIN CTAB
M  V30 COUNTS 46 50 0 0 0
M  V30 BEGIN ATOM
M  V30 1 C -1.424541 -5.645176 2.222539 0
M  V30 2 C -0.139919 -5.033082 1.784138 0
M  V30 3 C 1.127963 -5.717281 1.582704 0
M  V30 4 S 2.227630 -4.320188 1.050780 0
M  V30 5 C 0.789597 -3.093093 1.198304 0
M  V30 6 C 1.133141 -1.700039 0.860471 0
M  V30 7 N 2.279533 -1.136199 0.465943 0
M  V30 8 C 2.082074 0.201264 0.276545 0
M  V30 9 C 3.099362 1.193555 -0.161792 0
M  V30 10 C 2.680125 1.665415 -1.549638 0
M  V30 11 C 3.230375 3.040837 -1.847698 0
M  V30 12 C 2.532499 4.031867 -0.943936 0
M  V30 13 C 2.420108 3.542925 0.468058 0
M  V30 14 C 3.239819 2.337957 0.788914 0
M  V30 15 N 0.794431 0.421780 0.566529 0
M  V30 16 C 0.160077 -0.729796 0.935468 0
M  V30 17 C -1.236086 -0.867472 1.317760 0
M  V30 18 C -1.848083 -0.248263 2.387990 0
M  V30 19 C -3.171250 -0.383833 2.743710 0
M  V30 20 C -3.997896 -1.197911 1.997198 0
M  V30 21 N -5.277314 -1.479323 2.141498 0
M  V30 22 C -5.959229 -2.165288 1.506544 0
M  V30 23 S -4.727074 -2.796067 0.169807 0
M  V30 24 C -3.368323 -1.828789 0.904352 0
M  V30 25 C -2.044510 -1.685227 0.558974 0
M  V30 26 N -0.106494 -3.728060 1.541390 0
M  V30 27 H -1.331320 -6.723128 2.380148 0
M  V30 28 H -1.799039 -5.149302 3.158760 0
M  V30 29 H -2.197624 -5.500948 1.422155 0
M  V30 30 H 1.074515 -6.900565 1.808722 0
M  V30 31 H 4.084484 0.674613 -0.322644 0
M  V30 32 H 2.997423 0.919880 -2.285838 0
M  V30 33 H 1.563775 1.700062 -1.536677 0
M  V30 34 H 3.009350 3.268941 -2.895280 0
M  V30 35 H 4.314308 3.016094 -1.684105 0
M  V30 36 H 3.040090 5.004554 -1.047520 0
M  V30 37 H 1.486654 4.170390 -1.345175 0
M  V30 38 H 2.832982 4.374354 1.111077 0
M  V30 39 H 1.364230 3.458562 0.790585 0
M  V30 40 H 4.310705 2.623121 0.964640 0
M  V30 41 H 2.884457 1.982147 1.796536 0
M  V30 42 H 0.283172 1.331755 0.534105 0
M  V30 43 H -1.190349 0.403473 2.987307 0
M  V30 44 H -3.495825 0.171999 3.613427 0
M  V30 45 H -7.084550 -2.312079 1.767359 0
M  V30 46 H -1.755158 -2.240905 -0.296230 0
M  V30 END ATOM
M  V30 BEGIN BOND
M  V30 1 1 1 2
M  V30 2 2 2 3
M  V30 3 1 3 4
M  V30 4 1 4 5
M  V30 5 1 5 6
M  V30 6 1 6 7
M  V30 7 2 7 8
M  V30 8 1 8 9
M  V30 9 1 9 10
M  V30 10 1 10 11
M  V30 11 1 11 12
M  V30 12 1 12 13
M  V30 13 1 13 14
M  V30 14 1 8 15
M  V30 15 1 15 16
M  V30 16 1 16 17
M  V30 17 2 17 18
M  V30 18 1 18 19
M  V30 19 2 19 20
M  V30 20 1 20 21
M  V30 21 2 21 22
M  V30 22 1 22 23
M  V30 23 1 23 24
M  V30 24 2 24 25
M  V30 25 2 5 26
M  V30 26 1 26 2
M  V30 27 2 16 6
M  V30 28 1 25 17
M  V30 29 1 14 9
M  V30 30 1 24 20
M  V30 31 1 1 27
M  V30 32 1 1 28
M  V30 33 1 1 29
M  V30 34 1 3 30
M  V30 35 1 9 31
M  V30 36 1 10 32
M  V30 37 1 10 33
M  V30 38 1 11 34
M  V30 39 1 11 35
M  V30 40 1 12 36
M  V30 41 1 12 37
M  V30 42 1 13 38
M  V30 43 1 13 39
M  V30 44 1 14 40
M  V30 45 1 14 41
M  V30 46 1 15 42
M  V30 47 1 18 43
M  V30 48 1 19 44
M  V30 49 1 22 45
M  V30 50 1 25 46
M  V30 END BOND
M  V30 END CTAB
M  END
>  <Dataset>  (359) 
ChEMBL_Kinases

>  <Ligand_Instance>  (359) 
nan

>  <PDB_ID>  (359) 
nan

>  <Standardized_SMILES>  (359) 
Cc1csc(-c2nc(C3CCCCC3)[nH]c2-c2ccc3ncsc3c2)n1

>  <Name>  (359) 
nan

>  <Pocket>  (359) 
nan

>  <ATP_Site>  (359) 
nan

>  <Peripheral>  (359) 
nan

>  <Num_H_Atoms_ProtBoundConf>  (359) 
nan

>  <Num_Resolved_Atoms>  (359) 
nan

>  <Num_Not_Resolved_Atoms>  (359) 
nan

$$$$
CHEMBL2207998
     RDKit          3D

  0  0  0  0  0  0  0  0  0  0999 V3000
M  V30 BEGIN CTAB
M  V30 COUNTS 43 47 0 0 0
M  V30 BEGIN ATOM
M  V30 1 C 1.041061 -5.165990 2.927565 0
M  V30 2 C 1.853389 -3.960581 2.575783 0
M  V30 3 C 3.241198 -3.792263 2.797026 0
M  V30 4 S 3.520896 -2.063690 2.103845 0
M  V30 5 C 1.683541 -1.930542 1.655813 0
M  V30 6 C 1.289161 -0.674799 1.025040 0
M  V30 7 N 1.978757 0.419239 0.696553 0
M  V30 8 C 1.115467 1.298049 0.129352 0
M  V30 9 C 1.440220 2.651792 -0.389646 0
M  V30 10 C 2.411254 2.568303 -1.567113 0
M  V30 11 C 2.718052 4.054089 -1.729298 0
M  V30 12 C 3.050266 4.409621 -0.285706 0
M  V30 13 C 2.160690 3.514987 0.580535 0
M  V30 14 N -0.115995 0.726422 0.114527 0
M  V30 15 C -0.030322 -0.511395 0.671493 0
M  V30 16 C -1.165824 -1.414570 0.822734 0
M  V30 17 C -1.306746 -2.666146 0.251420 0
M  V30 18 C -2.407197 -3.466423 0.433243 0
M  V30 19 C -3.463686 -3.052981 1.219247 0
M  V30 20 N -4.537745 -3.801903 1.412556 0
M  V30 21 C -5.477827 -3.418868 2.119034 0
M  V30 22 S -4.855782 -1.687774 2.678467 0
M  V30 23 C -3.364745 -1.824345 1.801445 0
M  V30 24 C -2.236952 -1.025928 1.603994 0
M  V30 25 N 1.202456 -2.961576 2.002640 0
M  V30 26 H 0.114112 -4.943073 3.461285 0
M  V30 27 H 0.757813 -5.718911 1.986909 0
M  V30 28 H 1.650821 -5.892748 3.501130 0
M  V30 29 H 3.807639 -4.676415 3.302020 0
M  V30 30 H 0.541659 3.157796 -0.780572 0
M  V30 31 H 1.869396 2.172075 -2.454314 0
M  V30 32 H 3.296800 1.988586 -1.297792 0
M  V30 33 H 3.582458 4.228689 -2.390707 0
M  V30 34 H 1.787424 4.547941 -2.075312 0
M  V30 35 H 2.822382 5.470939 -0.150002 0
M  V30 36 H 4.110750 4.144863 -0.114156 0
M  V30 37 H 2.807338 2.942490 1.282362 0
M  V30 38 H 1.521488 4.160681 1.210955 0
M  V30 39 H -0.989089 1.163307 -0.262583 0
M  V30 40 H -0.441886 -2.958489 -0.368336 0
M  V30 41 H -2.319866 -4.421597 -0.108345 0
M  V30 42 H -6.417901 -3.894462 2.381224 0
M  V30 43 H -2.269960 -0.073784 2.114475 0
M  V30 END ATOM
M  V30 BEGIN BOND
M  V30 1 1 1 2
M  V30 2 2 2 3
M  V30 3 1 3 4
M  V30 4 1 4 5
M  V30 5 1 5 6
M  V30 6 1 6 7
M  V30 7 2 7 8
M  V30 8 1 8 9
M  V30 9 1 9 10
M  V30 10 1 10 11
M  V30 11 1 11 12
M  V30 12 1 12 13
M  V30 13 1 8 14
M  V30 14 1 14 15
M  V30 15 1 15 16
M  V30 16 2 16 17
M  V30 17 1 17 18
M  V30 18 2 18 19
M  V30 19 1 19 20
M  V30 20 2 20 21
M  V30 21 1 21 22
M  V30 22 1 22 23
M  V30 23 2 23 24
M  V30 24 2 5 25
M  V30 25 1 25 2
M  V30 26 2 15 6
M  V30 27 1 24 16
M  V30 28 1 13 9
M  V30 29 1 23 19
M  V30 30 1 1 26
M  V30 31 1 1 27
M  V30 32 1 1 28
M  V30 33 1 3 29
M  V30 34 1 9 30
M  V30 35 1 10 31
M  V30 36 1 10 32
M  V30 37 1 11 33
M  V30 38 1 11 34
M  V30 39 1 12 35
M  V30 40 1 12 36
M  V30 41 1 13 37
M  V30 42 1 13 38
M  V30 43 1 14 39
M  V30 44 1 17 40
M  V30 45 1 18 41
M  V30 46 1 21 42
M  V30 47 1 24 43
M  V30 END BOND
M  V30 END CTAB
M  END
>  <Dataset>  (360) 
ChEMBL_Kinases

>  <Ligand_Instance>  (360) 
nan

>  <PDB_ID>  (360) 
nan

>  <Standardized_SMILES>  (360) 
Cc1csc(-c2nc(C3CCCC3)[nH]c2-c2ccc3ncsc3c2)n1

>  <Name>  (360) 
nan

>  <Pocket>  (360) 
nan

>  <ATP_Site>  (360) 
nan

>  <Peripheral>  (360) 
nan

>  <Num_H_Atoms_ProtBoundConf>  (360) 
nan

>  <Num_Resolved_Atoms>  (360) 
nan

>  <Num_Not_Resolved_Atoms>  (360) 
nan

$$$$
CHEMBL2207997
     RDKit          3D

  0  0  0  0  0  0  0  0  0  0999 V3000
M  V30 BEGIN CTAB
M  V30 COUNTS 37 41 0 0 0
M  V30 BEGIN ATOM
M  V30 1 C 0.917331 1.051496 4.810404 0
M  V30 2 C 1.757985 0.283057 3.820837 0
M  V30 3 C 3.116168 -0.124224 4.206471 0
M  V30 4 S 3.593642 -0.967531 2.677493 0
M  V30 5 C 2.019134 -0.671830 1.811183 0
M  V30 6 C 1.811628 -1.147759 0.474532 0
M  V30 7 N 2.646398 -1.835006 -0.332418 0
M  V30 8 C 2.026476 -2.072931 -1.515299 0
M  V30 9 C 2.513543 -2.782175 -2.718540 0
M  V30 10 C 1.535814 -3.552667 -3.526689 0
M  V30 11 C 2.071716 -2.256619 -4.088762 0
M  V30 12 N 0.787720 -1.518899 -1.426965 0
M  V30 13 C 0.636221 -0.939321 -0.197042 0
M  V30 14 C -0.565350 -0.260841 0.226668 0
M  V30 15 C -1.167084 0.855955 -0.317466 0
M  V30 16 C -2.305010 1.448076 0.131680 0
M  V30 17 C -2.973675 0.931589 1.236732 0
M  V30 18 N -4.066727 1.308158 1.856483 0
M  V30 19 C -4.624815 0.908813 2.748250 0
M  V30 20 S -3.473764 -0.557003 3.136582 0
M  V30 21 C -2.408569 -0.157432 1.787024 0
M  V30 22 C -1.233374 -0.775136 1.328992 0
M  V30 23 N 1.178146 0.036510 2.656971 0
M  V30 24 H 1.246045 0.829660 5.847139 0
M  V30 25 H 0.954344 2.148650 4.611184 0
M  V30 26 H -0.148947 0.761415 4.776252 0
M  V30 27 H 3.533511 0.082200 5.112173 0
M  V30 28 H 3.554971 -3.190292 -2.668655 0
M  V30 29 H 1.790534 -4.446641 -4.097460 0
M  V30 30 H 0.493600 -3.539226 -3.143884 0
M  V30 31 H 1.378594 -1.377308 -4.105842 0
M  V30 32 H 2.795720 -2.313014 -4.915295 0
M  V30 33 H 0.046258 -1.519767 -2.168336 0
M  V30 34 H -0.633836 1.262044 -1.193957 0
M  V30 35 H -2.639392 2.321149 -0.417471 0
M  V30 36 H -5.620158 1.442058 3.126018 0
M  V30 37 H -0.947152 -1.621630 1.893987 0
M  V30 END ATOM
M  V30 BEGIN BOND
M  V30 1 1 1 2
M  V30 2 2 2 3
M  V30 3 1 3 4
M  V30 4 1 4 5
M  V30 5 1 5 6
M  V30 6 1 6 7
M  V30 7 2 7 8
M  V30 8 1 8 9
M  V30 9 1 9 10
M  V30 10 1 10 11
M  V30 11 1 8 12
M  V30 12 1 12 13
M  V30 13 1 13 14
M  V30 14 2 14 15
M  V30 15 1 15 16
M  V30 16 2 16 17
M  V30 17 1 17 18
M  V30 18 2 18 19
M  V30 19 1 19 20
M  V30 20 1 20 21
M  V30 21 2 21 22
M  V30 22 2 5 23
M  V30 23 1 23 2
M  V30 24 2 13 6
M  V30 25 1 22 14
M  V30 26 1 11 9
M  V30 27 1 21 17
M  V30 28 1 1 24
M  V30 29 1 1 25
M  V30 30 1 1 26
M  V30 31 1 3 27
M  V30 32 1 9 28
M  V30 33 1 10 29
M  V30 34 1 10 30
M  V30 35 1 11 31
M  V30 36 1 11 32
M  V30 37 1 12 33
M  V30 38 1 15 34
M  V30 39 1 16 35
M  V30 40 1 19 36
M  V30 41 1 22 37
M  V30 END BOND
M  V30 END CTAB
M  END
>  <Dataset>  (361) 
ChEMBL_Kinases

>  <Ligand_Instance>  (361) 
nan

>  <PDB_ID>  (361) 
nan

>  <Standardized_SMILES>  (361) 
Cc1csc(-c2nc(C3CC3)[nH]c2-c2ccc3ncsc3c2)n1

>  <Name>  (361) 
nan

>  <Pocket>  (361) 
nan

>  <ATP_Site>  (361) 
nan

>  <Peripheral>  (361) 
nan

>  <Num_H_Atoms_ProtBoundConf>  (361) 
nan

>  <Num_Resolved_Atoms>  (361) 
nan

>  <Num_Not_Resolved_Atoms>  (361) 
nan

$$$$
CHEMBL2207996
     RDKit          3D

  0  0  0  0  0  0  0  0  0  0999 V3000
M  V30 BEGIN CTAB
M  V30 COUNTS 33 36 0 0 0
M  V30 BEGIN ATOM
M  V30 1 C -0.425632 -3.973161 2.609279 0
M  V30 2 C 0.857447 -3.213751 2.391590 0
M  V30 3 C 2.146879 -3.579048 2.976648 0
M  V30 4 S 3.186644 -2.192906 2.248308 0
M  V30 5 C 1.710862 -1.433297 1.334931 0
M  V30 6 C 1.993807 -0.266237 0.574445 0
M  V30 7 N 3.111163 0.444729 0.344607 0
M  V30 8 C 2.812849 1.491383 -0.471626 0
M  V30 9 C 3.786018 2.513664 -0.957727 0
M  V30 10 F 3.352219 3.088678 -2.118835 0
M  V30 11 F 5.029500 1.931333 -1.144118 0
M  V30 12 F 3.951948 3.519425 0.003718 0
M  V30 13 N 1.480937 1.435390 -0.759448 0
M  V30 14 C 0.967571 0.347088 -0.113241 0
M  V30 15 C -0.432474 0.005210 -0.213877 0
M  V30 16 C -1.017005 -1.128931 -0.748840 0
M  V30 17 C -2.364184 -1.351512 -0.791543 0
M  V30 18 C -3.257451 -0.416364 -0.280977 0
M  V30 19 N -4.564021 -0.588843 -0.300745 0
M  V30 20 C -5.338988 0.270478 0.166315 0
M  V30 21 S -4.111442 1.620311 0.776243 0
M  V30 22 C -2.727586 0.704898 0.250344 0
M  V30 23 C -1.334694 0.922549 0.288286 0
M  V30 24 N 0.603559 -2.181428 1.590598 0
M  V30 25 H -1.206245 -3.352651 3.079571 0
M  V30 26 H -0.252048 -4.807660 3.313846 0
M  V30 27 H -0.843616 -4.370596 1.658886 0
M  V30 28 H 2.176769 -4.444705 3.602383 0
M  V30 29 H 1.040520 2.160205 -1.382322 0
M  V30 30 H -0.280329 -1.848073 -1.144265 0
M  V30 31 H -2.627450 -2.300487 -1.250626 0
M  V30 32 H -6.456677 0.174322 0.174968 0
M  V30 33 H -1.027870 1.837915 0.728331 0
M  V30 END ATOM
M  V30 BEGIN BOND
M  V30 1 1 1 2
M  V30 2 2 2 3
M  V30 3 1 3 4
M  V30 4 1 4 5
M  V30 5 1 5 6
M  V30 6 1 6 7
M  V30 7 2 7 8
M  V30 8 1 8 9
M  V30 9 1 9 10
M  V30 10 1 9 11
M  V30 11 1 9 12
M  V30 12 1 8 13
M  V30 13 1 13 14
M  V30 14 1 14 15
M  V30 15 2 15 16
M  V30 16 1 16 17
M  V30 17 2 17 18
M  V30 18 1 18 19
M  V30 19 2 19 20
M  V30 20 1 20 21
M  V30 21 1 21 22
M  V30 22 2 22 23
M  V30 23 2 5 24
M  V30 24 1 24 2
M  V30 25 2 14 6
M  V30 26 1 23 15
M  V30 27 1 22 18
M  V30 28 1 1 25
M  V30 29 1 1 26
M  V30 30 1 1 27
M  V30 31 1 3 28
M  V30 32 1 13 29
M  V30 33 1 16 30
M  V30 34 1 17 31
M  V30 35 1 20 32
M  V30 36 1 23 33
M  V30 END BOND
M  V30 END CTAB
M  END
>  <Dataset>  (362) 
ChEMBL_Kinases

>  <Ligand_Instance>  (362) 
nan

>  <PDB_ID>  (362) 
nan

>  <Standardized_SMILES>  (362) 
Cc1csc(-c2nc(C(F)(F)F)[nH]c2-c2ccc3ncsc3c2)n1

>  <Name>  (362) 
nan

>  <Pocket>  (362) 
nan

>  <ATP_Site>  (362) 
nan

>  <Peripheral>  (362) 
nan

>  <Num_H_Atoms_ProtBoundConf>  (362) 
nan

>  <Num_Resolved_Atoms>  (362) 
nan

>  <Num_Not_Resolved_Atoms>  (362) 
nan

$$$$
CHEMBL2207995
     RDKit          3D

  0  0  0  0  0  0  0  0  0  0999 V3000
M  V30 BEGIN CTAB
M  V30 COUNTS 48 51 0 0 0
M  V30 BEGIN ATOM
M  V30 1 C 0.414141 -6.142102 3.878877 0
M  V30 2 C 0.181344 -5.214073 2.688007 0
M  V30 3 C 1.507746 -4.763628 2.119002 0
M  V30 4 C 1.327248 -3.839746 0.934411 0
M  V30 5 C 2.681905 -3.453270 0.446653 0
M  V30 6 C 2.654243 -2.525820 -0.740706 0
M  V30 7 C 1.974756 -1.255758 -0.504281 0
M  V30 8 N 2.450103 -0.056257 -0.053744 0
M  V30 9 C 1.432494 0.819773 0.000635 0
M  V30 10 C 1.435514 2.229182 0.418632 0
M  V30 11 N 0.606648 3.106863 0.509816 0
M  V30 12 C 0.907266 4.334566 0.936199 0
M  V30 13 C -0.262454 5.285148 0.977858 0
M  V30 14 C 2.296637 4.594622 1.298004 0
M  V30 15 S 3.054643 2.963490 0.968266 0
M  V30 16 C 0.283917 0.215561 -0.409284 0
M  V30 17 C -1.051961 0.784852 -0.509298 0
M  V30 18 C -1.467852 1.828222 -1.316248 0
M  V30 19 C -2.739837 2.311508 -1.357834 0
M  V30 20 C -3.735955 1.775110 -0.570500 0
M  V30 21 N -5.009057 2.102887 -0.472260 0
M  V30 22 C -5.841552 1.663477 0.177857 0
M  V30 23 S -4.840098 0.299789 1.091615 0
M  V30 24 C -3.326546 0.734155 0.236225 0
M  V30 25 C -2.039280 0.225018 0.296189 0
M  V30 26 N 0.659688 -1.056162 -0.710123 0
M  V30 27 H 0.560902 -7.157501 3.469591 0
M  V30 28 H 1.314764 -5.820057 4.445730 0
M  V30 29 H -0.437773 -6.127043 4.582240 0
M  V30 30 H -0.426822 -5.765785 1.974477 0
M  V30 31 H -0.320479 -4.312851 3.104706 0
M  V30 32 H 2.021242 -5.692103 1.738455 0
M  V30 33 H 2.155390 -4.340011 2.900615 0
M  V30 34 H 0.722504 -2.989306 1.303737 0
M  V30 35 H 0.799098 -4.441727 0.162322 0
M  V30 36 H 3.189443 -4.384772 0.105071 0
M  V30 37 H 3.317567 -3.055161 1.259523 0
M  V30 38 H 3.726201 -2.314374 -0.983061 0
M  V30 39 H 2.223369 -3.006650 -1.637472 0
M  V30 40 H 0.044108 6.257676 1.395426 0
M  V30 41 H -0.687508 5.418528 -0.048319 0
M  V30 42 H -1.078178 4.893479 1.596210 0
M  V30 43 H 2.452236 5.690895 1.655828 0
M  V30 44 H -0.652139 2.233330 -1.930818 0
M  V30 45 H -2.872419 3.133532 -2.053719 0
M  V30 46 H -6.922820 2.022126 0.190108 0
M  V30 47 H -1.916821 -0.594346 0.992407 0
M  V30 48 H -0.021542 -1.782498 -1.062302 0
M  V30 END ATOM
M  V30 BEGIN BOND
M  V30 1 1 1 2
M  V30 2 1 2 3
M  V30 3 1 3 4
M  V30 4 1 4 5
M  V30 5 1 5 6
M  V30 6 1 6 7
M  V30 7 2 7 8
M  V30 8 1 8 9
M  V30 9 1 9 10
M  V30 10 2 10 11
M  V30 11 1 11 12
M  V30 12 1 12 13
M  V30 13 2 12 14
M  V30 14 1 14 15
M  V30 15 2 9 16
M  V30 16 1 16 17
M  V30 17 2 17 18
M  V30 18 1 18 19
M  V30 19 2 19 20
M  V30 20 1 20 21
M  V30 21 2 21 22
M  V30 22 1 22 23
M  V30 23 1 23 24
M  V30 24 2 24 25
M  V30 25 1 16 26
M  V30 26 1 26 7
M  V30 27 1 15 10
M  V30 28 1 25 17
M  V30 29 1 24 20
M  V30 30 1 1 27
M  V30 31 1 1 28
M  V30 32 1 1 29
M  V30 33 1 2 30
M  V30 34 1 2 31
M  V30 35 1 3 32
M  V30 36 1 3 33
M  V30 37 1 4 34
M  V30 38 1 4 35
M  V30 39 1 5 36
M  V30 40 1 5 37
M  V30 41 1 6 38
M  V30 42 1 6 39
M  V30 43 1 13 40
M  V30 44 1 13 41
M  V30 45 1 13 42
M  V30 46 1 14 43
M  V30 47 1 18 44
M  V30 48 1 19 45
M  V30 49 1 22 46
M  V30 50 1 25 47
M  V30 51 1 26 48
M  V30 END BOND
M  V30 END CTAB
M  END
>  <Dataset>  (363) 
ChEMBL_Kinases

>  <Ligand_Instance>  (363) 
nan

>  <PDB_ID>  (363) 
nan

>  <Standardized_SMILES>  (363) 
CCCCCCc1nc(-c2nc(C)cs2)c(-c2ccc3ncsc3c2)[nH]1

>  <Name>  (363) 
nan

>  <Pocket>  (363) 
nan

>  <ATP_Site>  (363) 
nan

>  <Peripheral>  (363) 
nan

>  <Num_H_Atoms_ProtBoundConf>  (363) 
nan

>  <Num_Resolved_Atoms>  (363) 
nan

>  <Num_Not_Resolved_Atoms>  (363) 
nan

$$$$
CHEMBL2207994
     RDKit          3D

  0  0  0  0  0  0  0  0  0  0999 V3000
M  V30 BEGIN CTAB
M  V30 COUNTS 42 45 0 0 0
M  V30 BEGIN ATOM
M  V30 1 C 0.505401 -3.986084 4.153634 0
M  V30 2 C 1.458147 -3.550952 3.066164 0
M  V30 3 C 2.738495 -4.157528 2.754230 0
M  V30 4 S 3.223895 -3.032698 1.328341 0
M  V30 5 C 1.727439 -2.045350 1.424260 0
M  V30 6 C 1.522578 -0.941358 0.502170 0
M  V30 7 N 2.318510 -0.496634 -0.485311 0
M  V30 8 C 1.735339 0.559236 -1.095957 0
M  V30 9 C 2.273826 1.338060 -2.225567 0
M  V30 10 C 1.770552 0.655810 -3.493861 0
M  V30 11 C 1.710479 2.739789 -2.242985 0
M  V30 12 C 3.767444 1.316474 -2.255772 0
M  V30 13 N 0.549235 0.764473 -0.462474 0
M  V30 14 C 0.391011 -0.153896 0.535230 0
M  V30 15 C -0.760443 -0.232952 1.419247 0
M  V30 16 C -1.208860 0.726143 2.293977 0
M  V30 17 C -2.301305 0.620871 3.116663 0
M  V30 18 C -3.064027 -0.555548 3.100085 0
M  V30 19 N -4.134139 -0.918991 3.766521 0
M  V30 20 C -4.756935 -1.870135 3.758100 0
M  V30 21 S -3.787526 -2.853853 2.450943 0
M  V30 22 C -2.630256 -1.515130 2.236891 0
M  V30 23 C -1.514416 -1.387674 1.407266 0
M  V30 24 N 0.918416 -2.506862 2.436759 0
M  V30 25 H 0.387617 -3.189223 4.909895 0
M  V30 26 H -0.490552 -4.259090 3.760560 0
M  V30 27 H 0.885613 -4.906868 4.647492 0
M  V30 28 H 3.015427 -5.041904 3.413927 0
M  V30 29 H 0.680197 0.738214 -3.601789 0
M  V30 30 H 1.982280 -0.438661 -3.399793 0
M  V30 31 H 2.239746 1.101107 -4.384782 0
M  V30 32 H 0.611271 2.689081 -2.201197 0
M  V30 33 H 1.937347 3.175309 -3.257402 0
M  V30 34 H 2.129650 3.393861 -1.474808 0
M  V30 35 H 4.145640 2.313785 -1.956951 0
M  V30 36 H 4.177709 0.965023 -3.214530 0
M  V30 37 H 4.111797 0.591990 -1.477351 0
M  V30 38 H -0.169126 1.506779 -0.675554 0
M  V30 39 H -0.618723 1.655594 2.317134 0
M  V30 40 H -2.533388 1.462998 3.754677 0
M  V30 41 H -5.727640 -1.817281 4.567550 0
M  V30 42 H -1.352834 -2.248470 0.816081 0
M  V30 END ATOM
M  V30 BEGIN BOND
M  V30 1 1 1 2
M  V30 2 2 2 3
M  V30 3 1 3 4
M  V30 4 1 4 5
M  V30 5 1 5 6
M  V30 6 1 6 7
M  V30 7 2 7 8
M  V30 8 1 8 9
M  V30 9 1 9 10
M  V30 10 1 9 11
M  V30 11 1 9 12
M  V30 12 1 8 13
M  V30 13 1 13 14
M  V30 14 1 14 15
M  V30 15 2 15 16
M  V30 16 1 16 17
M  V30 17 2 17 18
M  V30 18 1 18 19
M  V30 19 2 19 20
M  V30 20 1 20 21
M  V30 21 1 21 22
M  V30 22 2 22 23
M  V30 23 2 5 24
M  V30 24 1 24 2
M  V30 25 2 14 6
M  V30 26 1 23 15
M  V30 27 1 22 18
M  V30 28 1 1 25
M  V30 29 1 1 26
M  V30 30 1 1 27
M  V30 31 1 3 28
M  V30 32 1 10 29
M  V30 33 1 10 30
M  V30 34 1 10 31
M  V30 35 1 11 32
M  V30 36 1 11 33
M  V30 37 1 11 34
M  V30 38 1 12 35
M  V30 39 1 12 36
M  V30 40 1 12 37
M  V30 41 1 13 38
M  V30 42 1 16 39
M  V30 43 1 17 40
M  V30 44 1 20 41
M  V30 45 1 23 42
M  V30 END BOND
M  V30 END CTAB
M  END
>  <Dataset>  (364) 
ChEMBL_Kinases

>  <Ligand_Instance>  (364) 
nan

>  <PDB_ID>  (364) 
nan

>  <Standardized_SMILES>  (364) 
Cc1csc(-c2nc(C(C)(C)C)[nH]c2-c2ccc3ncsc3c2)n1

>  <Name>  (364) 
nan

>  <Pocket>  (364) 
nan

>  <ATP_Site>  (364) 
nan

>  <Peripheral>  (364) 
nan

>  <Num_H_Atoms_ProtBoundConf>  (364) 
nan

>  <Num_Resolved_Atoms>  (364) 
nan

>  <Num_Not_Resolved_Atoms>  (364) 
nan

$$$$
CHEMBL221181
     RDKit          3D

  0  0  0  0  0  0  0  0  0  0999 V3000
M  V30 BEGIN CTAB
M  V30 COUNTS 53 57 0 0 0
M  V30 BEGIN ATOM
M  V30 1 N 3.987462 -9.803608 1.120603 0
M  V30 2 C 3.399903 -8.817882 0.888895 0
M  V30 3 C 2.682179 -7.612613 0.581036 0
M  V30 4 C 3.321877 -6.392561 0.664174 0
M  V30 5 C 2.653027 -5.225975 0.373635 0
M  V30 6 C 1.347271 -5.194019 -0.006359 0
M  V30 7 C 0.501648 -4.164123 -0.336631 0
M  V30 8 C 0.699338 -2.731729 -0.398907 0
M  V30 9 C -0.322261 -1.867403 -0.766382 0
M  V30 10 C 0.084848 -0.554221 -0.758237 0
M  V30 11 C -0.533644 0.649867 -1.037457 0
M  V30 12 C 0.141991 1.849947 -0.942199 0
M  V30 13 C -0.484131 3.167208 -1.238262 0
M  V30 14 N -1.086904 3.744105 -0.097199 0
M  V30 15 C -0.330738 4.022709 1.041886 0
M  V30 16 C -0.534913 2.991434 2.125498 0
M  V30 17 C -1.981269 2.721536 2.390819 0
M  V30 18 C -2.132247 1.468738 3.228681 0
M  V30 19 N -3.538083 1.236476 3.466696 0
M  V30 20 C -2.801356 2.582254 1.147836 0
M  V30 21 C -2.464119 3.639109 0.110935 0
M  V30 22 C 1.469106 1.762492 -0.551279 0
M  V30 23 C 2.118511 0.577357 -0.264668 0
M  V30 24 C 1.407282 -0.597981 -0.372238 0
M  V30 25 N 1.698702 -1.892054 -0.180021 0
M  V30 26 N -0.655563 -4.815426 -0.616778 0
M  V30 27 N -0.534443 -6.114960 -0.473405 0
M  V30 28 C 0.711029 -6.425515 -0.087547 0
M  V30 29 C 1.356340 -7.611441 0.197802 0
M  V30 30 H 4.363617 -6.398718 0.965720 0
M  V30 31 H 3.202817 -4.330042 0.457807 0
M  V30 32 H -1.353871 -2.106716 -1.044677 0
M  V30 33 H -1.572387 0.646922 -1.337493 0
M  V30 34 H -1.215024 3.043574 -2.068670 0
M  V30 35 H 0.333037 3.842916 -1.585689 0
M  V30 36 H 0.765900 4.126079 0.868189 0
M  V30 37 H -0.673129 4.995721 1.495645 0
M  V30 38 H -0.045393 2.024673 1.898841 0
M  V30 39 H -0.076498 3.339748 3.091771 0
M  V30 40 H -2.390083 3.578804 2.984891 0
M  V30 41 H -1.723769 0.596953 2.654955 0
M  V30 42 H -1.577451 1.532332 4.181985 0
M  V30 43 H -3.698960 1.005186 4.459035 0
M  V30 44 H -3.920669 0.523521 2.811954 0
M  V30 45 H -3.877115 2.647925 1.439900 0
M  V30 46 H -2.650446 1.588966 0.684166 0
M  V30 47 H -2.855135 4.606307 0.553919 0
M  V30 48 H -3.013267 3.445619 -0.837590 0
M  V30 49 H 2.095999 2.635243 -0.444452 0
M  V30 50 H 3.150447 0.524614 0.038087 0
M  V30 51 H 2.647566 -2.164514 0.117064 0
M  V30 52 H -1.329004 -6.760034 -0.649248 0
M  V30 53 H 0.818037 -8.550782 0.120564 0
M  V30 END ATOM
M  V30 BEGIN BOND
M  V30 1 3 1 2
M  V30 2 1 2 3
M  V30 3 2 3 4
M  V30 4 1 4 5
M  V30 5 2 5 6
M  V30 6 1 6 7
M  V30 7 1 7 8
M  V30 8 2 8 9
M  V30 9 1 9 10
M  V30 10 2 10 11
M  V30 11 1 11 12
M  V30 12 1 12 13
M  V30 13 1 13 14
M  V30 14 1 14 15
M  V30 15 1 15 16
M  V30 16 1 16 17
M  V30 17 1 17 18
M  V30 18 1 18 19
M  V30 19 1 17 20
M  V30 20 1 20 21
M  V30 21 2 12 22
M  V30 22 1 22 23
M  V30 23 2 23 24
M  V30 24 1 24 25
M  V30 25 2 7 26
M  V30 26 1 26 27
M  V30 27 1 27 28
M  V30 28 2 28 29
M  V30 29 1 29 3
M  V30 30 1 28 6
M  V30 31 1 25 8
M  V30 32 1 24 10
M  V30 33 1 21 14
M  V30 34 1 4 30
M  V30 35 1 5 31
M  V30 36 1 9 32
M  V30 37 1 11 33
M  V30 38 1 13 34
M  V30 39 1 13 35
M  V30 40 1 15 36
M  V30 41 1 15 37
M  V30 42 1 16 38
M  V30 43 1 16 39
M  V30 44 1 17 40
M  V30 45 1 18 41
M  V30 46 1 18 42
M  V30 47 1 19 43
M  V30 48 1 19 44
M  V30 49 1 20 45
M  V30 50 1 20 46
M  V30 51 1 21 47
M  V30 52 1 21 48
M  V30 53 1 22 49
M  V30 54 1 23 50
M  V30 55 1 25 51
M  V30 56 1 27 52
M  V30 57 1 29 53
M  V30 END BOND
M  V30 END CTAB
M  END
>  <Dataset>  (365) 
ChEMBL_Kinases

>  <Ligand_Instance>  (365) 
nan

>  <PDB_ID>  (365) 
nan

>  <Standardized_SMILES>  (365) 
N#Cc1ccc2c(-c3cc4cc(CN5CCC(CN)CC5)ccc4[nH]3)n[nH]c2c1

>  <Name>  (365) 
nan

>  <Pocket>  (365) 
nan

>  <ATP_Site>  (365) 
nan

>  <Peripheral>  (365) 
nan

>  <Num_H_Atoms_ProtBoundConf>  (365) 
nan

>  <Num_Resolved_Atoms>  (365) 
nan

>  <Num_Not_Resolved_Atoms>  (365) 
nan

$$$$
CHEMBL2207512
     RDKit          3D

  0  0  0  0  0  0  0  0  0  0999 V3000
M  V30 BEGIN CTAB
M  V30 COUNTS 50 54 0 0 0
M  V30 BEGIN ATOM
M  V30 1 C 0.363236 -6.190750 3.130847 0
M  V30 2 C 1.397562 -5.114018 2.929772 0
M  V30 3 C 1.725160 -4.590873 1.675555 0
M  V30 4 C 2.694701 -3.666854 2.044847 0
M  V30 5 C 3.424734 -2.783532 1.101970 0
M  V30 6 N 2.771346 -1.526536 0.887473 0
M  V30 7 C 2.610314 -0.748829 2.088400 0
M  V30 8 C 2.034822 0.602839 1.858732 0
M  V30 9 N 1.977366 0.982555 0.468110 0
M  V30 10 C 1.314172 2.202711 0.141510 0
M  V30 11 C 1.894051 3.470877 0.062677 0
M  V30 12 Cl 3.606265 3.545904 0.402685 0
M  V30 13 C 1.108658 4.550346 -0.267166 0
M  V30 14 N -0.210034 4.393016 -0.513505 0
M  V30 15 C -0.802388 3.184139 -0.446491 0
M  V30 16 N -2.070524 2.774724 -0.643115 0
M  V30 17 C -2.127556 1.444437 -0.447239 0
M  V30 18 C -3.319361 0.611683 -0.562018 0
M  V30 19 C -3.373402 -0.751702 -0.360239 0
M  V30 20 C -4.699075 -1.101135 -0.577916 0
M  V30 21 N -5.401840 -0.015771 -0.891709 0
M  V30 22 C -6.828328 0.047588 -1.194527 0
M  V30 23 N -4.550911 0.994161 -0.874661 0
M  V30 24 N -0.899610 1.033619 -0.130842 0
M  V30 25 C -0.053740 2.063007 -0.117697 0
M  V30 26 C 2.522433 0.261765 -0.666584 0
M  V30 27 C 3.447759 -0.789284 -0.134983 0
M  V30 28 N 2.898970 -3.663247 3.371769 0
M  V30 29 O 2.100994 -4.547375 3.875938 0
M  V30 30 H 0.435369 -6.553963 4.173148 0
M  V30 31 H 0.629798 -7.015277 2.415531 0
M  V30 32 H -0.651031 -5.841176 2.891731 0
M  V30 33 H 1.346290 -4.826651 0.712077 0
M  V30 34 H 4.437263 -2.591250 1.510326 0
M  V30 35 H 3.592665 -3.307274 0.139506 0
M  V30 36 H 2.069094 -1.344734 2.825358 0
M  V30 37 H 3.654369 -0.601435 2.493895 0
M  V30 38 H 2.519385 1.346077 2.510762 0
M  V30 39 H 0.963668 0.559849 2.214307 0
M  V30 40 H 1.601425 5.525532 -0.318147 0
M  V30 41 H -2.911860 3.355039 -0.906483 0
M  V30 42 H -2.520687 -1.381743 -0.086707 0
M  V30 43 H -5.042676 -2.122806 -0.488964 0
M  V30 44 H -7.189412 1.058741 -0.923680 0
M  V30 45 H -6.994568 -0.034761 -2.295854 0
M  V30 46 H -7.412269 -0.680524 -0.613069 0
M  V30 47 H 3.058755 0.983211 -1.348138 0
M  V30 48 H 1.669046 -0.129663 -1.233476 0
M  V30 49 H 3.744019 -1.448309 -0.964858 0
M  V30 50 H 4.347104 -0.263784 0.250408 0
M  V30 END ATOM
M  V30 BEGIN BOND
M  V30 1 1 1 2
M  V30 2 2 2 3
M  V30 3 1 3 4
M  V30 4 1 4 5
M  V30 5 1 5 6
M  V30 6 1 6 7
M  V30 7 1 7 8
M  V30 8 1 8 9
M  V30 9 1 9 10
M  V30 10 2 10 11
M  V30 11 1 11 12
M  V30 12 1 11 13
M  V30 13 2 13 14
M  V30 14 1 14 15
M  V30 15 1 15 16
M  V30 16 1 16 17
M  V30 17 1 17 18
M  V30 18 1 18 19
M  V30 19 2 19 20
M  V30 20 1 20 21
M  V30 21 1 21 22
M  V30 22 1 21 23
M  V30 23 2 17 24
M  V30 24 1 24 25
M  V30 25 1 9 26
M  V30 26 1 26 27
M  V30 27 2 4 28
M  V30 28 1 28 29
M  V30 29 1 29 2
M  V30 30 1 27 6
M  V30 31 1 25 10
M  V30 32 2 25 15
M  V30 33 2 23 18
M  V30 34 1 1 30
M  V30 35 1 1 31
M  V30 36 1 1 32
M  V30 37 1 3 33
M  V30 38 1 5 34
M  V30 39 1 5 35
M  V30 40 1 7 36
M  V30 41 1 7 37
M  V30 42 1 8 38
M  V30 43 1 8 39
M  V30 44 1 13 40
M  V30 45 1 16 41
M  V30 46 1 19 42
M  V30 47 1 20 43
M  V30 48 1 22 44
M  V30 49 1 22 45
M  V30 50 1 22 46
M  V30 51 1 26 47
M  V30 52 1 26 48
M  V30 53 1 27 49
M  V30 54 1 27 50
M  V30 END BOND
M  V30 END CTAB
M  END
>  <Dataset>  (366) 
ChEMBL_Kinases

>  <Ligand_Instance>  (366) 
nan

>  <PDB_ID>  (366) 
nan

>  <Standardized_SMILES>  (366) 
Cc1cc(CN2CCN(c3c(Cl)cnc4[nH]c(-c5ccn(C)n5)nc34)CC2)no1

>  <Name>  (366) 
nan

>  <Pocket>  (366) 
nan

>  <ATP_Site>  (366) 
nan

>  <Peripheral>  (366) 
nan

>  <Num_H_Atoms_ProtBoundConf>  (366) 
nan

>  <Num_Resolved_Atoms>  (366) 
nan

>  <Num_Not_Resolved_Atoms>  (366) 
nan

$$$$
CHEMBL2207513
     RDKit          3D

  0  0  0  0  0  0  0  0  0  0999 V3000
M  V30 BEGIN CTAB
M  V30 COUNTS 50 54 0 0 0
M  V30 BEGIN ATOM
M  V30 1 C -0.682932 -4.144129 2.587772 0
M  V30 2 C 0.659846 -3.830790 2.016998 0
M  V30 3 C 0.992516 -3.720226 0.682615 0
M  V30 4 C 2.334590 -3.426324 0.810213 0
M  V30 5 C 3.273708 -3.186938 -0.318110 0
M  V30 6 N 3.368126 -1.826767 -0.732539 0
M  V30 7 C 3.808631 -0.898949 0.249557 0
M  V30 8 C 2.647656 -0.135407 0.845643 0
M  V30 9 N 1.996437 0.582247 -0.219936 0
M  V30 10 C 1.245684 1.770068 0.102966 0
M  V30 11 C 1.757909 3.059446 0.136815 0
M  V30 12 Cl 3.462205 3.243048 -0.247771 0
M  V30 13 C 0.950416 4.117346 0.457648 0
M  V30 14 N -0.367456 3.930094 0.749545 0
M  V30 15 C -0.876990 2.686084 0.720546 0
M  V30 16 N -2.096699 2.169891 0.949192 0
M  V30 17 C -2.141180 0.836521 0.798382 0
M  V30 18 C -3.257041 -0.086253 0.953237 0
M  V30 19 C -3.136751 -1.468033 0.755866 0
M  V30 20 C -4.351851 -2.074648 0.972959 0
M  V30 21 N -5.193266 -1.081723 1.295668 0
M  V30 22 N -4.533676 0.087337 1.280279 0
M  V30 23 C -5.115505 1.365420 1.575612 0
M  V30 24 N -0.880590 0.519661 0.459111 0
M  V30 25 C -0.094056 1.596769 0.401776 0
M  V30 26 C 2.106209 0.103670 -1.578886 0
M  V30 27 C 2.365145 -1.374674 -1.638602 0
M  V30 28 N 2.708701 -3.378827 2.092896 0
M  V30 29 O 1.672536 -3.628295 2.811584 0
M  V30 30 H -1.059883 -3.241997 3.112647 0
M  V30 31 H -1.365255 -4.417647 1.766714 0
M  V30 32 H -0.584613 -4.950665 3.327466 0
M  V30 33 H 0.374573 -3.833518 -0.174148 0
M  V30 34 H 4.270649 -3.578267 -0.031505 0
M  V30 35 H 2.919878 -3.765772 -1.216017 0
M  V30 36 H 4.470002 -0.116303 -0.224409 0
M  V30 37 H 4.419442 -1.405875 0.993360 0
M  V30 38 H 2.983806 0.527832 1.666455 0
M  V30 39 H 1.876230 -0.838134 1.262250 0
M  V30 40 H 1.365587 5.121637 0.480146 0
M  V30 41 H -2.887415 2.793261 1.213288 0
M  V30 42 H -2.215346 -1.996038 0.470711 0
M  V30 43 H -4.503809 -3.142051 0.879162 0
M  V30 44 H -5.096167 2.052242 0.704742 0
M  V30 45 H -4.629586 1.783224 2.487781 0
M  V30 46 H -6.181362 1.191089 1.906468 0
M  V30 47 H 1.127298 0.287728 -2.082693 0
M  V30 48 H 2.864616 0.664986 -2.147945 0
M  V30 49 H 1.428136 -1.978152 -1.516717 0
M  V30 50 H 2.702417 -1.604636 -2.679528 0
M  V30 END ATOM
M  V30 BEGIN BOND
M  V30 1 1 1 2
M  V30 2 2 2 3
M  V30 3 1 3 4
M  V30 4 1 4 5
M  V30 5 1 5 6
M  V30 6 1 6 7
M  V30 7 1 7 8
M  V30 8 1 8 9
M  V30 9 1 9 10
M  V30 10 2 10 11
M  V30 11 1 11 12
M  V30 12 1 11 13
M  V30 13 2 13 14
M  V30 14 1 14 15
M  V30 15 1 15 16
M  V30 16 1 16 17
M  V30 17 1 17 18
M  V30 18 2 18 19
M  V30 19 1 19 20
M  V30 20 2 20 21
M  V30 21 1 21 22
M  V30 22 1 22 23
M  V30 23 2 17 24
M  V30 24 1 24 25
M  V30 25 1 9 26
M  V30 26 1 26 27
M  V30 27 2 4 28
M  V30 28 1 28 29
M  V30 29 1 29 2
M  V30 30 1 27 6
M  V30 31 1 25 10
M  V30 32 2 25 15
M  V30 33 1 22 18
M  V30 34 1 1 30
M  V30 35 1 1 31
M  V30 36 1 1 32
M  V30 37 1 3 33
M  V30 38 1 5 34
M  V30 39 1 5 35
M  V30 40 1 7 36
M  V30 41 1 7 37
M  V30 42 1 8 38
M  V30 43 1 8 39
M  V30 44 1 13 40
M  V30 45 1 16 41
M  V30 46 1 19 42
M  V30 47 1 20 43
M  V30 48 1 23 44
M  V30 49 1 23 45
M  V30 50 1 23 46
M  V30 51 1 26 47
M  V30 52 1 26 48
M  V30 53 1 27 49
M  V30 54 1 27 50
M  V30 END BOND
M  V30 END CTAB
M  END
>  <Dataset>  (367) 
ChEMBL_Kinases

>  <Ligand_Instance>  (367) 
nan

>  <PDB_ID>  (367) 
nan

>  <Standardized_SMILES>  (367) 
Cc1cc(CN2CCN(c3c(Cl)cnc4[nH]c(-c5ccnn5C)nc34)CC2)no1

>  <Name>  (367) 
nan

>  <Pocket>  (367) 
nan

>  <ATP_Site>  (367) 
nan

>  <Peripheral>  (367) 
nan

>  <Num_H_Atoms_ProtBoundConf>  (367) 
nan

>  <Num_Resolved_Atoms>  (367) 
nan

>  <Num_Not_Resolved_Atoms>  (367) 
nan

$$$$
CHEMBL2207514
     RDKit          3D

  0  0  0  0  0  0  0  0  0  0999 V3000
M  V30 BEGIN CTAB
M  V30 COUNTS 50 54 0 0 0
M  V30 BEGIN ATOM
M  V30 1 C -1.786884 -3.279632 4.465596 0
M  V30 2 C -0.332045 -2.994317 4.306296 0
M  V30 3 C 0.431555 -3.260052 3.190837 0
M  V30 4 C 1.756390 -2.858875 3.396933 0
M  V30 5 C 2.965266 -2.899780 2.574605 0
M  V30 6 N 3.217817 -1.759562 1.759921 0
M  V30 7 C 3.371899 -0.550622 2.495360 0
M  V30 8 C 3.223255 0.694943 1.641912 0
M  V30 9 N 2.013942 0.679782 0.844435 0
M  V30 10 C 1.598247 1.687148 -0.052890 0
M  V30 11 C 2.302127 2.843133 -0.263331 0
M  V30 12 Cl 3.789997 3.216262 0.571347 0
M  V30 13 C 1.930487 3.841539 -1.138322 0
M  V30 14 N 0.789997 3.668655 -1.839189 0
M  V30 15 C 0.049605 2.542263 -1.672546 0
M  V30 16 N -1.097756 2.212298 -2.284009 0
M  V30 17 C -1.460166 1.018909 -1.810406 0
M  V30 18 C -2.651337 0.276593 -2.200583 0
M  V30 19 C -3.551698 0.735462 -3.120002 0
M  V30 20 N -4.520407 -0.216636 -3.223966 0
M  V30 21 N -4.245957 -1.228649 -2.409721 0
M  V30 22 C -5.085341 -2.388965 -2.294561 0
M  V30 23 C -3.083653 -0.953169 -1.754176 0
M  V30 24 N -0.519352 0.678178 -0.934760 0
M  V30 25 C 0.446928 1.572009 -0.796773 0
M  V30 26 C 1.299838 -0.539053 1.131554 0
M  V30 27 C 2.213640 -1.671400 0.717174 0
M  V30 28 N 1.703711 -2.362490 4.661148 0
M  V30 29 O 0.511073 -2.451204 5.152263 0
M  V30 30 H -2.396947 -2.346194 4.472783 0
M  V30 31 H -2.124756 -3.885626 3.621459 0
M  V30 32 H -1.977593 -3.790831 5.440222 0
M  V30 33 H 0.130482 -3.714416 2.242027 0
M  V30 34 H 3.855103 -3.011859 3.260753 0
M  V30 35 H 2.976223 -3.812700 1.928136 0
M  V30 36 H 4.456207 -0.530946 2.824605 0
M  V30 37 H 2.804378 -0.538360 3.423832 0
M  V30 38 H 4.130840 0.810824 1.009940 0
M  V30 39 H 3.183019 1.552656 2.332900 0
M  V30 40 H 2.463538 4.758917 -1.323585 0
M  V30 41 H -1.605517 2.782058 -2.992785 0
M  V30 42 H -3.574930 1.660051 -3.702555 0
M  V30 43 H -4.925231 -2.850451 -1.287265 0
M  V30 44 H -6.164705 -2.086752 -2.349844 0
M  V30 45 H -4.918180 -3.105864 -3.121222 0
M  V30 46 H -2.596998 -1.584537 -1.022469 0
M  V30 47 H 1.173896 -0.628285 2.256384 0
M  V30 48 H 0.293442 -0.623912 0.744648 0
M  V30 49 H 1.697012 -2.600990 0.500687 0
M  V30 50 H 2.741060 -1.346992 -0.203530 0
M  V30 END ATOM
M  V30 BEGIN BOND
M  V30 1 1 1 2
M  V30 2 2 2 3
M  V30 3 1 3 4
M  V30 4 1 4 5
M  V30 5 1 5 6
M  V30 6 1 6 7
M  V30 7 1 7 8
M  V30 8 1 8 9
M  V30 9 1 9 10
M  V30 10 2 10 11
M  V30 11 1 11 12
M  V30 12 1 11 13
M  V30 13 2 13 14
M  V30 14 1 14 15
M  V30 15 1 15 16
M  V30 16 1 16 17
M  V30 17 1 17 18
M  V30 18 1 18 19
M  V30 19 2 19 20
M  V30 20 1 20 21
M  V30 21 1 21 22
M  V30 22 1 21 23
M  V30 23 2 17 24
M  V30 24 1 24 25
M  V30 25 1 9 26
M  V30 26 1 26 27
M  V30 27 2 4 28
M  V30 28 1 28 29
M  V30 29 1 29 2
M  V30 30 1 27 6
M  V30 31 1 25 10
M  V30 32 2 25 15
M  V30 33 2 23 18
M  V30 34 1 1 30
M  V30 35 1 1 31
M  V30 36 1 1 32
M  V30 37 1 3 33
M  V30 38 1 5 34
M  V30 39 1 5 35
M  V30 40 1 7 36
M  V30 41 1 7 37
M  V30 42 1 8 38
M  V30 43 1 8 39
M  V30 44 1 13 40
M  V30 45 1 16 41
M  V30 46 1 19 42
M  V30 47 1 22 43
M  V30 48 1 22 44
M  V30 49 1 22 45
M  V30 50 1 23 46
M  V30 51 1 26 47
M  V30 52 1 26 48
M  V30 53 1 27 49
M  V30 54 1 27 50
M  V30 END BOND
M  V30 END CTAB
M  END
>  <Dataset>  (368) 
ChEMBL_Kinases

>  <Ligand_Instance>  (368) 
nan

>  <PDB_ID>  (368) 
nan

>  <Standardized_SMILES>  (368) 
Cc1cc(CN2CCN(c3c(Cl)cnc4[nH]c(-c5cnn(C)c5)nc34)CC2)no1

>  <Name>  (368) 
nan

>  <Pocket>  (368) 
nan

>  <ATP_Site>  (368) 
nan

>  <Peripheral>  (368) 
nan

>  <Num_H_Atoms_ProtBoundConf>  (368) 
nan

>  <Num_Resolved_Atoms>  (368) 
nan

>  <Num_Not_Resolved_Atoms>  (368) 
nan

$$$$
CHEMBL2207515
     RDKit          3D

  0  0  0  0  0  0  0  0  0  0999 V3000
M  V30 BEGIN CTAB
M  V30 COUNTS 53 57 0 0 0
M  V30 BEGIN ATOM
M  V30 1 C 3.081015 -3.021001 5.366079 0
M  V30 2 C 3.745436 -3.710054 4.203796 0
M  V30 3 N 2.664534 -4.128004 3.292876 0
M  V30 4 C 2.179443 -3.379751 2.285472 0
M  V30 5 C 1.180960 -4.167601 1.699545 0
M  V30 6 C 0.316097 -3.863422 0.558107 0
M  V30 7 N 0.386228 -2.709096 -0.101481 0
M  V30 8 C -0.476642 -2.601712 -1.116335 0
M  V30 9 C -0.821368 -1.689129 -2.085770 0
M  V30 10 N -0.196769 -0.432829 -2.148731 0
M  V30 11 C 0.751301 0.070468 -1.208176 0
M  V30 12 C 0.539559 1.502275 -0.784106 0
M  V30 13 N -0.716091 2.063123 -1.175082 0
M  V30 14 C -1.008029 3.362328 -0.693539 0
M  V30 15 C -1.062526 3.423889 0.790264 0
M  V30 16 C -2.253396 3.196246 1.478321 0
M  V30 17 C -2.020872 3.312697 2.848988 0
M  V30 18 C -3.091776 3.125489 3.849000 0
M  V30 19 O -0.745421 3.595991 2.934509 0
M  V30 20 N -0.186340 3.662345 1.765188 0
M  V30 21 C -1.106825 1.760090 -2.517272 0
M  V30 22 C -0.265329 0.642466 -3.101890 0
M  V30 23 C -1.824762 -2.115685 -2.922675 0
M  V30 24 Cl -2.474717 -1.139930 -4.215508 0
M  V30 25 C -2.477520 -3.324160 -2.869186 0
M  V30 26 N -2.110800 -4.205844 -1.895361 0
M  V30 27 C -1.116167 -3.817883 -1.042474 0
M  V30 28 N -0.644729 -4.574618 -0.042526 0
M  V30 29 C 1.106701 -5.373443 2.389160 0
M  V30 30 N 2.051823 -5.298104 3.372263 0
M  V30 31 H 2.094395 -2.567132 5.083823 0
M  V30 32 H 3.725559 -2.169133 5.679976 0
M  V30 33 H 3.010295 -3.674470 6.261047 0
M  V30 34 H 4.327053 -4.603651 4.499912 0
M  V30 35 H 4.362944 -2.974886 3.658757 0
M  V30 36 H 2.456253 -2.388532 1.953044 0
M  V30 37 H 0.832628 -0.583729 -0.329878 0
M  V30 38 H 1.762727 0.053280 -1.723370 0
M  V30 39 H 0.570763 1.521657 0.325178 0
M  V30 40 H 1.350856 2.176302 -1.127384 0
M  V30 41 H -1.941288 3.725531 -1.162291 0
M  V30 42 H -0.189458 4.036962 -1.084561 0
M  V30 43 H -3.228822 2.960869 1.022089 0
M  V30 44 H -3.954221 3.783528 3.532166 0
M  V30 45 H -3.488306 2.068401 3.823119 0
M  V30 46 H -2.761041 3.342518 4.878860 0
M  V30 47 H -0.963792 2.648573 -3.157657 0
M  V30 48 H -2.176050 1.488712 -2.556302 0
M  V30 49 H 0.763218 1.064253 -3.357726 0
M  V30 50 H -0.675443 0.340819 -4.073151 0
M  V30 51 H -3.263306 -3.674428 -3.514858 0
M  V30 52 H -0.919703 -5.524261 0.261046 0
M  V30 53 H 0.487788 -6.230306 2.262306 0
M  V30 END ATOM
M  V30 BEGIN BOND
M  V30 1 1 1 2
M  V30 2 1 2 3
M  V30 3 1 3 4
M  V30 4 2 4 5
M  V30 5 1 5 6
M  V30 6 2 6 7
M  V30 7 1 7 8
M  V30 8 2 8 9
M  V30 9 1 9 10
M  V30 10 1 10 11
M  V30 11 1 11 12
M  V30 12 1 12 13
M  V30 13 1 13 14
M  V30 14 1 14 15
M  V30 15 1 15 16
M  V30 16 2 16 17
M  V30 17 1 17 18
M  V30 18 1 17 19
M  V30 19 1 19 20
M  V30 20 1 13 21
M  V30 21 1 21 22
M  V30 22 1 9 23
M  V30 23 1 23 24
M  V30 24 2 23 25
M  V30 25 1 25 26
M  V30 26 2 26 27
M  V30 27 1 27 28
M  V30 28 1 5 29
M  V30 29 2 29 30
M  V30 30 1 30 3
M  V30 31 1 28 6
M  V30 32 1 27 8
M  V30 33 1 22 10
M  V30 34 2 20 15
M  V30 35 1 1 31
M  V30 36 1 1 32
M  V30 37 1 1 33
M  V30 38 1 2 34
M  V30 39 1 2 35
M  V30 40 1 4 36
M  V30 41 1 11 37
M  V30 42 1 11 38
M  V30 43 1 12 39
M  V30 44 1 12 40
M  V30 45 1 14 41
M  V30 46 1 14 42
M  V30 47 1 16 43
M  V30 48 1 18 44
M  V30 49 1 18 45
M  V30 50 1 18 46
M  V30 51 1 21 47
M  V30 52 1 21 48
M  V30 53 1 22 49
M  V30 54 1 22 50
M  V30 55 1 25 51
M  V30 56 1 28 52
M  V30 57 1 29 53
M  V30 END BOND
M  V30 END CTAB
M  END
>  <Dataset>  (369) 
ChEMBL_Kinases

>  <Ligand_Instance>  (369) 
nan

>  <PDB_ID>  (369) 
nan

>  <Standardized_SMILES>  (369) 
CCn1cc(-c2nc3c(N4CCN(Cc5cc(C)on5)CC4)c(Cl)cnc3[nH]2)cn1

>  <Name>  (369) 
nan

>  <Pocket>  (369) 
nan

>  <ATP_Site>  (369) 
nan

>  <Peripheral>  (369) 
nan

>  <Num_H_Atoms_ProtBoundConf>  (369) 
nan

>  <Num_Resolved_Atoms>  (369) 
nan

>  <Num_Not_Resolved_Atoms>  (369) 
nan

$$$$
CHEMBL2207516
     RDKit          3D

  0  0  0  0  0  0  0  0  0  0999 V3000
M  V30 BEGIN CTAB
M  V30 COUNTS 56 60 0 0 0
M  V30 BEGIN ATOM
M  V30 1 C -0.594262 -1.234321 4.569216 0
M  V30 2 C 0.145483 -1.812331 3.408903 0
M  V30 3 C 1.521008 -1.889153 3.300587 0
M  V30 4 C 1.836598 -2.482295 2.093961 0
M  V30 5 C 3.093175 -2.833164 1.418539 0
M  V30 6 N 3.633766 -1.812981 0.571163 0
M  V30 7 C 3.944544 -0.583827 1.232587 0
M  V30 8 C 2.943442 0.493300 0.968301 0
M  V30 9 N 2.694341 0.676041 -0.448685 0
M  V30 10 C 1.903504 1.850238 -0.722590 0
M  V30 11 C 2.463440 3.089308 -0.953059 0
M  V30 12 Cl 4.202132 3.272934 -0.917661 0
M  V30 13 C 1.586714 4.124565 -1.202119 0
M  V30 14 N 0.249154 3.987475 -1.230220 0
M  V30 15 C -0.321488 2.769308 -1.004483 0
M  V30 16 N -1.608171 2.370393 -0.976772 0
M  V30 17 C -1.581913 1.050757 -0.705155 0
M  V30 18 C -2.758362 0.195140 -0.579220 0
M  V30 19 C -4.062042 0.618491 -0.720936 0
M  V30 20 N -4.829342 -0.470238 -0.529923 0
M  V30 21 N -4.061884 -1.527757 -0.280704 0
M  V30 22 C -4.385517 -2.915719 -0.009592 0
M  V30 23 C -5.853879 -3.119174 -0.260678 0
M  V30 24 C -3.531830 -3.870719 -0.811331 0
M  V30 25 C -2.747924 -1.159176 -0.300997 0
M  V30 26 N -0.294907 0.672374 -0.573511 0
M  V30 27 C 0.527664 1.719632 -0.753627 0
M  V30 28 C 3.282158 -0.344077 -1.293137 0
M  V30 29 C 2.931887 -1.682202 -0.670449 0
M  V30 30 N 0.631968 -2.740554 1.520357 0
M  V30 31 O -0.317196 -2.338221 2.312407 0
M  V30 32 H -0.814891 -0.149711 4.407981 0
M  V30 33 H -1.590569 -1.729288 4.676719 0
M  V30 34 H -0.058636 -1.335550 5.513662 0
M  V30 35 H 2.293223 -1.572015 3.979557 0
M  V30 36 H 2.976276 -3.750721 0.812352 0
M  V30 37 H 3.874895 -3.082722 2.175590 0
M  V30 38 H 3.951218 -0.766739 2.337848 0
M  V30 39 H 4.950750 -0.255340 0.935586 0
M  V30 40 H 1.960977 0.276299 1.422644 0
M  V30 41 H 3.330680 1.464523 1.343643 0
M  V30 42 H 1.990620 5.105906 -1.386302 0
M  V30 43 H -2.447353 2.989687 -1.138981 0
M  V30 44 H -4.367662 1.636092 -0.942525 0
M  V30 45 H -4.204466 -3.181088 1.066723 0
M  V30 46 H -6.188321 -4.002982 0.288900 0
M  V30 47 H -5.982870 -3.205163 -1.365065 0
M  V30 48 H -6.364419 -2.181383 0.050927 0
M  V30 49 H -3.672348 -3.799802 -1.898657 0
M  V30 50 H -2.481547 -3.767936 -0.469503 0
M  V30 51 H -3.835770 -4.896440 -0.467448 0
M  V30 52 H -1.857674 -1.745088 -0.143336 0
M  V30 53 H 2.953178 -0.287066 -2.334197 0
M  V30 54 H 4.408741 -0.284206 -1.257648 0
M  V30 55 H 3.306165 -2.512546 -1.337505 0
M  V30 56 H 1.851050 -1.846631 -0.599292 0
M  V30 END ATOM
M  V30 BEGIN BOND
M  V30 1 1 1 2
M  V30 2 2 2 3
M  V30 3 1 3 4
M  V30 4 1 4 5
M  V30 5 1 5 6
M  V30 6 1 6 7
M  V30 7 1 7 8
M  V30 8 1 8 9
M  V30 9 1 9 10
M  V30 10 2 10 11
M  V30 11 1 11 12
M  V30 12 1 11 13
M  V30 13 2 13 14
M  V30 14 1 14 15
M  V30 15 1 15 16
M  V30 16 1 16 17
M  V30 17 1 17 18
M  V30 18 1 18 19
M  V30 19 2 19 20
M  V30 20 1 20 21
M  V30 21 1 21 22
M  V30 22 1 22 23
M  V30 23 1 22 24
M  V30 24 1 21 25
M  V30 25 2 17 26
M  V30 26 1 26 27
M  V30 27 1 9 28
M  V30 28 1 28 29
M  V30 29 2 4 30
M  V30 30 1 30 31
M  V30 31 1 31 2
M  V30 32 1 29 6
M  V30 33 1 27 10
M  V30 34 2 27 15
M  V30 35 2 25 18
M  V30 36 1 1 32
M  V30 37 1 1 33
M  V30 38 1 1 34
M  V30 39 1 3 35
M  V30 40 1 5 36
M  V30 41 1 5 37
M  V30 42 1 7 38
M  V30 43 1 7 39
M  V30 44 1 8 40
M  V30 45 1 8 41
M  V30 46 1 13 42
M  V30 47 1 16 43
M  V30 48 1 19 44
M  V30 49 1 22 45
M  V30 50 1 23 46
M  V30 51 1 23 47
M  V30 52 1 23 48
M  V30 53 1 24 49
M  V30 54 1 24 50
M  V30 55 1 24 51
M  V30 56 1 25 52
M  V30 57 1 28 53
M  V30 58 1 28 54
M  V30 59 1 29 55
M  V30 60 1 29 56
M  V30 END BOND
M  V30 END CTAB
M  END
>  <Dataset>  (370) 
ChEMBL_Kinases

>  <Ligand_Instance>  (370) 
nan

>  <PDB_ID>  (370) 
nan

>  <Standardized_SMILES>  (370) 
Cc1cc(CN2CCN(c3c(Cl)cnc4[nH]c(-c5cnn(C(C)C)c5)nc34)CC2)no1

>  <Name>  (370) 
nan

>  <Pocket>  (370) 
nan

>  <ATP_Site>  (370) 
nan

>  <Peripheral>  (370) 
nan

>  <Num_H_Atoms_ProtBoundConf>  (370) 
nan

>  <Num_Resolved_Atoms>  (370) 
nan

>  <Num_Not_Resolved_Atoms>  (370) 
nan

$$$$
CHEMBL2207517
     RDKit          3D

  0  0  0  0  0  0  0  0  0  0999 V3000
M  V30 BEGIN CTAB
M  V30 COUNTS 53 57 0 0 0
M  V30 BEGIN ATOM
M  V30 1 C 1.006245 -2.099411 6.924168 0
M  V30 2 C 1.600712 -2.411591 5.598238 0
M  V30 3 C 2.658723 -1.750185 5.011776 0
M  V30 4 C 2.898865 -2.358196 3.773901 0
M  V30 5 C 3.958388 -1.982755 2.770221 0
M  V30 6 N 3.380799 -1.007906 1.906043 0
M  V30 7 C 4.212716 -0.498709 0.871617 0
M  V30 8 C 3.508374 0.670527 0.205387 0
M  V30 9 N 2.182567 0.399649 -0.229471 0
M  V30 10 C 1.284162 1.356277 -0.746808 0
M  V30 11 C 1.647531 2.672006 -0.894932 0
M  V30 12 Cl 3.211383 3.345107 -0.506742 0
M  V30 13 C 0.808230 3.635111 -1.384278 0
M  V30 14 N -0.454521 3.308525 -1.751875 0
M  V30 15 C -0.877412 2.026661 -1.631681 0
M  V30 16 N -2.068396 1.484194 -1.929979 0
M  V30 17 C -1.985059 0.178832 -1.630186 0
M  V30 18 C -2.980670 -0.881491 -1.754760 0
M  V30 19 C -2.922950 -2.224949 -1.455688 0
M  V30 20 N -4.106921 -2.789646 -1.749645 0
M  V30 21 N -4.912274 -1.829458 -2.228731 0
M  V30 22 C -6.290358 -1.990458 -2.674529 0
M  V30 23 C -7.234144 -1.772561 -1.505922 0
M  V30 24 F -8.515824 -1.928847 -1.948581 0
M  V30 25 F -6.925688 -2.565771 -0.437220 0
M  V30 26 C -4.251530 -0.656927 -2.242620 0
M  V30 27 N -0.750326 -0.032889 -1.160073 0
M  V30 28 C -0.005989 1.080934 -1.134628 0
M  V30 29 C 1.997554 -1.010885 -0.036002 0
M  V30 30 C 2.075080 -1.354751 1.438359 0
M  V30 31 N 1.964319 -3.345683 3.704179 0
M  V30 32 O 1.229886 -3.366479 4.750014 0
M  V30 33 H -0.001984 -2.562691 7.036832 0
M  V30 34 H 0.813022 -0.995868 7.048928 0
M  V30 35 H 1.623725 -2.397783 7.772810 0
M  V30 36 H 3.218080 -0.910908 5.415963 0
M  V30 37 H 4.849479 -1.588166 3.292102 0
M  V30 38 H 4.224570 -2.905789 2.233947 0
M  V30 39 H 4.465277 -1.304405 0.162346 0
M  V30 40 H 5.146998 -0.122911 1.376085 0
M  V30 41 H 4.162250 1.044734 -0.583995 0
M  V30 42 H 3.425534 1.438712 1.021403 0
M  V30 43 H 1.007882 4.673974 -1.531279 0
M  V30 44 H -2.899178 1.955293 -2.314538 0
M  V30 45 H -2.032741 -2.684030 -1.051360 0
M  V30 46 H -6.364523 -3.026036 -3.061629 0
M  V30 47 H -6.493729 -1.223523 -3.447839 0
M  V30 48 H -7.118811 -0.718587 -1.166620 0
M  V30 49 H -4.660112 0.300598 -2.582724 0
M  V30 50 H 0.962668 -1.269067 -0.354184 0
M  V30 51 H 2.685174 -1.643932 -0.639468 0
M  V30 52 H 1.959796 -2.459638 1.501610 0
M  V30 53 H 1.269221 -0.912228 2.019658 0
M  V30 END ATOM
M  V30 BEGIN BOND
M  V30 1 1 1 2
M  V30 2 2 2 3
M  V30 3 1 3 4
M  V30 4 1 4 5
M  V30 5 1 5 6
M  V30 6 1 6 7
M  V30 7 1 7 8
M  V30 8 1 8 9
M  V30 9 1 9 10
M  V30 10 2 10 11
M  V30 11 1 11 12
M  V30 12 1 11 13
M  V30 13 2 13 14
M  V30 14 1 14 15
M  V30 15 1 15 16
M  V30 16 1 16 17
M  V30 17 1 17 18
M  V30 18 1 18 19
M  V30 19 2 19 20
M  V30 20 1 20 21
M  V30 21 1 21 22
M  V30 22 1 22 23
M  V30 23 1 23 24
M  V30 24 1 23 25
M  V30 25 1 21 26
M  V30 26 2 17 27
M  V30 27 1 27 28
M  V30 28 1 9 29
M  V30 29 1 29 30
M  V30 30 2 4 31
M  V30 31 1 31 32
M  V30 32 1 32 2
M  V30 33 1 30 6
M  V30 34 1 28 10
M  V30 35 2 28 15
M  V30 36 2 26 18
M  V30 37 1 1 33
M  V30 38 1 1 34
M  V30 39 1 1 35
M  V30 40 1 3 36
M  V30 41 1 5 37
M  V30 42 1 5 38
M  V30 43 1 7 39
M  V30 44 1 7 40
M  V30 45 1 8 41
M  V30 46 1 8 42
M  V30 47 1 13 43
M  V30 48 1 16 44
M  V30 49 1 19 45
M  V30 50 1 22 46
M  V30 51 1 22 47
M  V30 52 1 23 48
M  V30 53 1 26 49
M  V30 54 1 29 50
M  V30 55 1 29 51
M  V30 56 1 30 52
M  V30 57 1 30 53
M  V30 END BOND
M  V30 END CTAB
M  END
>  <Dataset>  (371) 
ChEMBL_Kinases

>  <Ligand_Instance>  (371) 
nan

>  <PDB_ID>  (371) 
nan

>  <Standardized_SMILES>  (371) 
Cc1cc(CN2CCN(c3c(Cl)cnc4[nH]c(-c5cnn(CC(F)F)c5)nc34)CC2)no1

>  <Name>  (371) 
nan

>  <Pocket>  (371) 
nan

>  <ATP_Site>  (371) 
nan

>  <Peripheral>  (371) 
nan

>  <Num_H_Atoms_ProtBoundConf>  (371) 
nan

>  <Num_Resolved_Atoms>  (371) 
nan

>  <Num_Not_Resolved_Atoms>  (371) 
nan

$$$$
CHEMBL2207518
     RDKit          3D

  0  0  0  0  0  0  0  0  0  0999 V3000
M  V30 BEGIN CTAB
M  V30 COUNTS 53 57 0 0 0
M  V30 BEGIN ATOM
M  V30 1 C -1.072747 -0.437288 4.952529 0
M  V30 2 C -0.225795 -1.300437 4.092884 0
M  V30 3 C 1.155614 -1.302363 4.048435 0
M  V30 4 C 1.539391 -2.256818 3.114892 0
M  V30 5 C 2.897328 -2.633370 2.709374 0
M  V30 6 N 3.448882 -1.907840 1.618374 0
M  V30 7 C 3.560764 -0.496644 1.826648 0
M  V30 8 C 2.472221 0.296761 1.143421 0
M  V30 9 N 2.425519 0.005399 -0.261492 0
M  V30 10 C 1.656723 0.973936 -0.963100 0
M  V30 11 C 2.271122 2.098274 -1.469788 0
M  V30 12 Cl 3.975569 2.359704 -1.268617 0
M  V30 13 C 1.448662 2.980433 -2.133810 0
M  V30 14 N 0.118851 2.770010 -2.287132 0
M  V30 15 C -0.480939 1.669736 -1.790991 0
M  V30 16 N -1.759440 1.256224 -1.819645 0
M  V30 17 C -1.811172 0.077458 -1.167423 0
M  V30 18 C -3.042217 -0.686548 -0.989339 0
M  V30 19 C -4.272233 -0.291968 -1.462536 0
M  V30 20 N -5.154214 -1.246479 -1.106019 0
M  V30 21 C -6.581726 -1.287291 -1.374752 0
M  V30 22 N -4.506463 -2.197837 -0.438711 0
M  V30 23 C -3.205462 -1.894786 -0.343291 0
M  V30 24 C -2.164194 -2.698550 0.321436 0
M  V30 25 N -0.569743 -0.205350 -0.754816 0
M  V30 26 C 0.294299 0.744054 -1.112144 0
M  V30 27 C 3.143410 -1.179096 -0.695819 0
M  V30 28 C 2.919664 -2.270631 0.332738 0
M  V30 29 N 0.390106 -2.780875 2.644248 0
M  V30 30 O -0.620015 -2.201740 3.234658 0
M  V30 31 H -1.631752 0.236527 4.240679 0
M  V30 32 H -0.436932 0.221788 5.552875 0
M  V30 33 H -1.781275 -1.050168 5.545063 0
M  V30 34 H 1.836779 -0.686403 4.622263 0
M  V30 35 H 3.568080 -2.460033 3.588010 0
M  V30 36 H 2.927661 -3.708525 2.479467 0
M  V30 37 H 4.529334 -0.157293 1.399086 0
M  V30 38 H 3.526725 -0.298447 2.913609 0
M  V30 39 H 1.476945 0.171832 1.571897 0
M  V30 40 H 2.737937 1.375753 1.306264 0
M  V30 41 H 1.914810 3.881750 -2.545382 0
M  V30 42 H -2.516265 1.806002 -2.283371 0
M  V30 43 H -4.558942 0.588858 -2.016412 0
M  V30 44 H -6.818176 -0.881454 -2.384545 0
M  V30 45 H -6.948062 -2.333091 -1.361260 0
M  V30 46 H -7.071632 -0.629547 -0.634518 0
M  V30 47 H -2.535512 -2.979179 1.338414 0
M  V30 48 H -1.222577 -2.156653 0.441286 0
M  V30 49 H -2.015327 -3.690625 -0.194861 0
M  V30 50 H 4.225886 -0.958615 -0.771936 0
M  V30 51 H 2.795518 -1.540501 -1.679039 0
M  V30 52 H 3.474429 -3.163694 -0.022281 0
M  V30 53 H 1.856647 -2.558341 0.362082 0
M  V30 END ATOM
M  V30 BEGIN BOND
M  V30 1 1 1 2
M  V30 2 2 2 3
M  V30 3 1 3 4
M  V30 4 1 4 5
M  V30 5 1 5 6
M  V30 6 1 6 7
M  V30 7 1 7 8
M  V30 8 1 8 9
M  V30 9 1 9 10
M  V30 10 2 10 11
M  V30 11 1 11 12
M  V30 12 1 11 13
M  V30 13 2 13 14
M  V30 14 1 14 15
M  V30 15 1 15 16
M  V30 16 1 16 17
M  V30 17 1 17 18
M  V30 18 2 18 19
M  V30 19 1 19 20
M  V30 20 1 20 21
M  V30 21 1 20 22
M  V30 22 2 22 23
M  V30 23 1 23 24
M  V30 24 2 17 25
M  V30 25 1 25 26
M  V30 26 1 9 27
M  V30 27 1 27 28
M  V30 28 2 4 29
M  V30 29 1 29 30
M  V30 30 1 30 2
M  V30 31 1 28 6
M  V30 32 1 26 10
M  V30 33 2 26 15
M  V30 34 1 23 18
M  V30 35 1 1 31
M  V30 36 1 1 32
M  V30 37 1 1 33
M  V30 38 1 3 34
M  V30 39 1 5 35
M  V30 40 1 5 36
M  V30 41 1 7 37
M  V30 42 1 7 38
M  V30 43 1 8 39
M  V30 44 1 8 40
M  V30 45 1 13 41
M  V30 46 1 16 42
M  V30 47 1 19 43
M  V30 48 1 21 44
M  V30 49 1 21 45
M  V30 50 1 21 46
M  V30 51 1 24 47
M  V30 52 1 24 48
M  V30 53 1 24 49
M  V30 54 1 27 50
M  V30 55 1 27 51
M  V30 56 1 28 52
M  V30 57 1 28 53
M  V30 END BOND
M  V30 END CTAB
M  END
>  <Dataset>  (372) 
ChEMBL_Kinases

>  <Ligand_Instance>  (372) 
nan

>  <PDB_ID>  (372) 
nan

>  <Standardized_SMILES>  (372) 
Cc1cc(CN2CCN(c3c(Cl)cnc4[nH]c(-c5cn(C)nc5C)nc34)CC2)no1

>  <Name>  (372) 
nan

>  <Pocket>  (372) 
nan

>  <ATP_Site>  (372) 
nan

>  <Peripheral>  (372) 
nan

>  <Num_H_Atoms_ProtBoundConf>  (372) 
nan

>  <Num_Resolved_Atoms>  (372) 
nan

>  <Num_Not_Resolved_Atoms>  (372) 
nan

$$$$
CHEMBL2207993
     RDKit          3D

  0  0  0  0  0  0  0  0  0  0999 V3000
M  V30 BEGIN CTAB
M  V30 COUNTS 42 45 0 0 0
M  V30 BEGIN ATOM
M  V30 1 C -0.209413 -4.764248 3.270036 0
M  V30 2 C 0.925990 -4.210040 2.446008 0
M  V30 3 C 2.148319 -4.868570 2.098343 0
M  V30 4 S 2.964596 -3.490272 1.083789 0
M  V30 5 C 1.570181 -2.387443 1.329000 0
M  V30 6 C 1.595181 -1.038208 0.735153 0
M  V30 7 N 2.557029 -0.464077 -0.008339 0
M  V30 8 C 2.164543 0.798689 -0.350158 0
M  V30 9 C 2.964130 1.754981 -1.174264 0
M  V30 10 C 2.583678 1.524437 -2.642317 0
M  V30 11 C 1.131236 1.759243 -2.883149 0
M  V30 12 C 3.497721 2.314313 -3.554314 0
M  V30 13 N 0.949584 0.998410 0.190357 0
M  V30 14 C 0.595669 -0.133243 0.860639 0
M  V30 15 C -0.659244 -0.283334 1.572326 0
M  V30 16 C -1.924834 -0.217862 1.023267 0
M  V30 17 C -3.106180 -0.363116 1.715312 0
M  V30 18 C -3.076857 -0.596534 3.081399 0
M  V30 19 N -4.056043 -0.765250 3.937047 0
M  V30 20 C -4.064785 -0.957370 5.057474 0
M  V30 21 S -2.178732 -0.963899 5.344645 0
M  V30 22 C -1.849635 -0.666050 3.649234 0
M  V30 23 C -0.667595 -0.516149 2.930044 0
M  V30 24 N 0.688934 -2.982890 2.040265 0
M  V30 25 H -0.327054 -4.154560 4.194147 0
M  V30 26 H -1.159957 -4.775010 2.713790 0
M  V30 27 H 0.011810 -5.782276 3.609839 0
M  V30 28 H 2.242409 -5.940480 2.510897 0
M  V30 29 H 4.024420 1.474782 -1.054516 0
M  V30 30 H 2.808438 2.784296 -0.870279 0
M  V30 31 H 2.782676 0.452936 -2.892494 0
M  V30 32 H 0.521960 0.833895 -2.668136 0
M  V30 33 H 0.927525 2.025330 -3.931271 0
M  V30 34 H 0.770631 2.592154 -2.236133 0
M  V30 35 H 3.435858 3.399971 -3.405726 0
M  V30 36 H 3.244723 1.987924 -4.593484 0
M  V30 37 H 4.530837 1.922181 -3.387034 0
M  V30 38 H 0.428483 1.898804 0.070927 0
M  V30 39 H -1.963721 -0.032413 -0.063346 0
M  V30 40 H -4.031530 -0.282558 1.121661 0
M  V30 41 H -5.120872 -1.079730 5.632331 0
M  V30 42 H 0.194779 -0.599311 3.528745 0
M  V30 END ATOM
M  V30 BEGIN BOND
M  V30 1 1 1 2
M  V30 2 2 2 3
M  V30 3 1 3 4
M  V30 4 1 4 5
M  V30 5 1 5 6
M  V30 6 1 6 7
M  V30 7 2 7 8
M  V30 8 1 8 9
M  V30 9 1 9 10
M  V30 10 1 10 11
M  V30 11 1 10 12
M  V30 12 1 8 13
M  V30 13 1 13 14
M  V30 14 1 14 15
M  V30 15 2 15 16
M  V30 16 1 16 17
M  V30 17 2 17 18
M  V30 18 1 18 19
M  V30 19 2 19 20
M  V30 20 1 20 21
M  V30 21 1 21 22
M  V30 22 2 22 23
M  V30 23 2 5 24
M  V30 24 1 24 2
M  V30 25 2 14 6
M  V30 26 1 23 15
M  V30 27 1 22 18
M  V30 28 1 1 25
M  V30 29 1 1 26
M  V30 30 1 1 27
M  V30 31 1 3 28
M  V30 32 1 9 29
M  V30 33 1 9 30
M  V30 34 1 10 31
M  V30 35 1 11 32
M  V30 36 1 11 33
M  V30 37 1 11 34
M  V30 38 1 12 35
M  V30 39 1 12 36
M  V30 40 1 12 37
M  V30 41 1 13 38
M  V30 42 1 16 39
M  V30 43 1 17 40
M  V30 44 1 20 41
M  V30 45 1 23 42
M  V30 END BOND
M  V30 END CTAB
M  END
>  <Dataset>  (373) 
ChEMBL_Kinases

>  <Ligand_Instance>  (373) 
nan

>  <PDB_ID>  (373) 
nan

>  <Standardized_SMILES>  (373) 
Cc1csc(-c2nc(CC(C)C)[nH]c2-c2ccc3ncsc3c2)n1

>  <Name>  (373) 
nan

>  <Pocket>  (373) 
nan

>  <ATP_Site>  (373) 
nan

>  <Peripheral>  (373) 
nan

>  <Num_H_Atoms_ProtBoundConf>  (373) 
nan

>  <Num_Resolved_Atoms>  (373) 
nan

>  <Num_Not_Resolved_Atoms>  (373) 
nan

$$$$
CHEMBL2207840
     RDKit          3D

  0  0  0  0  0  0  0  0  0  0999 V3000
M  V30 BEGIN CTAB
M  V30 COUNTS 123 124 0 0 0
M  V30 BEGIN ATOM
M  V30 1 C 0.936506 -5.035374 -2.234362 0
M  V30 2 C 0.736511 -6.042240 -1.167815 0
M  V30 3 O 1.637794 -6.865500 -0.902059 0
M  V30 4 N -0.306216 -6.365664 -0.267831 0
M  V30 5 C -0.063459 -7.483198 0.637170 0
M  V30 6 C -1.257215 -8.386580 0.286313 0
M  V30 7 C -2.367774 -7.356242 0.427031 0
M  V30 8 C -1.648993 -6.053274 0.207632 0 CFG=1
M  V30 9 C -1.575157 -5.355328 1.551734 0
M  V30 10 O -2.726236 -5.461186 2.063414 0
M  V30 11 N -0.442857 -4.721152 2.115410 0
M  V30 12 C -0.722167 -4.172601 3.469052 0 CFG=1
M  V30 13 C 0.278570 -4.782833 4.370552 0
M  V30 14 C 0.307450 -4.438459 5.806439 0
M  V30 15 C -0.933789 -4.671547 6.588781 0
M  V30 16 C 0.972178 -3.169149 6.214181 0
M  V30 17 C -0.861570 -2.715728 3.461444 0
M  V30 18 O -1.225405 -2.481994 4.676335 0
M  V30 19 N -0.737803 -1.547663 2.608512 0
M  V30 20 C -1.060112 -0.246458 3.230285 0 CFG=1
M  V30 21 C 0.186460 0.452262 3.640755 0
M  V30 22 C 1.189787 0.804880 2.623420 0
M  V30 23 C 0.782644 1.845799 1.608942 0
M  V30 24 N 1.922512 1.963750 0.700602 0
M  V30 25 C 1.668278 2.945515 -0.243526 0
M  V30 26 O 0.534289 3.558927 -0.144742 0
M  V30 27 C 2.092937 3.732615 -1.448096 0
M  V30 28 C 1.085189 4.751538 -1.793800 0
M  V30 29 C 1.342658 5.545654 -3.001359 0
M  V30 30 C 2.501512 6.421134 -3.189282 0
M  V30 31 C 3.877941 5.924692 -3.276801 0
M  V30 32 C 4.763756 7.192878 -3.516337 0
M  V30 33 C 6.201215 6.756357 -3.657020 0
M  V30 34 C 6.728138 6.032184 -2.476969 0
M  V30 35 C 6.597402 4.630652 -2.498189 0
M  V30 36 C 7.085946 3.883327 -1.420147 0
M  V30 37 C 7.696796 4.501383 -0.334148 0
M  V30 38 C 7.826692 5.880829 -0.308755 0
M  V30 39 C 7.338191 6.590811 -1.379395 0
M  V30 40 C -2.060666 0.506100 2.479820 0
M  V30 41 O -2.637201 1.533841 2.977685 0
M  V30 42 N -2.507906 0.206825 1.164721 0
M  V30 43 C -3.480372 0.739297 0.269434 0 CFG=1
M  V30 44 C -3.140512 2.135562 -0.272812 0
M  V30 45 O -1.976460 2.194120 -0.968622 0
M  V30 46 C -3.903344 -0.147089 -0.821069 0
M  V30 47 O -4.798756 0.487581 -1.482660 0
M  V30 48 N -3.568973 -1.473893 -1.292461 0
M  V30 49 C -4.254612 -1.990305 -2.470247 0 CFG=2
M  V30 50 C -4.894218 -3.283529 -2.192763 0
M  V30 51 N -5.678371 -4.169377 -2.957665 0
M  V30 52 O -5.007447 -4.081478 -1.230408 0
M  V30 53 C -3.251750 -2.185584 -3.607870 0 CFG=1
M  V30 54 C -4.011702 -2.692459 -4.819734 0
M  V30 55 O -2.634736 -0.975674 -3.955637 0
M  V30 56 P -0.973220 -1.149797 -3.749176 0
M  V30 57 O -0.730856 -1.679301 -2.352804 0
M  V30 58 O -0.181486 0.358824 -3.942791 0
M  V30 59 O -0.333185 -2.277845 -4.848533 0
M  V30 60 H 0.689626 -5.478480 -3.225797 0
M  V30 61 H 2.012728 -4.724778 -2.289817 0
M  V30 62 H 0.275831 -4.180975 -1.977154 0
M  V30 63 H 0.845367 -8.043649 0.452952 0
M  V30 64 H -0.182531 -7.151800 1.695974 0
M  V30 65 H -1.166348 -8.628229 -0.787394 0
M  V30 66 H -1.356230 -9.228187 0.965300 0
M  V30 67 H -3.207621 -7.546910 -0.243881 0
M  V30 68 H -2.728091 -7.468230 1.473364 0
M  V30 69 H -2.182305 -5.338031 -0.450621 0
M  V30 70 H 0.423674 -4.709305 1.544775 0
M  V30 71 H -1.729588 -4.571807 3.790219 0
M  V30 72 H 1.310639 -4.518018 3.957782 0
M  V30 73 H 0.254508 -5.909897 4.224408 0
M  V30 74 H 1.045192 -5.255669 6.230841 0
M  V30 75 H -0.812898 -5.535505 7.264221 0
M  V30 76 H -1.164194 -3.813140 7.296988 0
M  V30 77 H -1.828465 -4.876517 5.953669 0
M  V30 78 H 0.339254 -2.495560 6.828311 0
M  V30 79 H 1.870178 -3.346235 6.907398 0
M  V30 80 H 1.358399 -2.577640 5.359559 0
M  V30 81 H -0.436779 -1.976139 1.713418 0
M  V30 82 H -1.570074 -0.481193 4.225101 0
M  V30 83 H 0.644970 -0.185262 4.460085 0
M  V30 84 H -0.052412 1.409937 4.212814 0
M  V30 85 H 1.678771 -0.076232 2.130636 0
M  V30 86 H 2.063687 1.278871 3.174947 0
M  V30 87 H -0.155649 1.681580 1.107453 0
M  V30 88 H 0.722820 2.868950 2.108809 0
M  V30 89 H 2.890956 1.705637 0.334296 0
M  V30 90 H 2.243746 3.037645 -2.293636 0
M  V30 91 H 3.049091 4.226779 -1.240874 0
M  V30 92 H 0.843072 5.434294 -0.924216 0
M  V30 93 H 0.079326 4.220143 -1.953889 0
M  V30 94 H 0.370134 6.106525 -3.308131 0
M  V30 95 H 1.382551 4.833314 -3.932806 0
M  V30 96 H 2.311123 7.020048 -4.134130 0
M  V30 97 H 2.476295 7.165435 -2.319095 0
M  V30 98 H 4.277673 5.522111 -2.355655 0
M  V30 99 H 4.075086 5.218796 -4.117020 0
M  V30 100 H 4.400782 7.639251 -4.440193 0
M  V30 101 H 4.681229 7.813311 -2.611572 0
M  V30 102 H 6.852431 7.646467 -3.831979 0
M  V30 103 H 6.320029 6.130320 -4.595173 0
M  V30 104 H 6.116606 4.168317 -3.350813 0
M  V30 105 H 7.008330 2.819877 -1.397736 0
M  V30 106 H 8.049963 3.872084 0.460114 0
M  V30 107 H 8.302567 6.337749 0.549688 0
M  V30 108 H 7.429298 7.685680 -1.378096 0
M  V30 109 H -1.978525 -0.623866 0.753638 0
M  V30 110 H -4.400607 0.982331 0.902874 0
M  V30 111 H -4.018865 2.374959 -0.935974 0
M  V30 112 H -3.175535 2.912649 0.511478 0
M  V30 113 H -1.987144 3.038150 -1.507077 0
M  V30 114 H -2.838589 -1.834709 -0.641482 0
M  V30 115 H -5.007502 -1.259696 -2.768962 0
M  V30 116 H -5.619521 -4.985529 -3.576941 0
M  V30 117 H -6.697132 -4.303522 -3.165064 0
M  V30 118 H -2.499705 -2.912085 -3.244606 0
M  V30 119 H -5.071583 -2.343524 -4.800130 0
M  V30 120 H -3.581331 -2.204860 -5.729130 0
M  V30 121 H -3.982283 -3.781645 -4.818086 0
M  V30 122 H 0.369246 0.572383 -3.152352 0
M  V30 123 H -0.556807 -3.205557 -4.591552 0
M  V30 END ATOM
M  V30 BEGIN BOND
M  V30 1 1 1 2
M  V30 2 2 2 3
M  V30 3 1 2 4
M  V30 4 1 4 5
M  V30 5 1 5 6
M  V30 6 1 6 7
M  V30 7 1 7 8
M  V30 8 1 8 9
M  V30 9 2 9 10
M  V30 10 1 9 11
M  V30 11 1 11 12
M  V30 12 1 12 13
M  V30 13 1 13 14
M  V30 14 1 14 15
M  V30 15 1 14 16
M  V30 16 1 12 17
M  V30 17 2 17 18
M  V30 18 1 17 19
M  V30 19 1 19 20
M  V30 20 1 20 21
M  V30 21 1 21 22
M  V30 22 1 22 23
M  V30 23 1 23 24
M  V30 24 1 24 25
M  V30 25 2 25 26
M  V30 26 1 25 27
M  V30 27 1 27 28
M  V30 28 1 28 29
M  V30 29 1 29 30
M  V30 30 1 30 31
M  V30 31 1 31 32
M  V30 32 1 32 33
M  V30 33 1 33 34
M  V30 34 2 34 35
M  V30 35 1 35 36
M  V30 36 2 36 37
M  V30 37 1 37 38
M  V30 38 2 38 39
M  V30 39 1 20 40
M  V30 40 2 40 41
M  V30 41 1 40 42
M  V30 42 1 42 43
M  V30 43 1 43 44
M  V30 44 1 44 45
M  V30 45 1 43 46
M  V30 46 2 46 47
M  V30 47 1 46 48
M  V30 48 1 48 49
M  V30 49 1 49 50
M  V30 50 1 50 51
M  V30 51 2 50 52
M  V30 52 1 49 53
M  V30 53 1 53 54
M  V30 54 1 53 55
M  V30 55 1 55 56
M  V30 56 2 56 57
M  V30 57 1 56 58
M  V30 58 1 56 59
M  V30 59 1 8 4
M  V30 60 1 39 34
M  V30 61 1 1 60
M  V30 62 1 1 61
M  V30 63 1 1 62
M  V30 64 1 5 63
M  V30 65 1 5 64
M  V30 66 1 6 65
M  V30 67 1 6 66
M  V30 68 1 7 67
M  V30 69 1 7 68
M  V30 70 1 8 69 CFG=3
M  V30 71 1 11 70
M  V30 72 1 12 71 CFG=1
M  V30 73 1 13 72
M  V30 74 1 13 73
M  V30 75 1 14 74
M  V30 76 1 15 75
M  V30 77 1 15 76
M  V30 78 1 15 77
M  V30 79 1 16 78
M  V30 80 1 16 79
M  V30 81 1 16 80
M  V30 82 1 19 81
M  V30 83 1 20 82 CFG=1
M  V30 84 1 21 83
M  V30 85 1 21 84
M  V30 86 1 22 85
M  V30 87 1 22 86
M  V30 88 1 23 87
M  V30 89 1 23 88
M  V30 90 1 24 89
M  V30 91 1 27 90
M  V30 92 1 27 91
M  V30 93 1 28 92
M  V30 94 1 28 93
M  V30 95 1 29 94
M  V30 96 1 29 95
M  V30 97 1 30 96
M  V30 98 1 30 97
M  V30 99 1 31 98
M  V30 100 1 31 99
M  V30 101 1 32 100
M  V30 102 1 32 101
M  V30 103 1 33 102
M  V30 104 1 33 103
M  V30 105 1 35 104
M  V30 106 1 36 105
M  V30 107 1 37 106
M  V30 108 1 38 107
M  V30 109 1 39 108
M  V30 110 1 42 109
M  V30 111 1 43 110 CFG=1
M  V30 112 1 44 111
M  V30 113 1 44 112
M  V30 114 1 45 113
M  V30 115 1 48 114
M  V30 116 1 49 115 CFG=3
M  V30 117 1 51 116
M  V30 118 1 51 117
M  V30 119 1 53 118 CFG=1
M  V30 120 1 54 119
M  V30 121 1 54 120
M  V30 122 1 54 121
M  V30 123 1 58 122
M  V30 124 1 59 123
M  V30 END BOND
M  V30 END CTAB
M  END
>  <Dataset>  (374) 
ChEMBL_Kinases

>  <Ligand_Instance>  (374) 
nan

>  <PDB_ID>  (374) 
nan

>  <Standardized_SMILES>  (374) 
CC(=O)N1CCC[C@H]1C(=O)N[C@@H](CC(C)C)C(=O)N[C@@H](CCCNC(=O)CCCCCCCc1ccccc1)C(=O)N[C@@H](CO)C(=O)N[C@H](C(N)=O)[C@@H](C)OP(=O)(O)O

>  <Name>  (374) 
nan

>  <Pocket>  (374) 
nan

>  <ATP_Site>  (374) 
nan

>  <Peripheral>  (374) 
nan

>  <Num_H_Atoms_ProtBoundConf>  (374) 
nan

>  <Num_Resolved_Atoms>  (374) 
nan

>  <Num_Not_Resolved_Atoms>  (374) 
nan

$$$$
CHEMBL2207841
     RDKit          3D

  0  0  0  0  0  0  0  0  0  0999 V3000
M  V30 BEGIN CTAB
M  V30 COUNTS 120 121 0 0 0
M  V30 BEGIN ATOM
M  V30 1 C -7.356526 -6.761108 -0.081189 0
M  V30 2 C -5.974639 -6.547913 0.382634 0
M  V30 3 O -5.780240 -6.913344 1.575108 0
M  V30 4 N -5.040125 -5.967482 -0.544475 0
M  V30 5 C -5.092856 -5.498630 -1.938307 0
M  V30 6 C -3.678966 -5.806685 -2.434588 0
M  V30 7 C -2.876907 -5.410599 -1.233759 0
M  V30 8 C -3.697285 -5.774189 -0.048911 0 CFG=1
M  V30 9 C -3.723022 -4.672777 0.965971 0
M  V30 10 O -4.980278 -4.435131 0.891889 0
M  V30 11 N -2.855543 -3.945924 1.838588 0
M  V30 12 C -3.537923 -2.926658 2.611413 0 CFG=1
M  V30 13 C -3.097520 -2.899061 4.030884 0
M  V30 14 C -3.314671 -4.125133 4.837935 0
M  V30 15 C -2.778089 -3.866876 6.251608 0
M  V30 16 C -2.778994 -5.400349 4.295973 0
M  V30 17 C -3.095456 -1.605457 2.007849 0
M  V30 18 O -3.696359 -0.558485 2.386993 0
M  V30 19 N -2.041803 -1.537452 1.049079 0
M  V30 20 C -1.634093 -0.276414 0.464475 0 CFG=1
M  V30 21 C -0.592227 0.460774 1.267583 0
M  V30 22 C 0.706131 -0.204292 1.479071 0
M  V30 23 C 1.531195 0.767335 2.288136 0
M  V30 24 O 0.518202 1.482662 2.471339 0
M  V30 25 N 2.857434 0.875598 2.691959 0
M  V30 26 C 3.204793 2.031400 3.487564 0
M  V30 27 C 2.902829 3.280342 2.648136 0
M  V30 28 C 3.243107 4.529452 3.397968 0
M  V30 29 C 2.924066 5.732747 2.484438 0
M  V30 30 C 1.498885 5.791113 2.059136 0
M  V30 31 C 1.041188 6.957338 1.291928 0
M  V30 32 C 1.617865 7.321911 -0.018390 0
M  V30 33 C 3.028798 7.710884 -0.085325 0
M  V30 34 C 3.182242 9.063188 0.267839 0
M  V30 35 C 4.386126 9.769074 0.280790 0
M  V30 36 C 5.545497 9.083472 -0.086621 0
M  V30 37 C 5.436550 7.775132 -0.434284 0
M  V30 38 C 4.236050 7.154394 -0.424097 0
M  V30 39 C -1.194212 -0.565790 -0.912546 0
M  V30 40 O -1.421118 -1.809062 -1.029593 0
M  V30 41 N -0.634013 0.152804 -2.015181 0
M  V30 42 C -0.343046 -0.571359 -3.230753 0 CFG=1
M  V30 43 C -1.022931 0.077539 -4.412401 0
M  V30 44 O -2.393040 0.058522 -4.163651 0
M  V30 45 C 1.124335 -0.753497 -3.419568 0
M  V30 46 O 1.853194 -0.233970 -2.503158 0
M  V30 47 N 1.826315 -1.415861 -4.459153 0
M  V30 48 C 3.260147 -1.492770 -4.466924 0 CFG=2
M  V30 49 C 3.904188 -0.952473 -5.684674 0
M  V30 50 N 5.330431 -1.111056 -5.523143 0
M  V30 51 O 4.086299 -0.429437 -6.810172 0
M  V30 52 C 3.755542 -2.917138 -4.309010 0 CFG=1
M  V30 53 C 3.286642 -3.446797 -2.951351 0
M  V30 54 O 3.322729 -3.754996 -5.304609 0
M  V30 55 P 4.591746 -4.527281 -6.066659 0
M  V30 56 O 5.891526 -4.460485 -5.277516 0
M  V30 57 O 4.247894 -6.172098 -6.304834 0
M  V30 58 O 4.922915 -3.827230 -7.567438 0
M  V30 59 H -7.487548 -6.439261 -1.157724 0
M  V30 60 H -7.669672 -7.834389 -0.065674 0
M  V30 61 H -8.106533 -6.215865 0.530891 0
M  V30 62 H -5.212704 -4.395976 -1.999525 0
M  V30 63 H -5.858007 -6.041611 -2.524692 0
M  V30 64 H -3.454854 -5.218384 -3.347534 0
M  V30 65 H -3.558951 -6.907235 -2.585548 0
M  V30 66 H -1.861044 -5.869591 -1.225347 0
M  V30 67 H -2.814140 -4.297487 -1.255124 0
M  V30 68 H -3.283770 -6.731502 0.362199 0
M  V30 69 H -1.937351 -4.383834 1.647599 0
M  V30 70 H -4.617689 -2.954432 2.470997 0
M  V30 71 H -3.663276 -2.073196 4.558531 0
M  V30 72 H -2.038503 -2.530275 4.071358 0
M  V30 73 H -4.420229 -4.282706 4.986432 0
M  V30 74 H -3.500617 -4.143798 7.034396 0
M  V30 75 H -2.537394 -2.805302 6.394403 0
M  V30 76 H -1.817521 -4.435833 6.428387 0
M  V30 77 H -3.400043 -5.896028 3.545873 0
M  V30 78 H -1.764598 -5.226824 3.858821 0
M  V30 79 H -2.588058 -6.151739 5.112350 0
M  V30 80 H -1.552823 -2.442400 0.770900 0
M  V30 81 H -2.498174 0.458047 0.478274 0
M  V30 82 H -1.079274 0.549439 2.293292 0
M  V30 83 H -0.534744 1.480778 0.882334 0
M  V30 84 H 1.279249 -0.472763 0.585669 0
M  V30 85 H 0.615689 -1.096537 2.115431 0
M  V30 86 H 3.327982 0.012878 2.280982 0
M  V30 87 H 4.235590 2.011872 3.830491 0
M  V30 88 H 2.551283 2.038838 4.388311 0
M  V30 89 H 1.806260 3.285650 2.510007 0
M  V30 90 H 3.417863 3.240388 1.692969 0
M  V30 91 H 4.351439 4.599265 3.557067 0
M  V30 92 H 2.727717 4.605105 4.366328 0
M  V30 93 H 3.506439 5.458407 1.548950 0
M  V30 94 H 3.245180 6.685693 2.924921 0
M  V30 95 H 1.207209 4.824691 1.512175 0
M  V30 96 H 0.852788 5.727479 2.984759 0
M  V30 97 H -0.090579 6.931846 1.182009 0
M  V30 98 H 1.176747 7.869677 1.963120 0
M  V30 99 H 0.998909 8.145630 -0.467031 0
M  V30 100 H 1.437883 6.472114 -0.772545 0
M  V30 101 H 2.364763 9.736882 0.580024 0
M  V30 102 H 4.494210 10.790127 0.550062 0
M  V30 103 H 6.517418 9.522540 -0.109710 0
M  V30 104 H 6.237707 7.092369 -0.744739 0
M  V30 105 H 4.037962 6.100472 -0.690149 0
M  V30 106 H -0.538966 1.142759 -1.707091 0
M  V30 107 H -0.771702 -1.586046 -3.123661 0
M  V30 108 H -0.698682 1.129518 -4.577694 0
M  V30 109 H -0.860353 -0.542007 -5.330968 0
M  V30 110 H -2.782819 0.969089 -4.127328 0
M  V30 111 H 1.206472 -1.822842 -5.192204 0
M  V30 112 H 3.662316 -0.932372 -3.580212 0
M  V30 113 H 6.240337 -1.269814 -5.021193 0
M  V30 114 H 6.129907 -1.282888 -4.848010 0
M  V30 115 H 4.864540 -2.897174 -4.268344 0
M  V30 116 H 4.065737 -3.238873 -2.222900 0
M  V30 117 H 2.327264 -2.939032 -2.677483 0
M  V30 118 H 3.084090 -4.518517 -2.976250 0
M  V30 119 H 3.593548 -6.286561 -7.033855 0
M  V30 120 H 5.365481 -4.478849 -8.181029 0
M  V30 END ATOM
M  V30 BEGIN BOND
M  V30 1 1 1 2
M  V30 2 2 2 3
M  V30 3 1 2 4
M  V30 4 1 4 5
M  V30 5 1 5 6
M  V30 6 1 6 7
M  V30 7 1 7 8
M  V30 8 1 8 9
M  V30 9 2 9 10
M  V30 10 1 9 11
M  V30 11 1 11 12
M  V30 12 1 12 13
M  V30 13 1 13 14
M  V30 14 1 14 15
M  V30 15 1 14 16
M  V30 16 1 12 17
M  V30 17 2 17 18
M  V30 18 1 17 19
M  V30 19 1 19 20
M  V30 20 1 20 21
M  V30 21 1 21 22
M  V30 22 1 22 23
M  V30 23 2 23 24
M  V30 24 1 23 25
M  V30 25 1 25 26
M  V30 26 1 26 27
M  V30 27 1 27 28
M  V30 28 1 28 29
M  V30 29 1 29 30
M  V30 30 1 30 31
M  V30 31 1 31 32
M  V30 32 1 32 33
M  V30 33 2 33 34
M  V30 34 1 34 35
M  V30 35 2 35 36
M  V30 36 1 36 37
M  V30 37 2 37 38
M  V30 38 1 20 39
M  V30 39 2 39 40
M  V30 40 1 39 41
M  V30 41 1 41 42
M  V30 42 1 42 43
M  V30 43 1 43 44
M  V30 44 1 42 45
M  V30 45 2 45 46
M  V30 46 1 45 47
M  V30 47 1 47 48
M  V30 48 1 48 49
M  V30 49 1 49 50
M  V30 50 2 49 51
M  V30 51 1 48 52
M  V30 52 1 52 53
M  V30 53 1 52 54
M  V30 54 1 54 55
M  V30 55 2 55 56
M  V30 56 1 55 57
M  V30 57 1 55 58
M  V30 58 1 8 4
M  V30 59 1 38 33
M  V30 60 1 1 59
M  V30 61 1 1 60
M  V30 62 1 1 61
M  V30 63 1 5 62
M  V30 64 1 5 63
M  V30 65 1 6 64
M  V30 66 1 6 65
M  V30 67 1 7 66
M  V30 68 1 7 67
M  V30 69 1 8 68 CFG=1
M  V30 70 1 11 69
M  V30 71 1 12 70 CFG=1
M  V30 72 1 13 71
M  V30 73 1 13 72
M  V30 74 1 14 73
M  V30 75 1 15 74
M  V30 76 1 15 75
M  V30 77 1 15 76
M  V30 78 1 16 77
M  V30 79 1 16 78
M  V30 80 1 16 79
M  V30 81 1 19 80
M  V30 82 1 20 81 CFG=3
M  V30 83 1 21 82
M  V30 84 1 21 83
M  V30 85 1 22 84
M  V30 86 1 22 85
M  V30 87 1 25 86
M  V30 88 1 26 87
M  V30 89 1 26 88
M  V30 90 1 27 89
M  V30 91 1 27 90
M  V30 92 1 28 91
M  V30 93 1 28 92
M  V30 94 1 29 93
M  V30 95 1 29 94
M  V30 96 1 30 95
M  V30 97 1 30 96
M  V30 98 1 31 97
M  V30 99 1 31 98
M  V30 100 1 32 99
M  V30 101 1 32 100
M  V30 102 1 34 101
M  V30 103 1 35 102
M  V30 104 1 36 103
M  V30 105 1 37 104
M  V30 106 1 38 105
M  V30 107 1 41 106
M  V30 108 1 42 107 CFG=1
M  V30 109 1 43 108
M  V30 110 1 43 109
M  V30 111 1 44 110
M  V30 112 1 47 111
M  V30 113 1 48 112 CFG=1
M  V30 114 1 50 113
M  V30 115 1 50 114
M  V30 116 1 52 115 CFG=1
M  V30 117 1 53 116
M  V30 118 1 53 117
M  V30 119 1 53 118
M  V30 120 1 57 119
M  V30 121 1 58 120
M  V30 END BOND
M  V30 END CTAB
M  END
>  <Dataset>  (375) 
ChEMBL_Kinases

>  <Ligand_Instance>  (375) 
nan

>  <PDB_ID>  (375) 
nan

>  <Standardized_SMILES>  (375) 
CC(=O)N1CCC[C@H]1C(=O)N[C@@H](CC(C)C)C(=O)N[C@@H](CCC(=O)NCCCCCCCc1ccccc1)C(=O)N[C@@H](CO)C(=O)N[C@H](C(N)=O)[C@@H](C)OP(=O)(O)O

>  <Name>  (375) 
nan

>  <Pocket>  (375) 
nan

>  <ATP_Site>  (375) 
nan

>  <Peripheral>  (375) 
nan

>  <Num_H_Atoms_ProtBoundConf>  (375) 
nan

>  <Num_Resolved_Atoms>  (375) 
nan

>  <Num_Not_Resolved_Atoms>  (375) 
nan

$$$$
CHEMBL2207842
     RDKit          3D

  0  0  0  0  0  0  0  0  0  0999 V3000
M  V30 BEGIN CTAB
M  V30 COUNTS 120 121 0 0 0
M  V30 BEGIN ATOM
M  V30 1 C 7.914917 -1.383067 0.060127 0
M  V30 2 C 6.523093 -0.991844 0.472521 0
M  V30 3 O 5.730841 -1.838495 -0.076636 0
M  V30 4 N 6.217283 0.118734 1.312630 0
M  V30 5 C 6.944936 1.151366 2.017535 0
M  V30 6 C 6.192609 1.263062 3.354055 0
M  V30 7 C 4.766122 1.097472 2.923920 0
M  V30 8 C 4.798966 0.363326 1.597111 0 CFG=1
M  V30 9 C 4.184405 1.173151 0.526000 0
M  V30 10 O 4.918091 2.207378 0.425954 0
M  V30 11 N 3.136805 1.197377 -0.366986 0
M  V30 12 C 2.370297 1.748375 -1.377269 0 CFG=1
M  V30 13 C 2.579480 1.226568 -2.773999 0
M  V30 14 C 3.947930 1.379566 -3.332701 0
M  V30 15 C 5.056582 0.709795 -2.612005 0
M  V30 16 C 3.894310 0.937119 -4.805533 0
M  V30 17 C 0.904121 1.744736 -1.161435 0
M  V30 18 O 0.340156 2.349474 -2.139666 0
M  V30 19 N 0.055534 1.222360 -0.133409 0
M  V30 20 C -1.365969 1.420798 -0.285708 0 CFG=1
M  V30 21 C -2.061687 0.083749 -0.367600 0
M  V30 22 C -1.594021 -0.742608 -1.500948 0
M  V30 23 O -0.645221 -0.560241 -2.281300 0
M  V30 24 N -2.342518 -1.954418 -1.779899 0
M  V30 25 C -1.906172 -2.727271 -2.894508 0
M  V30 26 C -0.608001 -3.383316 -2.884013 0
M  V30 27 C -0.470645 -4.543361 -1.900212 0
M  V30 28 C 0.872540 -5.159411 -2.095946 0
M  V30 29 C 2.068669 -4.406156 -1.706947 0
M  V30 30 C 2.461700 -4.345487 -0.289979 0
M  V30 31 C 1.604389 -3.900124 0.790705 0
M  V30 32 C 1.097244 -2.508108 0.689252 0
M  V30 33 C 0.279575 -2.193598 1.941212 0
M  V30 34 C 0.951221 -1.507984 2.965499 0
M  V30 35 C 0.407945 -1.170848 4.175274 0
M  V30 36 C -0.909479 -1.541666 4.395019 0
M  V30 37 C -1.591565 -2.217123 3.402894 0
M  V30 38 C -1.018005 -2.538573 2.203257 0
M  V30 39 C -1.933223 2.262043 0.801243 0
M  V30 40 O -1.427352 2.777261 1.852178 0
M  V30 41 N -3.337342 2.512432 0.565022 0
M  V30 42 C -4.255745 3.264550 1.362771 0 CFG=1
M  V30 43 C -4.486664 4.659064 0.756348 0
M  V30 44 O -5.389090 5.312185 1.589377 0
M  V30 45 C -5.576354 2.633595 1.562699 0
M  V30 46 O -6.585098 3.040826 2.253745 0
M  V30 47 N -5.947027 1.396994 0.970982 0
M  V30 48 C -7.105529 0.541408 0.946635 0 CFG=2
M  V30 49 C -6.842299 -0.813248 1.432307 0
M  V30 50 N -7.499821 -2.041259 1.643568 0
M  V30 51 O -5.605917 -0.583867 1.675436 0
M  V30 52 C -7.682750 0.587321 -0.465219 0 CFG=1
M  V30 53 C -8.032596 2.057258 -0.708659 0
M  V30 54 O -6.703163 0.150978 -1.329951 0
M  V30 55 P -7.217973 -1.158961 -2.265849 0
M  V30 56 O -6.316279 -2.352852 -2.078012 0
M  V30 57 O -8.808782 -1.632903 -1.876750 0
M  V30 58 O -7.201243 -0.617303 -3.886928 0
M  V30 59 H 8.111910 -2.380044 0.530271 0
M  V30 60 H 7.979149 -1.393955 -1.027202 0
M  V30 61 H 8.646924 -0.695524 0.526033 0
M  V30 62 H 6.950274 2.109388 1.500031 0
M  V30 63 H 7.979059 0.884903 2.270462 0
M  V30 64 H 6.404969 2.308713 3.718929 0
M  V30 65 H 6.556986 0.507298 4.063803 0
M  V30 66 H 4.229609 0.520935 3.712082 0
M  V30 67 H 4.357242 2.128602 2.820064 0
M  V30 68 H 4.235621 -0.582088 1.734654 0
M  V30 69 H 2.627145 0.269597 -0.199116 0
M  V30 70 H 2.671771 2.835259 -1.477420 0
M  V30 71 H 1.939793 1.905378 -3.391776 0
M  V30 72 H 2.121343 0.238616 -2.958693 0
M  V30 73 H 4.235024 2.464674 -3.415331 0
M  V30 74 H 4.782572 -0.189620 -2.032532 0
M  V30 75 H 5.669868 1.450944 -2.081017 0
M  V30 76 H 5.767831 0.299328 -3.398110 0
M  V30 77 H 4.738411 1.400196 -5.344724 0
M  V30 78 H 2.914544 1.273346 -5.187932 0
M  V30 79 H 3.920446 -0.156645 -4.825366 0
M  V30 80 H 0.630227 0.762132 0.590032 0
M  V30 81 H -1.590875 1.933417 -1.235847 0
M  V30 82 H -3.159556 0.192531 -0.507130 0
M  V30 83 H -1.885916 -0.471082 0.563611 0
M  V30 84 H -3.165969 -2.200820 -1.155529 0
M  V30 85 H -1.931306 -2.048447 -3.827921 0
M  V30 86 H -2.713996 -3.480050 -3.185859 0
M  V30 87 H 0.227991 -2.653640 -2.720582 0
M  V30 88 H -0.405639 -3.808374 -3.898405 0
M  V30 89 H -1.239000 -5.308692 -2.195681 0
M  V30 90 H -0.692902 -4.197959 -0.892679 0
M  V30 91 H 0.816406 -6.156199 -1.532997 0
M  V30 92 H 0.927705 -5.455836 -3.196345 0
M  V30 93 H 1.996983 -3.377348 -2.158521 0
M  V30 94 H 3.001063 -4.807682 -2.258383 0
M  V30 95 H 3.396349 -3.661900 -0.273680 0
M  V30 96 H 2.900900 -5.378812 -0.004414 0
M  V30 97 H 0.718248 -4.611152 0.899851 0
M  V30 98 H 2.120152 -4.064492 1.798207 0
M  V30 99 H 1.917287 -1.758057 0.696374 0
M  V30 100 H 0.478747 -2.322195 -0.174516 0
M  V30 101 H 1.988807 -1.206321 2.815171 0
M  V30 102 H 0.987569 -0.639957 4.920637 0
M  V30 103 H -1.328929 -1.273846 5.348899 0
M  V30 104 H -2.616205 -2.505369 3.579289 0
M  V30 105 H -1.503362 -3.065929 1.390433 0
M  V30 106 H -3.898883 2.172867 -0.251344 0
M  V30 107 H -3.786778 3.482433 2.343845 0
M  V30 108 H -4.936109 4.588762 -0.246400 0
M  V30 109 H -3.536828 5.210293 0.787347 0
M  V30 110 H -5.229753 5.148996 2.560540 0
M  V30 111 H -5.292797 0.854318 0.365071 0
M  V30 112 H -7.932220 0.960459 1.593383 0
M  V30 113 H -7.582555 -2.743146 0.889613 0
M  V30 114 H -7.875710 -2.136006 2.632564 0
M  V30 115 H -8.618322 0.012535 -0.518363 0
M  V30 116 H -8.335359 2.241384 -1.745946 0
M  V30 117 H -8.885454 2.327547 -0.068663 0
M  V30 118 H -7.149046 2.648058 -0.402318 0
M  V30 119 H -9.419863 -1.538636 -2.650806 0
M  V30 120 H -6.442666 0.024059 -3.985997 0
M  V30 END ATOM
M  V30 BEGIN BOND
M  V30 1 1 1 2
M  V30 2 2 2 3
M  V30 3 1 2 4
M  V30 4 1 4 5
M  V30 5 1 5 6
M  V30 6 1 6 7
M  V30 7 1 7 8
M  V30 8 1 8 9
M  V30 9 2 9 10
M  V30 10 1 9 11
M  V30 11 1 11 12
M  V30 12 1 12 13
M  V30 13 1 13 14
M  V30 14 1 14 15
M  V30 15 1 14 16
M  V30 16 1 12 17
M  V30 17 2 17 18
M  V30 18 1 17 19
M  V30 19 1 19 20
M  V30 20 1 20 21
M  V30 21 1 21 22
M  V30 22 2 22 23
M  V30 23 1 22 24
M  V30 24 1 24 25
M  V30 25 1 25 26
M  V30 26 1 26 27
M  V30 27 1 27 28
M  V30 28 1 28 29
M  V30 29 1 29 30
M  V30 30 1 30 31
M  V30 31 1 31 32
M  V30 32 1 32 33
M  V30 33 2 33 34
M  V30 34 1 34 35
M  V30 35 2 35 36
M  V30 36 1 36 37
M  V30 37 2 37 38
M  V30 38 1 20 39
M  V30 39 2 39 40
M  V30 40 1 39 41
M  V30 41 1 41 42
M  V30 42 1 42 43
M  V30 43 1 43 44
M  V30 44 1 42 45
M  V30 45 2 45 46
M  V30 46 1 45 47
M  V30 47 1 47 48
M  V30 48 1 48 49
M  V30 49 1 49 50
M  V30 50 2 49 51
M  V30 51 1 48 52
M  V30 52 1 52 53
M  V30 53 1 52 54
M  V30 54 1 54 55
M  V30 55 2 55 56
M  V30 56 1 55 57
M  V30 57 1 55 58
M  V30 58 1 8 4
M  V30 59 1 38 33
M  V30 60 1 1 59
M  V30 61 1 1 60
M  V30 62 1 1 61
M  V30 63 1 5 62
M  V30 64 1 5 63
M  V30 65 1 6 64
M  V30 66 1 6 65
M  V30 67 1 7 66
M  V30 68 1 7 67
M  V30 69 1 8 68 CFG=1
M  V30 70 1 11 69
M  V30 71 1 12 70 CFG=3
M  V30 72 1 13 71
M  V30 73 1 13 72
M  V30 74 1 14 73
M  V30 75 1 15 74
M  V30 76 1 15 75
M  V30 77 1 15 76
M  V30 78 1 16 77
M  V30 79 1 16 78
M  V30 80 1 16 79
M  V30 81 1 19 80
M  V30 82 1 20 81 CFG=3
M  V30 83 1 21 82
M  V30 84 1 21 83
M  V30 85 1 24 84
M  V30 86 1 25 85
M  V30 87 1 25 86
M  V30 88 1 26 87
M  V30 89 1 26 88
M  V30 90 1 27 89
M  V30 91 1 27 90
M  V30 92 1 28 91
M  V30 93 1 28 92
M  V30 94 1 29 93
M  V30 95 1 29 94
M  V30 96 1 30 95
M  V30 97 1 30 96
M  V30 98 1 31 97
M  V30 99 1 31 98
M  V30 100 1 32 99
M  V30 101 1 32 100
M  V30 102 1 34 101
M  V30 103 1 35 102
M  V30 104 1 36 103
M  V30 105 1 37 104
M  V30 106 1 38 105
M  V30 107 1 41 106
M  V30 108 1 42 107 CFG=1
M  V30 109 1 43 108
M  V30 110 1 43 109
M  V30 111 1 44 110
M  V30 112 1 47 111
M  V30 113 1 48 112 CFG=1
M  V30 114 1 50 113
M  V30 115 1 50 114
M  V30 116 1 52 115 CFG=1
M  V30 117 1 53 116
M  V30 118 1 53 117
M  V30 119 1 53 118
M  V30 120 1 57 119
M  V30 121 1 58 120
M  V30 END BOND
M  V30 END CTAB
M  END
>  <Dataset>  (376) 
ChEMBL_Kinases

>  <Ligand_Instance>  (376) 
nan

>  <PDB_ID>  (376) 
nan

>  <Standardized_SMILES>  (376) 
CC(=O)N1CCC[C@H]1C(=O)N[C@@H](CC(C)C)C(=O)N[C@@H](CC(=O)NCCCCCCCCc1ccccc1)C(=O)N[C@@H](CO)C(=O)N[C@H](C(N)=O)[C@@H](C)OP(=O)(O)O

>  <Name>  (376) 
nan

>  <Pocket>  (376) 
nan

>  <ATP_Site>  (376) 
nan

>  <Peripheral>  (376) 
nan

>  <Num_H_Atoms_ProtBoundConf>  (376) 
nan

>  <Num_Resolved_Atoms>  (376) 
nan

>  <Num_Not_Resolved_Atoms>  (376) 
nan

$$$$
CHEMBL2207989
     RDKit          3D

  0  0  0  0  0  0  0  0  0  0999 V3000
M  V30 BEGIN CTAB
M  V30 COUNTS 33 36 0 0 0
M  V30 BEGIN ATOM
M  V30 1 C -0.180365 -0.411943 4.608839 0
M  V30 2 C 0.862142 -0.790423 3.640510 0
M  V30 3 C 2.179316 -1.279501 4.146898 0
M  V30 4 S 3.119667 -1.609791 2.601055 0
M  V30 5 C 1.647939 -1.058804 1.568939 0
M  V30 6 C 1.877664 -1.127781 0.081059 0
M  V30 7 N 2.930112 -1.506853 -0.624351 0
M  V30 8 C 2.622477 -1.380098 -1.935870 0
M  V30 9 C 3.592559 -1.724121 -3.010481 0
M  V30 10 N 1.352372 -0.913423 -1.979933 0
M  V30 11 C 0.865662 -0.747487 -0.744843 0
M  V30 12 C -0.468130 -0.260649 -0.436266 0
M  V30 13 C -0.806528 0.895914 0.249624 0
M  V30 14 C -2.077521 1.300989 0.508138 0
M  V30 15 C -3.156411 0.551489 0.084501 0
M  V30 16 N -4.441983 0.794123 0.247760 0
M  V30 17 C -5.354775 0.178737 -0.100059 0
M  V30 18 S -4.441385 -1.274894 -0.969845 0
M  V30 19 C -2.850641 -0.600819 -0.598185 0
M  V30 20 C -1.555753 -1.018680 -0.864923 0
M  V30 21 N 0.868500 -0.779960 2.334733 0
M  V30 22 H -0.410512 -1.194962 5.360882 0
M  V30 23 H 0.124224 0.494438 5.205179 0
M  V30 24 H -1.115895 -0.211446 4.072419 0
M  V30 25 H 2.335015 -1.348490 5.393539 0
M  V30 26 H 4.611984 -1.432125 -2.701151 0
M  V30 27 H 3.304731 -1.180482 -3.929125 0
M  V30 28 H 3.610767 -2.826376 -3.169255 0
M  V30 29 H 0.885545 -0.732119 -2.904301 0
M  V30 30 H 0.084765 1.454654 0.563191 0
M  V30 31 H -2.129238 2.230586 1.056667 0
M  V30 32 H -6.448379 0.478684 0.093668 0
M  V30 33 H -1.496945 -1.950459 -1.413909 0
M  V30 END ATOM
M  V30 BEGIN BOND
M  V30 1 1 1 2
M  V30 2 2 2 3
M  V30 3 1 3 4
M  V30 4 1 4 5
M  V30 5 1 5 6
M  V30 6 1 6 7
M  V30 7 2 7 8
M  V30 8 1 8 9
M  V30 9 1 8 10
M  V30 10 1 10 11
M  V30 11 1 11 12
M  V30 12 2 12 13
M  V30 13 1 13 14
M  V30 14 2 14 15
M  V30 15 1 15 16
M  V30 16 2 16 17
M  V30 17 1 17 18
M  V30 18 1 18 19
M  V30 19 2 19 20
M  V30 20 2 5 21
M  V30 21 1 21 2
M  V30 22 2 11 6
M  V30 23 1 20 12
M  V30 24 1 19 15
M  V30 25 1 1 22
M  V30 26 1 1 23
M  V30 27 1 1 24
M  V30 28 1 3 25
M  V30 29 1 9 26
M  V30 30 1 9 27
M  V30 31 1 9 28
M  V30 32 1 10 29
M  V30 33 1 13 30
M  V30 34 1 14 31
M  V30 35 1 17 32
M  V30 36 1 20 33
M  V30 END BOND
M  V30 END CTAB
M  END
>  <Dataset>  (377) 
ChEMBL_Kinases

>  <Ligand_Instance>  (377) 
nan

>  <PDB_ID>  (377) 
nan

>  <Standardized_SMILES>  (377) 
Cc1csc(-c2nc(C)[nH]c2-c2ccc3ncsc3c2)n1

>  <Name>  (377) 
nan

>  <Pocket>  (377) 
nan

>  <ATP_Site>  (377) 
nan

>  <Peripheral>  (377) 
nan

>  <Num_H_Atoms_ProtBoundConf>  (377) 
nan

>  <Num_Resolved_Atoms>  (377) 
nan

>  <Num_Not_Resolved_Atoms>  (377) 
nan

$$$$
CHEMBL220799
     RDKit          3D

  0  0  0  0  0  0  0  0  0  0999 V3000
M  V30 BEGIN CTAB
M  V30 COUNTS 36 41 0 0 0
M  V30 BEGIN ATOM
M  V30 1 O 0.512470 -1.750455 4.146130 0
M  V30 2 C 0.284483 -1.831407 2.946643 0
M  V30 3 N -0.118967 -3.139976 2.593293 0
M  V30 4 C -0.409654 -3.206571 1.198603 0
M  V30 5 C -0.095825 -1.813286 0.717497 0
M  V30 6 C 0.296158 -1.003335 1.756664 0
M  V30 7 C 0.634116 0.306455 1.653888 0
M  V30 8 C 1.038411 1.268316 2.523272 0
M  V30 9 C 1.295271 1.408421 3.848729 0
M  V30 10 C 1.710081 2.579403 4.440820 0
M  V30 11 C 1.891460 3.709950 3.686110 0
M  V30 12 C 1.638223 3.599022 2.335009 0
M  V30 13 C 1.219708 2.400610 1.765408 0
M  V30 14 N 0.936388 2.142173 0.476126 0
M  V30 15 C 0.578008 0.865991 0.399057 0
M  V30 16 C 0.181636 0.042473 -0.648777 0
M  V30 17 S 0.045055 0.544310 -2.310035 0
M  V30 18 C -0.507813 -1.141960 -2.897920 0
M  V30 19 C -0.822447 -1.527387 -4.192349 0
M  V30 20 C -1.202518 -2.835277 -4.366658 0
M  V30 21 C -1.230915 -3.622761 -3.242393 0
M  V30 22 C -0.909872 -3.176958 -2.007909 0
M  V30 23 C -0.518683 -1.888054 -1.732545 0
M  V30 24 C -0.159533 -1.261317 -0.575857 0
M  V30 25 H -0.267571 -4.075014 3.055575 0
M  V30 26 H -1.466556 -3.468482 0.984534 0
M  V30 27 H 0.331552 -3.865902 0.709022 0
M  V30 28 H 1.171609 0.566635 4.483825 0
M  V30 29 H 1.896289 2.615040 5.509609 0
M  V30 30 H 2.218080 4.605390 4.195847 0
M  V30 31 H 1.780419 4.487911 1.739124 0
M  V30 32 H 0.998692 2.852296 -0.309661 0
M  V30 33 H -0.756905 -0.802776 -4.985461 0
M  V30 34 H -1.438602 -3.095867 -5.384772 0
M  V30 35 H -1.543424 -4.659161 -3.450711 0
M  V30 36 H -0.995160 -3.955319 -1.264755 0
M  V30 END ATOM
M  V30 BEGIN BOND
M  V30 1 2 1 2
M  V30 2 1 2 3
M  V30 3 1 3 4
M  V30 4 1 4 5
M  V30 5 2 5 6
M  V30 6 1 6 7
M  V30 7 1 7 8
M  V30 8 2 8 9
M  V30 9 1 9 10
M  V30 10 2 10 11
M  V30 11 1 11 12
M  V30 12 2 12 13
M  V30 13 1 13 14
M  V30 14 1 14 15
M  V30 15 1 15 16
M  V30 16 1 16 17
M  V30 17 1 17 18
M  V30 18 2 18 19
M  V30 19 1 19 20
M  V30 20 2 20 21
M  V30 21 1 21 22
M  V30 22 2 22 23
M  V30 23 1 23 24
M  V30 24 1 6 2
M  V30 25 2 15 7
M  V30 26 2 24 16
M  V30 27 1 24 5
M  V30 28 1 13 8
M  V30 29 1 23 18
M  V30 30 1 3 25
M  V30 31 1 4 26
M  V30 32 1 4 27
M  V30 33 1 9 28
M  V30 34 1 10 29
M  V30 35 1 11 30
M  V30 36 1 12 31
M  V30 37 1 14 32
M  V30 38 1 19 33
M  V30 39 1 20 34
M  V30 40 1 21 35
M  V30 41 1 22 36
M  V30 END BOND
M  V30 END CTAB
M  END
>  <Dataset>  (378) 
ChEMBL_Kinases

>  <Ligand_Instance>  (378) 
nan

>  <PDB_ID>  (378) 
nan

>  <Standardized_SMILES>  (378) 
O=C1NCc2c1c1c3ccccc3[nH]c1c1sc3ccccc3c21

>  <Name>  (378) 
nan

>  <Pocket>  (378) 
nan

>  <ATP_Site>  (378) 
nan

>  <Peripheral>  (378) 
nan

>  <Num_H_Atoms_ProtBoundConf>  (378) 
nan

>  <Num_Resolved_Atoms>  (378) 
nan

>  <Num_Not_Resolved_Atoms>  (378) 
nan

$$$$
CHEMBL2207990
     RDKit          3D

  0  0  0  0  0  0  0  0  0  0999 V3000
M  V30 BEGIN CTAB
M  V30 COUNTS 36 39 0 0 0
M  V30 BEGIN ATOM
M  V30 1 C 1.765609 -2.740512 5.152633 0
M  V30 2 C 2.416098 -1.485515 4.601661 0
M  V30 3 C 1.820110 -1.227877 3.264324 0
M  V30 4 N 2.311305 -1.718451 2.094714 0
M  V30 5 C 1.515763 -1.276382 1.109159 0
M  V30 6 C 1.575412 -1.499850 -0.376067 0
M  V30 7 N 1.034738 -1.232995 -1.329650 0
M  V30 8 C 1.282053 -1.560884 -2.577229 0
M  V30 9 C 0.397361 -1.065844 -3.661487 0
M  V30 10 C 2.449328 -2.404894 -2.710176 0
M  V30 11 S 3.021303 -2.592917 -0.930680 0
M  V30 12 C 0.510218 -0.503989 1.609078 0
M  V30 13 C -0.570176 0.174164 0.915803 0
M  V30 14 C -1.926593 -0.018139 1.070302 0
M  V30 15 C -2.912262 0.641755 0.395905 0
M  V30 16 C -2.568143 1.615457 -0.553084 0
M  V30 17 N -3.302444 2.382247 -1.326525 0
M  V30 18 C -3.044171 3.168884 -2.094068 0
M  V30 19 S -1.148833 3.083281 -1.961230 0
M  V30 20 C -1.255797 1.818586 -0.719337 0
M  V30 21 C -0.237975 1.131195 -0.017121 0
M  V30 22 N 0.719620 -0.489481 2.937665 0
M  V30 23 H 1.621164 -3.415562 4.274383 0
M  V30 24 H 0.761019 -2.493981 5.527407 0
M  V30 25 H 2.392266 -3.220562 5.935697 0
M  V30 26 H 3.488386 -1.736415 4.466362 0
M  V30 27 H 2.278058 -0.615081 5.287994 0
M  V30 28 H -0.573064 -1.614917 -3.574057 0
M  V30 29 H 0.256954 0.041716 -3.629604 0
M  V30 30 H 0.794155 -1.292755 -4.650511 0
M  V30 31 H 2.679241 -2.713866 -3.901244 0
M  V30 32 H -2.201341 -0.783262 1.815938 0
M  V30 33 H -3.950412 0.376624 0.630136 0
M  V30 34 H -4.059046 3.690766 -2.633773 0
M  V30 35 H 0.729790 1.447118 -0.303229 0
M  V30 36 H 0.143970 0.005463 3.654896 0
M  V30 END ATOM
M  V30 BEGIN BOND
M  V30 1 1 1 2
M  V30 2 1 2 3
M  V30 3 2 3 4
M  V30 4 1 4 5
M  V30 5 1 5 6
M  V30 6 2 6 7
M  V30 7 1 7 8
M  V30 8 1 8 9
M  V30 9 2 8 10
M  V30 10 1 10 11
M  V30 11 2 5 12
M  V30 12 1 12 13
M  V30 13 2 13 14
M  V30 14 1 14 15
M  V30 15 2 15 16
M  V30 16 1 16 17
M  V30 17 2 17 18
M  V30 18 1 18 19
M  V30 19 1 19 20
M  V30 20 2 20 21
M  V30 21 1 12 22
M  V30 22 1 22 3
M  V30 23 1 11 6
M  V30 24 1 21 13
M  V30 25 1 20 16
M  V30 26 1 1 23
M  V30 27 1 1 24
M  V30 28 1 1 25
M  V30 29 1 2 26
M  V30 30 1 2 27
M  V30 31 1 9 28
M  V30 32 1 9 29
M  V30 33 1 9 30
M  V30 34 1 10 31
M  V30 35 1 14 32
M  V30 36 1 15 33
M  V30 37 1 18 34
M  V30 38 1 21 35
M  V30 39 1 22 36
M  V30 END BOND
M  V30 END CTAB
M  END
>  <Dataset>  (379) 
ChEMBL_Kinases

>  <Ligand_Instance>  (379) 
nan

>  <PDB_ID>  (379) 
nan

>  <Standardized_SMILES>  (379) 
CCc1nc(-c2nc(C)cs2)c(-c2ccc3ncsc3c2)[nH]1

>  <Name>  (379) 
nan

>  <Pocket>  (379) 
nan

>  <ATP_Site>  (379) 
nan

>  <Peripheral>  (379) 
nan

>  <Num_H_Atoms_ProtBoundConf>  (379) 
nan

>  <Num_Resolved_Atoms>  (379) 
nan

>  <Num_Not_Resolved_Atoms>  (379) 
nan

$$$$
CHEMBL2207991
     RDKit          3D

  0  0  0  0  0  0  0  0  0  0999 V3000
M  V30 BEGIN CTAB
M  V30 COUNTS 39 42 0 0 0
M  V30 BEGIN ATOM
M  V30 1 C 2.673185 -5.313038 3.767465 0
M  V30 2 C 1.866069 -4.090576 3.318422 0
M  V30 3 C 2.462188 -3.658207 2.012961 0
M  V30 4 C 1.774654 -2.466046 1.440473 0
M  V30 5 N 2.205503 -1.951912 0.250839 0
M  V30 6 C 1.413229 -0.906213 -0.009050 0
M  V30 7 C 1.363236 0.049211 -1.117698 0
M  V30 8 N 0.650560 1.096485 -1.483526 0
M  V30 9 C 1.009374 1.650255 -2.624258 0
M  V30 10 C 0.149197 2.832884 -2.966474 0
M  V30 11 C 2.137066 1.190834 -3.513139 0
M  V30 12 S 2.672338 -0.226834 -2.464952 0
M  V30 13 C 0.480235 -0.736663 0.990169 0
M  V30 14 C -0.583861 0.234748 1.170850 0
M  V30 15 C -0.477554 1.603025 1.317589 0
M  V30 16 C -1.490123 2.500846 1.487160 0
M  V30 17 C -2.780589 2.016689 1.520256 0
M  V30 18 N -3.887608 2.714045 1.674063 0
M  V30 19 C -4.950513 2.359698 1.706462 0
M  V30 20 S -4.725227 0.462713 1.477850 0
M  V30 21 C -2.926377 0.638914 1.375259 0
M  V30 22 C -1.875317 -0.262481 1.202532 0
M  V30 23 N 0.731070 -1.732880 1.890198 0
M  V30 24 H 2.180778 -6.217168 3.302250 0
M  V30 25 H 2.628933 -5.408755 4.860670 0
M  V30 26 H 3.698387 -5.301734 3.342052 0
M  V30 27 H 2.015888 -3.319699 4.090890 0
M  V30 28 H 0.786681 -4.339634 3.242395 0
M  V30 29 H 2.403573 -4.464892 1.262179 0
M  V30 30 H 3.512834 -3.388415 2.194181 0
M  V30 31 H -0.887846 2.558402 -3.204011 0
M  V30 32 H 0.129777 3.578150 -2.154640 0
M  V30 33 H 0.558423 3.360820 -3.852341 0
M  V30 34 H 2.325734 1.666491 -4.339021 0
M  V30 35 H 0.568176 1.952127 1.286123 0
M  V30 36 H -1.175718 3.537144 1.582200 0
M  V30 37 H -6.151660 2.441494 1.796648 0
M  V30 38 H -2.165705 -1.308329 1.104270 0
M  V30 39 H 0.267977 -1.992304 2.808816 0
M  V30 END ATOM
M  V30 BEGIN BOND
M  V30 1 1 1 2
M  V30 2 1 2 3
M  V30 3 1 3 4
M  V30 4 2 4 5
M  V30 5 1 5 6
M  V30 6 1 6 7
M  V30 7 2 7 8
M  V30 8 1 8 9
M  V30 9 1 9 10
M  V30 10 2 9 11
M  V30 11 1 11 12
M  V30 12 2 6 13
M  V30 13 1 13 14
M  V30 14 2 14 15
M  V30 15 1 15 16
M  V30 16 2 16 17
M  V30 17 1 17 18
M  V30 18 2 18 19
M  V30 19 1 19 20
M  V30 20 1 20 21
M  V30 21 2 21 22
M  V30 22 1 13 23
M  V30 23 1 23 4
M  V30 24 1 12 7
M  V30 25 1 22 14
M  V30 26 1 21 17
M  V30 27 1 1 24
M  V30 28 1 1 25
M  V30 29 1 1 26
M  V30 30 1 2 27
M  V30 31 1 2 28
M  V30 32 1 3 29
M  V30 33 1 3 30
M  V30 34 1 10 31
M  V30 35 1 10 32
M  V30 36 1 10 33
M  V30 37 1 11 34
M  V30 38 1 15 35
M  V30 39 1 16 36
M  V30 40 1 19 37
M  V30 41 1 22 38
M  V30 42 1 23 39
M  V30 END BOND
M  V30 END CTAB
M  END
>  <Dataset>  (380) 
ChEMBL_Kinases

>  <Ligand_Instance>  (380) 
nan

>  <PDB_ID>  (380) 
nan

>  <Standardized_SMILES>  (380) 
CCCc1nc(-c2nc(C)cs2)c(-c2ccc3ncsc3c2)[nH]1

>  <Name>  (380) 
nan

>  <Pocket>  (380) 
nan

>  <ATP_Site>  (380) 
nan

>  <Peripheral>  (380) 
nan

>  <Num_H_Atoms_ProtBoundConf>  (380) 
nan

>  <Num_Resolved_Atoms>  (380) 
nan

>  <Num_Not_Resolved_Atoms>  (380) 
nan

$$$$
CHEMBL2207992
     RDKit          3D

  0  0  0  0  0  0  0  0  0  0999 V3000
M  V30 BEGIN CTAB
M  V30 COUNTS 39 42 0 0 0
M  V30 BEGIN ATOM
M  V30 1 C 0.709431 -4.422675 3.057536 0
M  V30 2 C 1.345168 -3.838388 1.839315 0
M  V30 3 C 2.352716 -4.410740 0.955155 0
M  V30 4 S 2.606563 -3.100783 -0.283386 0
M  V30 5 C 1.325481 -2.002296 0.581901 0
M  V30 6 C 1.114411 -0.675280 -0.077338 0
M  V30 7 N 1.656104 -0.129710 -1.150831 0
M  V30 8 C 1.120541 1.097357 -1.327483 0
M  V30 9 C 1.466659 2.033387 -2.425513 0
M  V30 10 C 1.182995 1.471713 -3.782211 0
M  V30 11 C 2.929510 2.421034 -2.390999 0
M  V30 12 N 0.238583 1.260007 -0.316255 0
M  V30 13 C 0.196613 0.176111 0.496968 0
M  V30 14 C -0.632164 0.004141 1.678592 0
M  V30 15 C -0.199502 -0.149064 2.977673 0
M  V30 16 C -1.004269 -0.311095 4.081604 0
M  V30 17 C -2.396574 -0.327606 3.913004 0
M  V30 18 N -3.289648 -0.473094 4.865082 0
M  V30 19 C -4.486631 -0.484216 4.693539 0
M  V30 20 S -4.583995 -0.247603 2.809414 0
M  V30 21 C -2.846830 -0.179584 2.650173 0
M  V30 22 C -2.006872 -0.017688 1.555185 0
M  V30 23 N 0.981639 -2.633205 1.460754 0
M  V30 24 H 1.148002 -5.400308 3.310392 0
M  V30 25 H 0.821393 -3.791281 3.957595 0
M  V30 26 H -0.375301 -4.601497 2.862364 0
M  V30 27 H 2.665932 -5.550182 1.351377 0
M  V30 28 H 0.856789 2.965223 -2.304038 0
M  V30 29 H 1.903946 0.686045 -4.079948 0
M  V30 30 H 0.138793 1.127666 -3.902554 0
M  V30 31 H 1.316314 2.299787 -4.510466 0
M  V30 32 H 3.047078 3.511791 -2.221556 0
M  V30 33 H 3.452660 2.181693 -3.339199 0
M  V30 34 H 3.410586 1.831963 -1.594203 0
M  V30 35 H -0.321999 2.148023 -0.223198 0
M  V30 36 H 0.894887 -0.136555 3.116144 0
M  V30 37 H -0.509804 -0.418964 5.037364 0
M  V30 38 H -5.102118 -0.638024 5.777062 0
M  V30 39 H -2.540121 0.083092 0.647097 0
M  V30 END ATOM
M  V30 BEGIN BOND
M  V30 1 1 1 2
M  V30 2 2 2 3
M  V30 3 1 3 4
M  V30 4 1 4 5
M  V30 5 1 5 6
M  V30 6 1 6 7
M  V30 7 2 7 8
M  V30 8 1 8 9
M  V30 9 1 9 10
M  V30 10 1 9 11
M  V30 11 1 8 12
M  V30 12 1 12 13
M  V30 13 1 13 14
M  V30 14 2 14 15
M  V30 15 1 15 16
M  V30 16 2 16 17
M  V30 17 1 17 18
M  V30 18 2 18 19
M  V30 19 1 19 20
M  V30 20 1 20 21
M  V30 21 2 21 22
M  V30 22 2 5 23
M  V30 23 1 23 2
M  V30 24 2 13 6
M  V30 25 1 22 14
M  V30 26 1 21 17
M  V30 27 1 1 24
M  V30 28 1 1 25
M  V30 29 1 1 26
M  V30 30 1 3 27
M  V30 31 1 9 28
M  V30 32 1 10 29
M  V30 33 1 10 30
M  V30 34 1 10 31
M  V30 35 1 11 32
M  V30 36 1 11 33
M  V30 37 1 11 34
M  V30 38 1 12 35
M  V30 39 1 15 36
M  V30 40 1 16 37
M  V30 41 1 19 38
M  V30 42 1 22 39
M  V30 END BOND
M  V30 END CTAB
M  END
>  <Dataset>  (381) 
ChEMBL_Kinases

>  <Ligand_Instance>  (381) 
nan

>  <PDB_ID>  (381) 
nan

>  <Standardized_SMILES>  (381) 
Cc1csc(-c2nc(C(C)C)[nH]c2-c2ccc3ncsc3c2)n1

>  <Name>  (381) 
nan

>  <Pocket>  (381) 
nan

>  <ATP_Site>  (381) 
nan

>  <Peripheral>  (381) 
nan

>  <Num_H_Atoms_ProtBoundConf>  (381) 
nan

>  <Num_Resolved_Atoms>  (381) 
nan

>  <Num_Not_Resolved_Atoms>  (381) 
nan

$$$$
CHEMBL2207839
     RDKit          3D

  0  0  0  0  0  0  0  0  0  0999 V3000
M  V30 BEGIN CTAB
M  V30 COUNTS 120 121 0 0 0
M  V30 BEGIN ATOM
M  V30 1 C 4.481300 2.496466 5.184586 0
M  V30 2 C 4.234272 2.254693 3.722394 0
M  V30 3 O 4.095943 0.974854 3.637874 0
M  V30 4 N 4.221459 3.450344 2.890502 0
M  V30 5 C 4.469032 4.803026 3.452323 0
M  V30 6 C 5.674009 5.251317 2.606320 0
M  V30 7 C 5.434155 4.533528 1.266989 0
M  V30 8 C 4.039280 3.935090 1.542514 0 CFG=1
M  V30 9 C 3.607349 2.974860 0.549570 0
M  V30 10 O 3.640439 2.362112 1.608638 0
M  V30 11 N 3.303618 2.759980 -0.792796 0
M  V30 12 C 2.880255 1.570416 -1.419566 0 CFG=1
M  V30 13 C 2.909243 0.270489 -0.733910 0
M  V30 14 C 4.322037 -0.194943 -0.321055 0
M  V30 15 C 5.114896 -0.304873 -1.639333 0
M  V30 16 C 4.171320 -1.581090 0.248361 0
M  V30 17 C 1.813891 1.734965 -2.405505 0
M  V30 18 O 1.678201 2.772181 -3.103485 0
M  V30 19 N 0.816634 0.763732 -2.681371 0
M  V30 20 C -0.289933 0.633633 -3.571023 0 CFG=1
M  V30 21 C -1.205013 -0.520362 -3.121590 0
M  V30 22 C -1.735547 -0.176740 -1.761439 0
M  V30 23 C -2.644060 -1.083522 -1.061351 0
M  V30 24 C -2.226422 -2.426402 -0.629504 0
M  V30 25 N -1.077346 -2.355971 0.255688 0
M  V30 26 C -0.453378 -3.416269 1.005176 0
M  V30 27 O -1.087308 -4.483460 0.817184 0
M  V30 28 C 0.731608 -3.047761 1.797359 0
M  V30 29 C 0.911786 -3.861870 3.022276 0
M  V30 30 C 1.013560 -5.338065 2.787151 0
M  V30 31 C 1.256867 -6.056959 4.110210 0
M  V30 32 C 0.189733 -5.831964 5.128028 0
M  V30 33 C 0.557880 -6.547341 6.387738 0
M  V30 34 C 1.284984 -5.935553 7.379589 0
M  V30 35 C 1.697080 -6.456618 8.550487 0
M  V30 36 C 1.312849 -7.791363 8.738482 0
M  V30 37 C 0.569270 -8.539516 7.812648 0
M  V30 38 C 0.214009 -7.849391 6.632595 0
M  V30 39 C -1.187746 1.908803 -3.381701 0
M  V30 40 O -0.828405 2.677990 -2.462302 0
M  V30 41 N -2.319161 2.040337 -4.285525 0
M  V30 42 C -3.055031 3.247465 -3.970689 0 CFG=1
M  V30 43 C -2.876730 4.336565 -5.016496 0
M  V30 44 O -1.537034 4.679359 -5.155260 0
M  V30 45 C -4.516236 3.012637 -3.810647 0
M  V30 46 O -5.409622 3.863870 -3.502091 0
M  V30 47 N -5.065505 1.722474 -4.009084 0
M  V30 48 C -6.368968 1.117918 -3.956521 0 CFG=2
M  V30 49 C -6.336670 -0.031231 -3.016013 0
M  V30 50 N -7.632751 -0.594623 -3.135175 0
M  V30 51 O -6.121101 -0.929452 -2.198684 0
M  V30 52 C -6.709335 0.613086 -5.358517 0 CFG=1
M  V30 53 C -5.732144 -0.430739 -5.837469 0
M  V30 54 O -7.973771 0.022053 -5.299266 0
M  V30 55 P -9.111717 0.868140 -6.216417 0
M  V30 56 O -8.471530 1.153757 -7.570376 0
M  V30 57 O -10.454411 -0.109157 -6.493568 0
M  V30 58 O -9.509700 2.326609 -5.516078 0
M  V30 59 H 3.719993 3.210636 5.587523 0
M  V30 60 H 4.602938 1.608006 5.789636 0
M  V30 61 H 5.461780 3.057156 5.213075 0
M  V30 62 H 4.776142 4.784186 4.494550 0
M  V30 63 H 3.605618 5.443612 3.291431 0
M  V30 64 H 5.677367 6.340023 2.489697 0
M  V30 65 H 6.634037 4.944263 3.056033 0
M  V30 66 H 5.418318 5.219079 0.429825 0
M  V30 67 H 6.141936 3.706590 1.220993 0
M  V30 68 H 3.348482 4.828604 1.584733 0
M  V30 69 H 3.465199 3.685623 -1.236015 0
M  V30 70 H 3.839275 1.398035 -2.129663 0
M  V30 71 H 2.647826 -0.513601 -1.495479 0
M  V30 72 H 2.193879 0.106945 0.087857 0
M  V30 73 H 4.879556 0.508267 0.272450 0
M  V30 74 H 5.803777 -1.176553 -1.536421 0
M  V30 75 H 4.440668 -0.466193 -2.489488 0
M  V30 76 H 5.664229 0.652326 -1.825258 0
M  V30 77 H 3.285057 -2.046036 -0.249506 0
M  V30 78 H 5.078794 -2.199254 0.009087 0
M  V30 79 H 3.954249 -1.569539 1.339159 0
M  V30 80 H 0.913648 -0.084845 -2.073276 0
M  V30 81 H -0.158524 0.662759 -4.620025 0
M  V30 82 H -0.686325 -1.487471 -3.152415 0
M  V30 83 H -2.051009 -0.562586 -3.832628 0
M  V30 84 H -0.816546 -0.057942 -1.102056 0
M  V30 85 H -2.240088 0.844345 -1.786440 0
M  V30 86 H -3.507839 -1.282541 -1.804678 0
M  V30 87 H -3.213028 -0.571466 -0.229347 0
M  V30 88 H -2.057983 -3.094350 -1.489764 0
M  V30 89 H -3.055206 -2.872395 -0.031816 0
M  V30 90 H -0.654022 -1.392466 0.353513 0
M  V30 91 H 1.628447 -3.170973 1.113923 0
M  V30 92 H 0.677036 -1.954339 2.028836 0
M  V30 93 H 0.133216 -3.619059 3.796016 0
M  V30 94 H 1.890303 -3.549707 3.483740 0
M  V30 95 H 0.149361 -5.786202 2.278255 0
M  V30 96 H 1.897273 -5.537645 2.167235 0
M  V30 97 H 2.222276 -5.679233 4.502862 0
M  V30 98 H 1.293396 -7.146748 3.861328 0
M  V30 99 H 0.158687 -4.750478 5.415689 0
M  V30 100 H -0.798394 -6.220745 4.816242 0
M  V30 101 H 1.573491 -4.893588 7.233362 0
M  V30 102 H 2.261123 -6.032524 9.353039 0
M  V30 103 H 1.592635 -8.316869 9.654771 0
M  V30 104 H 0.292424 -9.565545 7.983620 0
M  V30 105 H -0.361493 -8.412042 5.921060 0
M  V30 106 H -2.541510 1.356591 -5.035567 0
M  V30 107 H -2.680222 3.655830 -3.025838 0
M  V30 108 H -3.424218 4.171940 -5.940095 0
M  V30 109 H -3.337816 5.251145 -4.528085 0
M  V30 110 H -1.232360 5.319335 -4.447002 0
M  V30 111 H -4.402183 0.955500 -4.264997 0
M  V30 112 H -7.117780 1.879084 -3.636847 0
M  V30 113 H -8.610840 -0.839433 -2.777392 0
M  V30 114 H -8.606253 -0.957013 -3.069029 0
M  V30 115 H -6.649636 1.478174 -6.032211 0
M  V30 116 H -6.256723 -1.045584 -6.623154 0
M  V30 117 H -4.842740 0.095789 -6.263224 0
M  V30 118 H -5.354709 -1.075336 -5.032207 0
M  V30 119 H -10.262486 -0.861044 -7.089187 0
M  V30 120 H -9.567722 3.053352 -6.170441 0
M  V30 END ATOM
M  V30 BEGIN BOND
M  V30 1 1 1 2
M  V30 2 2 2 3
M  V30 3 1 2 4
M  V30 4 1 4 5
M  V30 5 1 5 6
M  V30 6 1 6 7
M  V30 7 1 7 8
M  V30 8 1 8 9
M  V30 9 2 9 10
M  V30 10 1 9 11
M  V30 11 1 11 12
M  V30 12 1 12 13
M  V30 13 1 13 14
M  V30 14 1 14 15
M  V30 15 1 14 16
M  V30 16 1 12 17
M  V30 17 2 17 18
M  V30 18 1 17 19
M  V30 19 1 19 20
M  V30 20 1 20 21
M  V30 21 1 21 22
M  V30 22 1 22 23
M  V30 23 1 23 24
M  V30 24 1 24 25
M  V30 25 1 25 26
M  V30 26 2 26 27
M  V30 27 1 26 28
M  V30 28 1 28 29
M  V30 29 1 29 30
M  V30 30 1 30 31
M  V30 31 1 31 32
M  V30 32 1 32 33
M  V30 33 2 33 34
M  V30 34 1 34 35
M  V30 35 2 35 36
M  V30 36 1 36 37
M  V30 37 2 37 38
M  V30 38 1 20 39
M  V30 39 2 39 40
M  V30 40 1 39 41
M  V30 41 1 41 42
M  V30 42 1 42 43
M  V30 43 1 43 44
M  V30 44 1 42 45
M  V30 45 2 45 46
M  V30 46 1 45 47
M  V30 47 1 47 48
M  V30 48 1 48 49
M  V30 49 1 49 50
M  V30 50 2 49 51
M  V30 51 1 48 52
M  V30 52 1 52 53
M  V30 53 1 52 54
M  V30 54 1 54 55
M  V30 55 2 55 56
M  V30 56 1 55 57
M  V30 57 1 55 58
M  V30 58 1 8 4
M  V30 59 1 38 33
M  V30 60 1 1 59
M  V30 61 1 1 60
M  V30 62 1 1 61
M  V30 63 1 5 62
M  V30 64 1 5 63
M  V30 65 1 6 64
M  V30 66 1 6 65
M  V30 67 1 7 66
M  V30 68 1 7 67
M  V30 69 1 8 68 CFG=1
M  V30 70 1 11 69
M  V30 71 1 12 70 CFG=3
M  V30 72 1 13 71
M  V30 73 1 13 72
M  V30 74 1 14 73
M  V30 75 1 15 74
M  V30 76 1 15 75
M  V30 77 1 15 76
M  V30 78 1 16 77
M  V30 79 1 16 78
M  V30 80 1 16 79
M  V30 81 1 19 80
M  V30 82 1 20 81 CFG=3
M  V30 83 1 21 82
M  V30 84 1 21 83
M  V30 85 1 22 84
M  V30 86 1 22 85
M  V30 87 1 23 86
M  V30 88 1 23 87
M  V30 89 1 24 88
M  V30 90 1 24 89
M  V30 91 1 25 90
M  V30 92 1 28 91
M  V30 93 1 28 92
M  V30 94 1 29 93
M  V30 95 1 29 94
M  V30 96 1 30 95
M  V30 97 1 30 96
M  V30 98 1 31 97
M  V30 99 1 31 98
M  V30 100 1 32 99
M  V30 101 1 32 100
M  V30 102 1 34 101
M  V30 103 1 35 102
M  V30 104 1 36 103
M  V30 105 1 37 104
M  V30 106 1 38 105
M  V30 107 1 41 106
M  V30 108 1 42 107 CFG=1
M  V30 109 1 43 108
M  V30 110 1 43 109
M  V30 111 1 44 110
M  V30 112 1 47 111
M  V30 113 1 48 112 CFG=1
M  V30 114 1 50 113
M  V30 115 1 50 114
M  V30 116 1 52 115 CFG=3
M  V30 117 1 53 116
M  V30 118 1 53 117
M  V30 119 1 53 118
M  V30 120 1 57 119
M  V30 121 1 58 120
M  V30 END BOND
M  V30 END CTAB
M  END
>  <Dataset>  (382) 
ChEMBL_Kinases

>  <Ligand_Instance>  (382) 
nan

>  <PDB_ID>  (382) 
nan

>  <Standardized_SMILES>  (382) 
CC(=O)N1CCC[C@H]1C(=O)N[C@@H](CC(C)C)C(=O)N[C@@H](CCCCNC(=O)CCCCCc1ccccc1)C(=O)N[C@@H](CO)C(=O)N[C@H](C(N)=O)[C@@H](C)OP(=O)(O)O

>  <Name>  (382) 
nan

>  <Pocket>  (382) 
nan

>  <ATP_Site>  (382) 
nan

>  <Peripheral>  (382) 
nan

>  <Num_H_Atoms_ProtBoundConf>  (382) 
nan

>  <Num_Resolved_Atoms>  (382) 
nan

>  <Num_Not_Resolved_Atoms>  (382) 
nan

$$$$
CHEMBL221137
     RDKit          3D

  0  0  0  0  0  0  0  0  0  0999 V3000
M  V30 BEGIN CTAB
M  V30 COUNTS 47 47 0 0 0
M  V30 BEGIN ATOM
M  V30 1 C -0.881155 -2.306491 3.300715 0
M  V30 2 C -1.715436 -3.024958 2.303958 0
M  V30 3 C -1.006704 -3.735406 1.228575 0
M  V30 4 C -0.192791 -2.978890 0.280574 0
M  V30 5 C 0.921895 -2.205340 0.886421 0
M  V30 6 C 1.788958 -1.694525 -0.312755 0
M  V30 7 C 2.971298 -0.989782 0.219398 0
M  V30 8 C 2.886013 0.341460 0.842329 0
M  V30 9 C 2.700438 1.485337 -0.031925 0
M  V30 10 C 1.648877 1.915863 -0.901663 0
M  V30 11 C 0.341633 2.399973 -0.479446 0
M  V30 12 C -0.686137 1.695352 0.200574 0
M  V30 13 C -0.944372 2.075839 1.463563 0
M  V30 14 O -0.235341 3.109101 2.104246 0
M  V30 15 C -1.989698 1.458765 2.264627 0
M  V30 16 O -2.259005 1.780809 3.448712 0
M  V30 17 C -2.747831 0.403528 1.610405 0
M  V30 18 C -2.522284 0.001477 0.354745 0
M  V30 19 O -3.229593 -1.009644 -0.316695 0
M  V30 20 C -1.465346 0.634387 -0.422335 0
M  V30 21 O -1.162481 0.338504 -1.605161 0
M  V30 22 H 0.169414 -2.618242 3.324686 0
M  V30 23 H -0.937454 -1.211309 3.135177 0
M  V30 24 H -1.323174 -2.529134 4.336391 0
M  V30 25 H -2.565350 -2.385093 1.927902 0
M  V30 26 H -2.300433 -3.837142 2.866932 0
M  V30 27 H -1.712948 -4.441672 0.670896 0
M  V30 28 H -0.296512 -4.510286 1.723376 0
M  V30 29 H -0.840751 -2.280265 -0.344855 0
M  V30 30 H 0.190730 -3.713652 -0.497643 0
M  V30 31 H 1.617168 -2.778831 1.497254 0
M  V30 32 H 0.565312 -1.326229 1.431682 0
M  V30 33 H 2.142123 -2.552818 -0.916491 0
M  V30 34 H 1.099728 -1.099569 -0.912351 0
M  V30 35 H 3.792597 -0.955455 -0.585382 0
M  V30 36 H 3.469822 -1.738851 0.945867 0
M  V30 37 H 2.146466 0.263514 1.684614 0
M  V30 38 H 3.869058 0.494738 1.399743 0
M  V30 39 H 3.037279 2.453534 0.545928 0
M  V30 40 H 3.659961 1.442456 -0.731410 0
M  V30 41 H 1.500917 1.185812 -1.801168 0
M  V30 42 H 2.091390 2.800992 -1.520502 0
M  V30 43 H 0.499451 3.463313 -0.003386 0
M  V30 44 H -0.154606 2.781459 -1.471478 0
M  V30 45 H 0.369467 2.834619 2.879327 0
M  V30 46 H -3.558751 -0.129256 2.117714 0
M  V30 47 H -4.161755 -1.252261 -0.020090 0
M  V30 END ATOM
M  V30 BEGIN BOND
M  V30 1 1 1 2
M  V30 2 1 2 3
M  V30 3 1 3 4
M  V30 4 1 4 5
M  V30 5 1 5 6
M  V30 6 1 6 7
M  V30 7 1 7 8
M  V30 8 1 8 9
M  V30 9 1 9 10
M  V30 10 1 10 11
M  V30 11 1 11 12
M  V30 12 2 12 13
M  V30 13 1 13 14
M  V30 14 1 13 15
M  V30 15 2 15 16
M  V30 16 1 15 17
M  V30 17 2 17 18
M  V30 18 1 18 19
M  V30 19 1 18 20
M  V30 20 2 20 21
M  V30 21 1 20 12
M  V30 22 1 1 22
M  V30 23 1 1 23
M  V30 24 1 1 24
M  V30 25 1 2 25
M  V30 26 1 2 26
M  V30 27 1 3 27
M  V30 28 1 3 28
M  V30 29 1 4 29
M  V30 30 1 4 30
M  V30 31 1 5 31
M  V30 32 1 5 32
M  V30 33 1 6 33
M  V30 34 1 6 34
M  V30 35 1 7 35
M  V30 36 1 7 36
M  V30 37 1 8 37
M  V30 38 1 8 38
M  V30 39 1 9 39
M  V30 40 1 9 40
M  V30 41 1 10 41
M  V30 42 1 10 42
M  V30 43 1 11 43
M  V30 44 1 11 44
M  V30 45 1 14 45
M  V30 46 1 17 46
M  V30 47 1 19 47
M  V30 END BOND
M  V30 END CTAB
M  END
>  <Dataset>  (383) 
ChEMBL_Kinases

>  <Ligand_Instance>  (383) 
nan

>  <PDB_ID>  (383) 
nan

>  <Standardized_SMILES>  (383) 
CCCCCCCCCCCC1=C(O)C(=O)C=C(O)C1=O

>  <Name>  (383) 
EMBELIN

>  <Pocket>  (383) 
nan

>  <ATP_Site>  (383) 
nan

>  <Peripheral>  (383) 
nan

>  <Num_H_Atoms_ProtBoundConf>  (383) 
nan

>  <Num_Resolved_Atoms>  (383) 
nan

>  <Num_Not_Resolved_Atoms>  (383) 
nan

$$$$
CHEMBL221117
     RDKit          3D

  0  0  0  0  0  0  0  0  0  0999 V3000
M  V30 BEGIN CTAB
M  V30 COUNTS 47 50 0 0 0
M  V30 BEGIN ATOM
M  V30 1 C -2.283430 -1.693913 3.097195 0
M  V30 2 C -1.248580 -2.751064 2.664178 0 CFG=2
M  V30 3 N -0.056290 -2.024667 2.209834 0
M  V30 4 C 1.293409 -1.926651 2.623470 0
M  V30 5 O 1.519616 -2.639935 3.634207 0
M  V30 6 C 2.151494 -1.047059 1.833663 0
M  V30 7 C 1.866207 -0.325155 0.705051 0
M  V30 8 C 3.033476 0.335705 0.382903 0
M  V30 9 C 3.045849 1.202080 -0.806573 0
M  V30 10 N 3.830428 1.133353 -1.912048 0
M  V30 11 N 3.506779 2.116504 -2.735896 0
M  V30 12 C 2.508342 2.855045 -2.202114 0
M  V30 13 C 2.193677 2.288757 -0.962964 0
M  V30 14 C 1.172213 2.743487 -0.020756 0
M  V30 15 C 1.250457 3.243185 1.255019 0
M  V30 16 C 0.103808 3.590384 1.912891 0
M  V30 17 C -1.144238 3.461506 1.349580 0
M  V30 18 C -1.248744 2.964438 0.075298 0
M  V30 19 Cl -2.854226 2.817496 -0.600131 0
M  V30 20 C -0.087474 2.602164 -0.617483 0
M  V30 21 C 3.999935 -0.007447 1.333112 0
M  V30 22 N 3.426748 -0.861216 2.214734 0
M  V30 23 C -1.891584 -3.484082 1.552697 0
M  V30 24 C -3.262637 -3.484128 1.353864 0
M  V30 25 C -3.954155 -4.126205 0.348600 0
M  V30 26 C -3.174305 -4.833772 -0.535802 0
M  V30 27 C -1.800750 -4.895659 -0.423625 0
M  V30 28 C -1.184020 -4.220874 0.617086 0
M  V30 29 H -3.028820 -2.103123 3.796776 0
M  V30 30 H -1.667892 -0.890498 3.599101 0
M  V30 31 H -2.734333 -1.212198 2.208487 0
M  V30 32 H -1.028247 -3.433798 3.492455 0
M  V30 33 H -0.401692 -1.473701 1.367161 0
M  V30 34 H 0.896343 -0.344997 0.249639 0
M  V30 35 H 4.547382 0.393140 -2.013643 0
M  V30 36 H 2.029726 3.720091 -2.630765 0
M  V30 37 H 2.277118 3.294336 1.580657 0
M  V30 38 H 0.247128 3.976297 2.912922 0
M  V30 39 H -2.029688 3.753728 1.916998 0
M  V30 40 H -0.324612 2.223762 -1.617193 0
M  V30 41 H 5.004630 0.414383 1.255550 0
M  V30 42 H 3.957746 -1.263852 3.029799 0
M  V30 43 H -3.844817 -2.913579 2.076542 0
M  V30 44 H -5.036842 -4.032802 0.323193 0
M  V30 45 H -3.687884 -5.354824 -1.346056 0
M  V30 46 H -1.198177 -5.457133 -1.128643 0
M  V30 47 H -0.098990 -4.271777 0.702625 0
M  V30 END ATOM
M  V30 BEGIN BOND
M  V30 1 1 1 2
M  V30 2 1 2 3
M  V30 3 1 3 4
M  V30 4 2 4 5
M  V30 5 1 4 6
M  V30 6 2 6 7
M  V30 7 1 7 8
M  V30 8 1 8 9
M  V30 9 1 9 10
M  V30 10 1 10 11
M  V30 11 2 11 12
M  V30 12 1 12 13
M  V30 13 1 13 14
M  V30 14 2 14 15
M  V30 15 1 15 16
M  V30 16 2 16 17
M  V30 17 1 17 18
M  V30 18 1 18 19
M  V30 19 2 18 20
M  V30 20 2 8 21
M  V30 21 1 21 22
M  V30 22 1 2 23
M  V30 23 2 23 24
M  V30 24 1 24 25
M  V30 25 2 25 26
M  V30 26 1 26 27
M  V30 27 2 27 28
M  V30 28 1 22 6
M  V30 29 1 28 23
M  V30 30 2 13 9
M  V30 31 1 20 14
M  V30 32 1 1 29
M  V30 33 1 1 30
M  V30 34 1 1 31
M  V30 35 1 2 32 CFG=1
M  V30 36 1 3 33
M  V30 37 1 7 34
M  V30 38 1 10 35
M  V30 39 1 12 36
M  V30 40 1 15 37
M  V30 41 1 16 38
M  V30 42 1 17 39
M  V30 43 1 20 40
M  V30 44 1 21 41
M  V30 45 1 22 42
M  V30 46 1 24 43
M  V30 47 1 25 44
M  V30 48 1 26 45
M  V30 49 1 27 46
M  V30 50 1 28 47
M  V30 END BOND
M  V30 END CTAB
M  END
>  <Dataset>  (384) 
ChEMBL_Kinases

>  <Ligand_Instance>  (384) 
nan

>  <PDB_ID>  (384) 
nan

>  <Standardized_SMILES>  (384) 
C[C@H](NC(=O)c1cc(-c2[nH]ncc2-c2cccc(Cl)c2)c[nH]1)c1ccccc1

>  <Name>  (384) 
nan

>  <Pocket>  (384) 
nan

>  <ATP_Site>  (384) 
nan

>  <Peripheral>  (384) 
nan

>  <Num_H_Atoms_ProtBoundConf>  (384) 
nan

>  <Num_Resolved_Atoms>  (384) 
nan

>  <Num_Not_Resolved_Atoms>  (384) 
nan

$$$$
CHEMBL221116
     RDKit          3D

  0  0  0  0  0  0  0  0  0  0999 V3000
M  V30 BEGIN CTAB
M  V30 COUNTS 47 50 0 0 0
M  V30 BEGIN ATOM
M  V30 1 O 1.238702 -4.162228 3.486473 0
M  V30 2 C 1.383679 -3.106605 2.786339 0
M  V30 3 N 2.442114 -2.283168 2.893278 0
M  V30 4 C 2.229355 -1.299174 2.000071 0
M  V30 5 C 3.006054 -0.197796 1.697610 0
M  V30 6 C 2.525889 0.649707 0.718604 0
M  V30 7 N 3.292955 1.789710 0.380012 0
M  V30 8 C 3.069611 2.827273 -0.564800 0
M  V30 9 C 3.902729 3.135687 -1.629241 0
M  V30 10 C 3.584484 4.168366 -2.485916 0
M  V30 11 C 2.432887 4.931243 -2.320347 0
M  V30 12 F 2.172338 5.932332 -3.192600 0
M  V30 13 C 1.613791 4.610057 -1.254100 0
M  V30 14 C 1.915616 3.574940 -0.380438 0
M  V30 15 F 0.989519 3.416004 0.600950 0
M  V30 16 C 1.330261 0.412528 0.071675 0
M  V30 17 C 0.592151 -0.703102 0.411898 0
M  V30 18 C 1.028287 -1.574320 1.378808 0
M  V30 19 N 0.472380 -2.704500 1.851939 0
M  V30 20 C -0.743206 -3.387568 1.540988 0
M  V30 21 C -1.875805 -2.958392 2.403313 0
M  V30 22 C -2.264133 -1.526905 2.361011 0
M  V30 23 C -3.122878 -1.135473 1.200676 0
M  V30 24 C -3.665744 -2.270759 0.389114 0
M  V30 25 C -4.097506 -3.371992 1.292605 0
M  V30 26 C -3.088347 -3.846204 2.280294 0
M  V30 27 H 3.230063 -2.424026 3.544562 0
M  V30 28 H 3.941226 -0.048646 2.231317 0
M  V30 29 H 4.195924 2.007547 0.837877 0
M  V30 30 H 4.799408 2.528866 -1.744100 0
M  V30 31 H 4.252636 4.401537 -3.324003 0
M  V30 32 H 0.736630 5.246009 -1.188243 0
M  V30 33 H 0.925136 1.047579 -0.693491 0
M  V30 34 H -0.345106 -0.898269 -0.089991 0
M  V30 35 H -0.573753 -4.482848 1.761405 0
M  V30 36 H -0.968058 -3.379024 0.456560 0
M  V30 37 H -1.510680 -3.136679 3.461554 0
M  V30 38 H -2.873216 -1.354553 3.303483 0
M  V30 39 H -1.430281 -0.833676 2.457078 0
M  V30 40 H -4.009441 -0.534779 1.563374 0
M  V30 41 H -2.609021 -0.414673 0.511233 0
M  V30 42 H -3.029644 -2.578429 -0.467349 0
M  V30 43 H -4.610631 -1.907381 -0.115702 0
M  V30 44 H -5.071664 -3.054642 1.768353 0
M  V30 45 H -4.417370 -4.227897 0.629101 0
M  V30 46 H -2.794543 -4.906067 2.043997 0
M  V30 47 H -3.612715 -3.913879 3.256367 0
M  V30 END ATOM
M  V30 BEGIN BOND
M  V30 1 2 1 2
M  V30 2 1 2 3
M  V30 3 1 3 4
M  V30 4 2 4 5
M  V30 5 1 5 6
M  V30 6 1 6 7
M  V30 7 1 7 8
M  V30 8 2 8 9
M  V30 9 1 9 10
M  V30 10 2 10 11
M  V30 11 1 11 12
M  V30 12 1 11 13
M  V30 13 2 13 14
M  V30 14 1 14 15
M  V30 15 2 6 16
M  V30 16 1 16 17
M  V30 17 2 17 18
M  V30 18 1 18 19
M  V30 19 1 19 20
M  V30 20 1 20 21
M  V30 21 1 21 22
M  V30 22 1 22 23
M  V30 23 1 23 24
M  V30 24 1 24 25
M  V30 25 1 25 26
M  V30 26 1 19 2
M  V30 27 1 26 21
M  V30 28 1 18 4
M  V30 29 1 14 8
M  V30 30 1 3 27
M  V30 31 1 5 28
M  V30 32 1 7 29
M  V30 33 1 9 30
M  V30 34 1 10 31
M  V30 35 1 13 32
M  V30 36 1 16 33
M  V30 37 1 17 34
M  V30 38 1 20 35
M  V30 39 1 20 36
M  V30 40 1 21 37
M  V30 41 1 22 38
M  V30 42 1 22 39
M  V30 43 1 23 40
M  V30 44 1 23 41
M  V30 45 1 24 42
M  V30 46 1 24 43
M  V30 47 1 25 44
M  V30 48 1 25 45
M  V30 49 1 26 46
M  V30 50 1 26 47
M  V30 END BOND
M  V30 END CTAB
M  END
>  <Dataset>  (385) 
ChEMBL_Kinases

>  <Ligand_Instance>  (385) 
nan

>  <PDB_ID>  (385) 
nan

>  <Standardized_SMILES>  (385) 
O=c1[nH]c2cc(Nc3ccc(F)cc3F)ccc2n1CC1CCCCC1

>  <Name>  (385) 
nan

>  <Pocket>  (385) 
nan

>  <ATP_Site>  (385) 
nan

>  <Peripheral>  (385) 
nan

>  <Num_H_Atoms_ProtBoundConf>  (385) 
nan

>  <Num_Resolved_Atoms>  (385) 
nan

>  <Num_Not_Resolved_Atoms>  (385) 
nan

$$$$
CHEMBL221109
     RDKit          3D

  0  0  0  0  0  0  0  0  0  0999 V3000
M  V30 BEGIN CTAB
M  V30 COUNTS 43 46 0 0 0
M  V30 BEGIN ATOM
M  V30 1 O 3.259906 0.827295 0.318315 0
M  V30 2 C 2.839882 -0.354043 0.367812 0
M  V30 3 N 3.390291 -1.281825 -0.527100 0
M  V30 4 C 4.401205 -1.121652 -1.544640 0
M  V30 5 C 3.778081 -0.444003 -2.709122 0
M  V30 6 C 3.130515 -1.087624 -3.741352 0
M  V30 7 C 2.569769 -0.428622 -4.817034 0
M  V30 8 N 2.649988 0.917923 -4.878360 0
M  V30 9 C 3.281550 1.544217 -3.871625 0
M  V30 10 C 3.859271 0.933312 -2.774013 0
M  V30 11 C 1.811732 -0.721153 1.335854 0
M  V30 12 C 1.232836 0.164575 2.222651 0
M  V30 13 C 0.322552 -0.561652 2.959046 0
M  V30 14 C -0.483829 0.065162 4.004052 0
M  V30 15 N 0.027049 0.699931 5.083628 0
M  V30 16 N -0.954731 1.171920 5.857990 0
M  V30 17 C -2.152779 0.856596 5.302609 0
M  V30 18 C -1.850994 0.170703 4.153737 0
M  V30 19 C -2.774619 -0.399043 3.179867 0
M  V30 20 C -2.961348 -0.118075 1.843210 0
M  V30 21 C -3.913981 -0.805336 1.129526 0
M  V30 22 C -4.700949 -1.778264 1.706309 0
M  V30 23 C -4.522557 -2.067789 3.043891 0
M  V30 24 Cl -5.554885 -3.315182 3.710156 0
M  V30 25 C -3.557964 -1.380583 3.791709 0
M  V30 26 C 0.384290 -1.863847 2.489410 0
M  V30 27 N 1.298111 -1.948326 1.497452 0
M  V30 28 H 2.993325 -2.261840 -0.435230 0
M  V30 29 H 5.274713 -0.538548 -1.178981 0
M  V30 30 H 4.807816 -2.089301 -1.889482 0
M  V30 31 H 3.069717 -2.147476 -3.688956 0
M  V30 32 H 2.065589 -0.944575 -5.618515 0
M  V30 33 H 3.306499 2.630607 -3.989496 0
M  V30 34 H 4.321254 1.586927 -2.075088 0
M  V30 35 H 1.460426 1.220429 2.310368 0
M  V30 36 H 1.040272 0.814124 5.296510 0
M  V30 37 H -3.174896 1.051489 5.609689 0
M  V30 38 H -2.293180 0.656839 1.504542 0
M  V30 39 H -3.996862 -0.524895 0.090565 0
M  V30 40 H -5.444549 -2.298496 1.102827 0
M  V30 41 H -3.539611 -1.720652 4.820213 0
M  V30 42 H -0.236408 -2.651090 2.901242 0
M  V30 43 H 1.512470 -2.837537 0.994604 0
M  V30 END ATOM
M  V30 BEGIN BOND
M  V30 1 2 1 2
M  V30 2 1 2 3
M  V30 3 1 3 4
M  V30 4 1 4 5
M  V30 5 2 5 6
M  V30 6 1 6 7
M  V30 7 2 7 8
M  V30 8 1 8 9
M  V30 9 2 9 10
M  V30 10 1 2 11
M  V30 11 2 11 12
M  V30 12 1 12 13
M  V30 13 1 13 14
M  V30 14 1 14 15
M  V30 15 1 15 16
M  V30 16 2 16 17
M  V30 17 1 17 18
M  V30 18 1 18 19
M  V30 19 2 19 20
M  V30 20 1 20 21
M  V30 21 2 21 22
M  V30 22 1 22 23
M  V30 23 1 23 24
M  V30 24 2 23 25
M  V30 25 2 13 26
M  V30 26 1 26 27
M  V30 27 1 10 5
M  V30 28 1 27 11
M  V30 29 2 18 14
M  V30 30 1 25 19
M  V30 31 1 3 28
M  V30 32 1 4 29
M  V30 33 1 4 30
M  V30 34 1 6 31
M  V30 35 1 7 32
M  V30 36 1 9 33
M  V30 37 1 10 34
M  V30 38 1 12 35
M  V30 39 1 15 36
M  V30 40 1 17 37
M  V30 41 1 20 38
M  V30 42 1 21 39
M  V30 43 1 22 40
M  V30 44 1 25 41
M  V30 45 1 26 42
M  V30 46 1 27 43
M  V30 END BOND
M  V30 END CTAB
M  END
>  <Dataset>  (386) 
ChEMBL_Kinases

>  <Ligand_Instance>  (386) 
nan

>  <PDB_ID>  (386) 
nan

>  <Standardized_SMILES>  (386) 
O=C(NCc1ccncc1)c1cc(-c2[nH]ncc2-c2cccc(Cl)c2)c[nH]1

>  <Name>  (386) 
nan

>  <Pocket>  (386) 
nan

>  <ATP_Site>  (386) 
nan

>  <Peripheral>  (386) 
nan

>  <Num_H_Atoms_ProtBoundConf>  (386) 
nan

>  <Num_Resolved_Atoms>  (386) 
nan

>  <Num_Not_Resolved_Atoms>  (386) 
nan

$$$$
CHEMBL221072
     RDKit          3D

  0  0  0  0  0  0  0  0  0  0999 V3000
M  V30 BEGIN CTAB
M  V30 COUNTS 35 37 0 0 0
M  V30 BEGIN ATOM
M  V30 1 C -0.172804 -1.982410 1.265416 0
M  V30 2 C 1.216049 -2.466796 1.477267 0
M  V30 3 C 1.469145 -3.694537 2.097561 0
M  V30 4 C 2.746457 -4.176612 2.311074 0
M  V30 5 Cl 2.879667 -5.721954 3.096563 0
M  V30 6 C 3.785312 -3.379111 1.877460 0
M  V30 7 C 3.552117 -2.165659 1.263958 0
M  V30 8 C 2.275523 -1.673192 1.045120 0
M  V30 9 N 1.985215 -0.448872 0.427519 0
M  V30 10 N 0.950700 -0.330208 -0.398791 0
M  V30 11 C 0.613094 0.808690 -1.024752 0
M  V30 12 S -0.835015 0.721476 -2.099369 0
M  V30 13 C -2.237614 1.127623 -1.063387 0
M  V30 14 C -2.768478 2.372815 -0.830999 0
M  V30 15 C -3.852943 2.534419 -0.007687 0
M  V30 16 C -4.428373 1.418297 0.605050 0
M  V30 17 Cl -5.819265 1.615103 1.662535 0
M  V30 18 C -3.900491 0.152350 0.378031 0
M  V30 19 C -2.803120 0.007975 -0.457884 0
M  V30 20 C 1.390001 1.938707 -0.799028 0
M  V30 21 C 2.460774 1.871124 0.038356 0
M  V30 22 C 2.747055 0.652733 0.650972 0
M  V30 23 O 3.743038 0.620865 1.419832 0
M  V30 24 H -0.831214 -2.610428 1.902172 0
M  V30 25 H -0.244103 -0.950083 1.622948 0
M  V30 26 H -0.517410 -2.142641 0.223899 0
M  V30 27 H 0.581678 -4.242588 2.399981 0
M  V30 28 H 4.777402 -3.772189 2.052806 0
M  V30 29 H 4.395252 -1.571735 0.939267 0
M  V30 30 H -2.252714 3.175227 -1.351236 0
M  V30 31 H -4.242619 3.542677 0.149097 0
M  V30 32 H -4.377605 -0.669426 0.870914 0
M  V30 33 H -2.477323 -1.003207 -0.564354 0
M  V30 34 H 1.045392 2.811946 -1.344274 0
M  V30 35 H 3.041382 2.758168 0.193252 0
M  V30 END ATOM
M  V30 BEGIN BOND
M  V30 1 1 1 2
M  V30 2 2 2 3
M  V30 3 1 3 4
M  V30 4 1 4 5
M  V30 5 2 4 6
M  V30 6 1 6 7
M  V30 7 2 7 8
M  V30 8 1 8 9
M  V30 9 1 9 10
M  V30 10 2 10 11
M  V30 11 1 11 12
M  V30 12 1 12 13
M  V30 13 2 13 14
M  V30 14 1 14 15
M  V30 15 2 15 16
M  V30 16 1 16 17
M  V30 17 1 16 18
M  V30 18 2 18 19
M  V30 19 1 11 20
M  V30 20 2 20 21
M  V30 21 1 21 22
M  V30 22 2 22 23
M  V30 23 1 8 2
M  V30 24 1 22 9
M  V30 25 1 19 13
M  V30 26 1 1 24
M  V30 27 1 1 25
M  V30 28 1 1 26
M  V30 29 1 3 27
M  V30 30 1 6 28
M  V30 31 1 7 29
M  V30 32 1 14 30
M  V30 33 1 15 31
M  V30 34 1 18 32
M  V30 35 1 19 33
M  V30 36 1 20 34
M  V30 37 1 21 35
M  V30 END BOND
M  V30 END CTAB
M  END
>  <Dataset>  (387) 
ChEMBL_Kinases

>  <Ligand_Instance>  (387) 
nan

>  <PDB_ID>  (387) 
nan

>  <Standardized_SMILES>  (387) 
Cc1cc(Cl)ccc1-n1nc(Sc2ccc(Cl)cc2)ccc1=O

>  <Name>  (387) 
nan

>  <Pocket>  (387) 
nan

>  <ATP_Site>  (387) 
nan

>  <Peripheral>  (387) 
nan

>  <Num_H_Atoms_ProtBoundConf>  (387) 
nan

>  <Num_Resolved_Atoms>  (387) 
nan

>  <Num_Not_Resolved_Atoms>  (387) 
nan

$$$$
CHEMBL221063
     RDKit          3D

  0  0  0  0  0  0  0  0  0  0999 V3000
M  V30 BEGIN CTAB
M  V30 COUNTS 37 40 0 0 0
M  V30 BEGIN ATOM
M  V30 1 N 1.953590 -3.641467 4.649530 0
M  V30 2 C 1.673482 -2.899053 3.831095 0
M  V30 3 C 1.292913 -1.959993 2.795175 0
M  V30 4 S 2.570775 -1.027587 1.819721 0
M  V30 5 C 1.408717 -0.154217 0.830455 0
M  V30 6 N 1.779483 0.778481 -0.174454 0
M  V30 7 C 1.074451 1.025525 -1.294184 0
M  V30 8 N 1.752178 1.963261 -1.980473 0
M  V30 9 C 2.852117 2.276677 -1.281706 0
M  V30 10 C 3.828783 3.191133 -1.615408 0
M  V30 11 C 4.893497 3.361496 -0.739513 0
M  V30 12 C 4.945668 2.613574 0.437702 0
M  V30 13 C 3.952424 1.697244 0.756600 0
M  V30 14 C 2.889885 1.529575 -0.121026 0
M  V30 15 C 0.225808 -0.579984 1.256735 0
M  V30 16 C 0.069687 -1.494346 2.248314 0
M  V30 17 O -0.970416 -2.104157 2.880146 0
M  V30 18 C -2.325124 -1.963098 2.678852 0
M  V30 19 C -2.843451 -2.309711 1.342402 0
M  V30 20 C -3.118125 -1.565256 0.217508 0
M  V30 21 C -3.590278 -2.172518 -0.926817 0
M  V30 22 C -3.809871 -3.520989 -1.011537 0
M  V30 23 C -3.547506 -4.290957 0.089237 0
M  V30 24 C -3.070624 -3.690385 1.249596 0
M  V30 25 H 0.133974 0.536943 -1.560776 0
M  V30 26 H 3.800048 3.781367 -2.531209 0
M  V30 27 H 5.675717 4.084707 -0.993004 0
M  V30 28 H 5.771901 2.746342 1.116559 0
M  V30 29 H 3.981233 1.121277 1.651077 0
M  V30 30 H -0.645714 -0.161728 0.777258 0
M  V30 31 H -2.866150 -2.516981 3.490596 0
M  V30 32 H -2.616755 -0.890242 2.852542 0
M  V30 33 H -2.924362 -0.515938 0.383042 0
M  V30 34 H -3.779282 -1.511867 -1.764241 0
M  V30 35 H -4.181664 -3.913826 -1.948481 0
M  V30 36 H -3.731203 -5.343122 -0.012825 0
M  V30 37 H -2.908158 -4.436606 2.044484 0
M  V30 END ATOM
M  V30 BEGIN BOND
M  V30 1 3 1 2
M  V30 2 1 2 3
M  V30 3 1 3 4
M  V30 4 1 4 5
M  V30 5 1 5 6
M  V30 6 1 6 7
M  V30 7 2 7 8
M  V30 8 1 8 9
M  V30 9 2 9 10
M  V30 10 1 10 11
M  V30 11 2 11 12
M  V30 12 1 12 13
M  V30 13 2 13 14
M  V30 14 2 5 15
M  V30 15 1 15 16
M  V30 16 1 16 17
M  V30 17 1 17 18
M  V30 18 1 18 19
M  V30 19 2 19 20
M  V30 20 1 20 21
M  V30 21 2 21 22
M  V30 22 1 22 23
M  V30 23 2 23 24
M  V30 24 2 16 3
M  V30 25 1 24 19
M  V30 26 1 14 6
M  V30 27 1 14 9
M  V30 28 1 7 25
M  V30 29 1 10 26
M  V30 30 1 11 27
M  V30 31 1 12 28
M  V30 32 1 13 29
M  V30 33 1 15 30
M  V30 34 1 18 31
M  V30 35 1 18 32
M  V30 36 1 20 33
M  V30 37 1 21 34
M  V30 38 1 22 35
M  V30 39 1 23 36
M  V30 40 1 24 37
M  V30 END BOND
M  V30 END CTAB
M  END
>  <Dataset>  (388) 
ChEMBL_Kinases

>  <Ligand_Instance>  (388) 
nan

>  <PDB_ID>  (388) 
nan

>  <Standardized_SMILES>  (388) 
N#Cc1sc(-n2cnc3ccccc32)cc1OCc1ccccc1

>  <Name>  (388) 
nan

>  <Pocket>  (388) 
nan

>  <ATP_Site>  (388) 
nan

>  <Peripheral>  (388) 
nan

>  <Num_H_Atoms_ProtBoundConf>  (388) 
nan

>  <Num_Resolved_Atoms>  (388) 
nan

>  <Num_Not_Resolved_Atoms>  (388) 
nan

$$$$
CHEMBL221005
     RDKit          3D

  0  0  0  0  0  0  0  0  0  0999 V3000
M  V30 BEGIN CTAB
M  V30 COUNTS 47 50 0 0 0
M  V30 BEGIN ATOM
M  V30 1 C 1.234442 -3.491355 -1.523567 0
M  V30 2 C -0.060270 -2.799773 -1.782732 0
M  V30 3 N -0.121815 -1.490744 -1.123206 0
M  V30 4 C -0.049595 -1.346669 0.285204 0
M  V30 5 C 0.072527 -2.394556 1.170184 0
M  V30 6 C 0.147610 -2.280286 2.541781 0
M  V30 7 C 0.097927 -1.018478 3.095140 0
M  V30 8 N 0.163119 -0.796697 4.420075 0
M  V30 9 C 0.116291 0.427721 4.980195 0
M  V30 10 C -0.004861 1.534134 4.177090 0
M  V30 11 C -0.058999 2.870667 4.738676 0
M  V30 12 N -0.116767 3.950987 5.198480 0
M  V30 13 C -0.075463 1.344841 2.797782 0
M  V30 14 N -0.199732 2.498678 1.993798 0
M  V30 15 C 1.048728 3.067148 1.578253 0
M  V30 16 C 2.259777 2.515061 1.945503 0
M  V30 17 C 3.487675 3.024627 1.571363 0
M  V30 18 C 3.518031 4.158633 0.779264 0
M  V30 19 F 4.742229 4.638316 0.426035 0
M  V30 20 C 2.319613 4.754148 0.381509 0
M  V30 21 Cl 2.404934 6.186961 -0.620015 0
M  V30 22 C 1.104111 4.200874 0.785973 0
M  V30 23 C -0.024104 0.074054 2.262245 0
M  V30 24 C -0.093892 -0.113806 0.897320 0
M  V30 25 C -1.263563 -3.604131 -1.454522 0
M  V30 26 C -1.480423 -4.916342 -1.095847 0
M  V30 27 C -2.739783 -5.366090 -0.850852 0
M  V30 28 C -3.854535 -4.589931 -0.935060 0
M  V30 29 C -3.617194 -3.273865 -1.296934 0
M  V30 30 N -2.369210 -2.811044 -1.544066 0
M  V30 31 H 1.179578 -4.468132 -1.050621 0
M  V30 32 H 1.808557 -2.843675 -0.796269 0
M  V30 33 H 1.856266 -3.482339 -2.446729 0
M  V30 34 H -0.127407 -2.576759 -2.885024 0
M  V30 35 H -0.223289 -0.595957 -1.675732 0
M  V30 36 H 0.114090 -3.407996 0.798342 0
M  V30 37 H 0.243206 -3.144787 3.184935 0
M  V30 38 H 0.174369 0.529520 6.055894 0
M  V30 39 H -1.062025 2.961789 1.683161 0
M  V30 40 H 2.275252 1.618576 2.571104 0
M  V30 41 H 4.422778 2.564020 1.878883 0
M  V30 42 H 0.171301 4.686698 0.460813 0
M  V30 43 H -0.190565 0.784936 0.273836 0
M  V30 44 H -0.552930 -5.457845 -1.054420 0
M  V30 45 H -2.762379 -6.427275 -0.576436 0
M  V30 46 H -4.820960 -5.015926 -0.726319 0
M  V30 47 H -4.502563 -2.622200 -1.372890 0
M  V30 END ATOM
M  V30 BEGIN BOND
M  V30 1 1 1 2
M  V30 2 1 2 3
M  V30 3 1 3 4
M  V30 4 2 4 5
M  V30 5 1 5 6
M  V30 6 2 6 7
M  V30 7 1 7 8
M  V30 8 2 8 9
M  V30 9 1 9 10
M  V30 10 1 10 11
M  V30 11 3 11 12
M  V30 12 2 10 13
M  V30 13 1 13 14
M  V30 14 1 14 15
M  V30 15 2 15 16
M  V30 16 1 16 17
M  V30 17 2 17 18
M  V30 18 1 18 19
M  V30 19 1 18 20
M  V30 20 1 20 21
M  V30 21 2 20 22
M  V30 22 1 13 23
M  V30 23 2 23 24
M  V30 24 1 2 25
M  V30 25 2 25 26
M  V30 26 1 26 27
M  V30 27 2 27 28
M  V30 28 1 28 29
M  V30 29 2 29 30
M  V30 30 1 24 4
M  V30 31 1 30 25
M  V30 32 1 23 7
M  V30 33 1 22 15
M  V30 34 1 1 31
M  V30 35 1 1 32
M  V30 36 1 1 33
M  V30 37 1 2 34
M  V30 38 1 3 35
M  V30 39 1 5 36
M  V30 40 1 6 37
M  V30 41 1 9 38
M  V30 42 1 14 39
M  V30 43 1 16 40
M  V30 44 1 17 41
M  V30 45 1 22 42
M  V30 46 1 24 43
M  V30 47 1 26 44
M  V30 48 1 27 45
M  V30 49 1 28 46
M  V30 50 1 29 47
M  V30 END BOND
M  V30 END CTAB
M  END
>  <Dataset>  (389) 
ChEMBL_Kinases

>  <Ligand_Instance>  (389) 
nan

>  <PDB_ID>  (389) 
nan

>  <Standardized_SMILES>  (389) 
CC(Nc1ccc2ncc(C#N)c(Nc3ccc(F)c(Cl)c3)c2c1)c1ccccn1

>  <Name>  (389) 
nan

>  <Pocket>  (389) 
nan

>  <ATP_Site>  (389) 
nan

>  <Peripheral>  (389) 
nan

>  <Num_H_Atoms_ProtBoundConf>  (389) 
nan

>  <Num_Resolved_Atoms>  (389) 
nan

>  <Num_Not_Resolved_Atoms>  (389) 
nan

$$$$
CHEMBL220973
     RDKit          3D

  0  0  0  0  0  0  0  0  0  0999 V3000
M  V30 BEGIN CTAB
M  V30 COUNTS 64 69 0 0 0
M  V30 BEGIN ATOM
M  V30 1 C 5.316532 -0.319732 2.751703 0
M  V30 2 C 5.237589 0.413719 1.469003 0
M  V30 3 O 5.195379 -0.266481 0.388254 0
M  V30 4 N 5.213046 1.829145 1.505956 0
M  V30 5 C 5.253695 2.712569 2.649839 0
M  V30 6 C 3.927675 3.441642 2.690387 0
M  V30 7 N 3.825757 4.232517 1.515560 0
M  V30 8 C 2.501756 4.543217 1.067297 0
M  V30 9 C 1.663621 3.384334 0.744864 0
M  V30 10 C 1.686342 2.886055 -0.555270 0
M  V30 11 C 0.937616 1.802131 -0.963849 0
M  V30 12 C 0.110886 1.148881 -0.071988 0
M  V30 13 N -0.720077 0.091654 -0.164345 0
M  V30 14 C -1.288779 -0.119714 1.036474 0
M  V30 15 C -2.238030 -1.194512 1.261998 0
M  V30 16 C -2.566550 -2.033347 0.218015 0
M  V30 17 C -3.479855 -3.070280 0.427634 0
M  V30 18 C -3.838114 -3.930352 -0.576904 0
M  V30 19 C -4.725760 -4.970599 -0.448772 0
M  V30 20 C -5.036738 -5.828737 -1.585420 0
M  V30 21 C -5.387241 -7.164581 -1.693764 0
M  V30 22 N -5.568166 -7.462203 -3.007941 0
M  V30 23 N -5.350573 -6.382838 -3.743998 0
M  V30 24 C -5.425270 -6.225803 -5.191473 0
M  V30 25 C -5.023366 -5.369441 -2.892327 0
M  V30 26 C -5.298015 -5.154424 0.801568 0
M  V30 27 C -4.970887 -4.318409 1.840027 0
M  V30 28 C -4.068509 -3.283130 1.657167 0
M  V30 29 N -3.729909 -2.450356 2.656754 0
M  V30 30 C -2.858076 -1.457349 2.464124 0
M  V30 31 O -2.597086 -0.727383 3.445238 0
M  V30 32 C -0.798244 0.831228 1.898269 0
M  V30 33 C 0.090992 1.645700 1.215474 0
M  V30 34 C 0.835656 2.728848 1.634814 0
M  V30 35 C 4.792261 4.025708 0.500315 0
M  V30 36 C 5.137212 2.576914 0.260166 0
M  V30 37 H 4.786519 0.224329 3.568415 0
M  V30 38 H 4.832108 -1.324118 2.631940 0
M  V30 39 H 6.332433 -0.516489 3.109456 0
M  V30 40 H 6.057840 3.458618 2.462071 0
M  V30 41 H 5.458333 2.169823 3.594392 0
M  V30 42 H 3.902378 4.111430 3.573946 0
M  V30 43 H 3.147108 2.636582 2.786180 0
M  V30 44 H 2.618203 5.155552 0.145947 0
M  V30 45 H 2.047577 5.209414 1.837110 0
M  V30 46 H 2.331135 3.381730 -1.284875 0
M  V30 47 H 0.993202 1.453955 -1.992964 0
M  V30 48 H -0.843859 -0.424672 -1.063813 0
M  V30 49 H -2.169457 -1.957642 -0.777118 0
M  V30 50 H -3.394440 -3.788238 -1.548043 0
M  V30 51 H -5.476583 -7.786746 -0.813898 0
M  V30 52 H -6.014173 -7.049870 -5.609373 0
M  V30 53 H -5.917640 -5.230006 -5.372296 0
M  V30 54 H -4.432080 -6.188450 -5.666599 0
M  V30 55 H -4.787213 -4.345960 -3.223229 0
M  V30 56 H -6.004664 -5.977507 0.918478 0
M  V30 57 H -5.406054 -4.444456 2.822975 0
M  V30 58 H -4.166478 -2.597302 3.594929 0
M  V30 59 H -1.049897 0.937284 2.922394 0
M  V30 60 H 0.794469 3.089330 2.652044 0
M  V30 61 H 4.450201 4.444445 -0.457375 0
M  V30 62 H 5.728357 4.554797 0.775046 0
M  V30 63 H 6.162252 2.554844 -0.173611 0
M  V30 64 H 4.474116 2.099351 -0.483266 0
M  V30 END ATOM
M  V30 BEGIN BOND
M  V30 1 1 1 2
M  V30 2 2 2 3
M  V30 3 1 2 4
M  V30 4 1 4 5
M  V30 5 1 5 6
M  V30 6 1 6 7
M  V30 7 1 7 8
M  V30 8 1 8 9
M  V30 9 2 9 10
M  V30 10 1 10 11
M  V30 11 2 11 12
M  V30 12 1 12 13
M  V30 13 1 13 14
M  V30 14 1 14 15
M  V30 15 2 15 16
M  V30 16 1 16 17
M  V30 17 2 17 18
M  V30 18 1 18 19
M  V30 19 1 19 20
M  V30 20 1 20 21
M  V30 21 2 21 22
M  V30 22 1 22 23
M  V30 23 1 23 24
M  V30 24 1 23 25
M  V30 25 2 19 26
M  V30 26 1 26 27
M  V30 27 2 27 28
M  V30 28 1 28 29
M  V30 29 1 29 30
M  V30 30 2 30 31
M  V30 31 2 14 32
M  V30 32 1 32 33
M  V30 33 2 33 34
M  V30 34 1 7 35
M  V30 35 1 35 36
M  V30 36 1 36 4
M  V30 37 1 34 9
M  V30 38 1 33 12
M  V30 39 1 30 15
M  V30 40 1 28 17
M  V30 41 2 25 20
M  V30 42 1 1 37
M  V30 43 1 1 38
M  V30 44 1 1 39
M  V30 45 1 5 40
M  V30 46 1 5 41
M  V30 47 1 6 42
M  V30 48 1 6 43
M  V30 49 1 8 44
M  V30 50 1 8 45
M  V30 51 1 10 46
M  V30 52 1 11 47
M  V30 53 1 13 48
M  V30 54 1 16 49
M  V30 55 1 18 50
M  V30 56 1 21 51
M  V30 57 1 24 52
M  V30 58 1 24 53
M  V30 59 1 24 54
M  V30 60 1 25 55
M  V30 61 1 26 56
M  V30 62 1 27 57
M  V30 63 1 29 58
M  V30 64 1 32 59
M  V30 65 1 34 60
M  V30 66 1 35 61
M  V30 67 1 35 62
M  V30 68 1 36 63
M  V30 69 1 36 64
M  V30 END BOND
M  V30 END CTAB
M  END
>  <Dataset>  (390) 
ChEMBL_Kinases

>  <Ligand_Instance>  (390) 
nan

>  <PDB_ID>  (390) 
nan

>  <Standardized_SMILES>  (390) 
CC(=O)N1CCN(Cc2ccc3[nH]c(-c4cc5cc(-c6cnn(C)c6)ccc5[nH]c4=O)cc3c2)CC1

>  <Name>  (390) 
nan

>  <Pocket>  (390) 
nan

>  <ATP_Site>  (390) 
nan

>  <Peripheral>  (390) 
nan

>  <Num_H_Atoms_ProtBoundConf>  (390) 
nan

>  <Num_Resolved_Atoms>  (390) 
nan

>  <Num_Not_Resolved_Atoms>  (390) 
nan

$$$$
CHEMBL220962
     RDKit          3D

  0  0  0  0  0  0  0  0  0  0999 V3000
M  V30 BEGIN CTAB
M  V30 COUNTS 115 118 0 0 0
M  V30 BEGIN ATOM
M  V30 1 C 1.696329 -0.492993 1.729281 0
M  V30 2 O 0.859210 -0.137363 0.679473 0
M  V30 3 C 1.267698 0.596287 -0.398503 0
M  V30 4 O 2.467605 0.734904 -0.022857 0
M  V30 5 C 0.708758 1.143491 -1.646740 0
M  V30 6 C 0.875440 0.098258 -2.762842 0
M  V30 7 C 2.334434 -0.165798 -2.904839 0
M  V30 8 C 2.815823 -1.128279 -3.886544 0
M  V30 9 C 2.610440 -0.989058 -5.332144 0
M  V30 10 C 3.153963 0.163912 -6.064443 0
M  V30 11 C 2.611441 1.520118 -5.903984 0
M  V30 12 C 1.175448 1.638100 -6.408110 0
M  V30 13 C 1.143276 1.251377 -7.890407 0
M  V30 14 C -0.256360 1.392786 -8.399230 0
M  V30 15 C -0.357602 0.989437 -9.864276 0
M  V30 16 C 0.004423 -0.485285 -10.062113 0
M  V30 17 C -0.065692 -0.925255 -11.486492 0
M  V30 18 C 0.293523 -2.344954 -11.751114 0
M  V30 19 C -0.584823 -3.373419 -11.073118 0
M  V30 20 O -0.679501 -3.416479 -9.767475 0
M  V30 21 C -0.354838 -3.533778 -8.512519 0
M  V30 22 C -1.536136 -3.342857 -7.771874 0
M  V30 23 C -1.530194 -3.399541 -6.367439 0
M  V30 24 C -0.283630 -3.655634 -5.767693 0
M  V30 25 C -0.328155 -3.658552 -4.317401 0
M  V30 26 C -0.372968 -3.640742 -3.106385 0
M  V30 27 C -0.433686 -3.595967 -1.681578 0
M  V30 28 C -1.427997 -2.732565 -1.195685 0
M  V30 29 C -1.604889 -2.536107 0.178548 0
M  V30 30 C -0.735023 -3.248199 1.023469 0
M  V30 31 C -0.974760 -2.924000 2.418824 0
M  V30 32 C -1.170216 -2.633890 3.573296 0
M  V30 33 C -1.409102 -2.258423 4.959546 0
M  V30 34 C -0.269925 -1.730166 5.582208 0
M  V30 35 C -0.442262 -1.307959 6.869944 0
M  V30 36 C -1.650481 -1.389623 7.525668 0
M  V30 37 C -1.896982 -0.919484 8.895864 0
M  V30 38 O -3.002859 -0.980483 9.478971 0
M  V30 39 O -0.814741 -0.385646 9.534637 0
M  V30 40 C -0.719984 0.164560 10.809584 0
M  V30 41 C -1.543544 1.426222 10.920482 0
M  V30 42 C -1.000449 2.388011 9.845904 0
M  V30 43 O -1.192914 1.842439 8.578121 0
M  V30 44 C -1.396349 2.083321 12.256628 0
M  V30 45 C -2.671580 2.852583 12.388458 0
M  V30 46 C -3.073242 3.990180 12.953722 0
M  V30 47 C -4.486778 4.491861 12.892941 0
M  V30 48 C -2.044475 4.790337 13.689851 0
M  V30 49 C -3.630192 1.991645 11.660808 0
M  V30 50 O -4.887739 1.862448 11.794649 0
M  V30 51 O -2.919182 1.250185 10.698337 0
M  V30 52 C -2.751752 -1.923121 6.867837 0
M  V30 53 C -2.652211 -2.378214 5.543599 0
M  V30 54 C 0.239541 -4.096657 0.553595 0
M  V30 55 C 0.381412 -4.263225 -0.805267 0
M  V30 56 C 0.870743 -3.844814 -6.474187 0
M  V30 57 C 0.818106 -3.779991 -7.877375 0
M  V30 58 H 2.283940 0.384973 2.056741 0
M  V30 59 H 2.380555 -1.329188 1.453311 0
M  V30 60 H 1.014947 -0.827527 2.567385 0
M  V30 61 H -0.390025 1.384088 -1.516190 0
M  V30 62 H 1.197526 2.089249 -1.905270 0
M  V30 63 H 0.296473 -0.819459 -2.493428 0
M  V30 64 H 0.374272 0.508018 -3.650369 0
M  V30 65 H 2.842506 0.844104 -2.957449 0
M  V30 66 H 2.742051 -0.522217 -1.873755 0
M  V30 67 H 3.967037 -1.203552 -3.756813 0
M  V30 68 H 2.543550 -2.208434 -3.585026 0
M  V30 69 H 1.498396 -1.135345 -5.535067 0
M  V30 70 H 3.043929 -1.923997 -5.834430 0
M  V30 71 H 3.263550 -0.055139 -7.175805 0
M  V30 72 H 4.268773 0.252429 -5.775923 0
M  V30 73 H 2.638169 1.969089 -4.923095 0
M  V30 74 H 3.200173 2.197341 -6.580129 0
M  V30 75 H 0.894444 2.697849 -6.346888 0
M  V30 76 H 0.453937 1.038161 -5.849135 0
M  V30 77 H 1.842570 1.900224 -8.436673 0
M  V30 78 H 1.444082 0.181931 -7.996584 0
M  V30 79 H -0.959170 0.806925 -7.771881 0
M  V30 80 H -0.540513 2.474640 -8.346914 0
M  V30 81 H -1.377129 1.176065 -10.245564 0
M  V30 82 H 0.328706 1.649739 -10.426193 0
M  V30 83 H -0.799123 -1.004460 -9.447367 0
M  V30 84 H 0.953776 -0.686205 -9.586463 0
M  V30 85 H 0.554040 -0.210897 -12.076277 0
M  V30 86 H -1.121936 -0.704611 -11.823878 0
M  V30 87 H 0.120483 -2.508705 -12.857762 0
M  V30 88 H 1.367454 -2.566531 -11.619743 0
M  V30 89 H -1.618724 -3.233275 -11.541779 0
M  V30 90 H -0.245496 -4.399423 -11.466728 0
M  V30 91 H -2.559211 -3.135290 -8.127557 0
M  V30 92 H -2.436102 -3.252594 -5.761073 0
M  V30 93 H -2.118609 -2.165550 -1.840602 0
M  V30 94 H -2.389946 -1.853414 0.496462 0
M  V30 95 H 0.675728 -1.648389 5.112384 0
M  V30 96 H 0.338971 -0.876967 7.481937 0
M  V30 97 H -1.007449 -0.543001 11.626836 0
M  V30 98 H 0.324116 0.453501 11.041224 0
M  V30 99 H 0.055386 2.584147 10.049892 0
M  V30 100 H -1.548005 3.344109 9.887746 0
M  V30 101 H -0.490069 2.108943 7.962479 0
M  V30 102 H -1.385919 1.377551 13.113104 0
M  V30 103 H -0.515363 2.723887 12.365142 0
M  V30 104 H -4.874513 4.207388 11.874909 0
M  V30 105 H -5.107731 4.109284 13.709661 0
M  V30 106 H -4.403490 5.614632 12.876434 0
M  V30 107 H -2.521560 5.164901 14.628055 0
M  V30 108 H -1.817532 5.647984 13.037536 0
M  V30 109 H -1.135325 4.212825 13.880068 0
M  V30 110 H -3.727735 -2.026996 7.307826 0
M  V30 111 H -3.468064 -2.795621 4.998706 0
M  V30 112 H 0.845266 -4.589989 1.285581 0
M  V30 113 H 1.126827 -4.915069 -1.231246 0
M  V30 114 H 1.798937 -4.037672 -5.962930 0
M  V30 115 H 1.682351 -3.915380 -8.504681 0
M  V30 END ATOM
M  V30 BEGIN BOND
M  V30 1 1 1 2
M  V30 2 1 2 3
M  V30 3 2 3 4
M  V30 4 1 3 5
M  V30 5 1 5 6
M  V30 6 1 6 7
M  V30 7 1 7 8
M  V30 8 1 8 9
M  V30 9 1 9 10
M  V30 10 1 10 11
M  V30 11 1 11 12
M  V30 12 1 12 13
M  V30 13 1 13 14
M  V30 14 1 14 15
M  V30 15 1 15 16
M  V30 16 1 16 17
M  V30 17 1 17 18
M  V30 18 1 18 19
M  V30 19 1 19 20
M  V30 20 1 20 21
M  V30 21 2 21 22
M  V30 22 1 22 23
M  V30 23 2 23 24
M  V30 24 1 24 25
M  V30 25 3 25 26
M  V30 26 1 26 27
M  V30 27 2 27 28
M  V30 28 1 28 29
M  V30 29 2 29 30
M  V30 30 1 30 31
M  V30 31 3 31 32
M  V30 32 1 32 33
M  V30 33 2 33 34
M  V30 34 1 34 35
M  V30 35 2 35 36
M  V30 36 1 36 37
M  V30 37 2 37 38
M  V30 38 1 37 39
M  V30 39 1 39 40
M  V30 40 1 40 41
M  V30 41 1 41 42
M  V30 42 1 42 43
M  V30 43 1 41 44
M  V30 44 1 44 45
M  V30 45 2 45 46 CFG=2
M  V30 46 1 46 47
M  V30 47 1 46 48
M  V30 48 1 45 49
M  V30 49 2 49 50
M  V30 50 1 49 51
M  V30 51 1 36 52
M  V30 52 2 52 53
M  V30 53 1 30 54
M  V30 54 2 54 55
M  V30 55 1 24 56
M  V30 56 2 56 57
M  V30 57 1 57 21
M  V30 58 1 55 27
M  V30 59 1 53 33
M  V30 60 1 51 41
M  V30 61 1 1 58
M  V30 62 1 1 59
M  V30 63 1 1 60
M  V30 64 1 5 61
M  V30 65 1 5 62
M  V30 66 1 6 63
M  V30 67 1 6 64
M  V30 68 1 7 65
M  V30 69 1 7 66
M  V30 70 1 8 67
M  V30 71 1 8 68
M  V30 72 1 9 69
M  V30 73 1 9 70
M  V30 74 1 10 71
M  V30 75 1 10 72
M  V30 76 1 11 73
M  V30 77 1 11 74
M  V30 78 1 12 75
M  V30 79 1 12 76
M  V30 80 1 13 77
M  V30 81 1 13 78
M  V30 82 1 14 79
M  V30 83 1 14 80
M  V30 84 1 15 81
M  V30 85 1 15 82
M  V30 86 1 16 83
M  V30 87 1 16 84
M  V30 88 1 17 85
M  V30 89 1 17 86
M  V30 90 1 18 87
M  V30 91 1 18 88
M  V30 92 1 19 89
M  V30 93 1 19 90
M  V30 94 1 22 91
M  V30 95 1 23 92
M  V30 96 1 28 93
M  V30 97 1 29 94
M  V30 98 1 34 95
M  V30 99 1 35 96
M  V30 100 1 40 97
M  V30 101 1 40 98
M  V30 102 1 42 99
M  V30 103 1 42 100
M  V30 104 1 43 101
M  V30 105 1 44 102
M  V30 106 1 44 103
M  V30 107 1 47 104
M  V30 108 1 47 105
M  V30 109 1 47 106
M  V30 110 1 48 107
M  V30 111 1 48 108
M  V30 112 1 48 109
M  V30 113 1 52 110
M  V30 114 1 53 111
M  V30 115 1 54 112
M  V30 116 1 55 113
M  V30 117 1 56 114
M  V30 118 1 57 115
M  V30 END BOND
M  V30 END CTAB
M  END
>  <Dataset>  (391) 
ChEMBL_Kinases

>  <Ligand_Instance>  (391) 
nan

>  <PDB_ID>  (391) 
nan

>  <Standardized_SMILES>  (391) 
COC(=O)CCCCCCCCCCCCCCCOc1ccc(C#Cc2ccc(C#Cc3ccc(C(=O)OCC4(CO)CC(=C(C)C)C(=O)O4)cc3)cc2)cc1

>  <Name>  (391) 
nan

>  <Pocket>  (391) 
nan

>  <ATP_Site>  (391) 
nan

>  <Peripheral>  (391) 
nan

>  <Num_H_Atoms_ProtBoundConf>  (391) 
nan

>  <Num_Resolved_Atoms>  (391) 
nan

>  <Num_Not_Resolved_Atoms>  (391) 
nan

$$$$
CHEMBL220956
     RDKit          3D

  0  0  0  0  0  0  0  0  0  0999 V3000
M  V30 BEGIN CTAB
M  V30 COUNTS 57 62 0 0 0
M  V30 BEGIN ATOM
M  V30 1 O 3.111843 -2.221161 -0.248067 0
M  V30 2 C 3.179264 -1.047327 0.165624 0
M  V30 3 N 4.375984 -0.624063 0.610108 0
M  V30 4 C 4.522771 0.643387 1.075459 0
M  V30 5 C 5.735382 1.110074 1.538716 0
M  V30 6 C 5.903585 2.399253 2.016912 0
M  V30 7 C 4.803632 3.234129 2.022013 0
M  V30 8 C 4.965574 4.599023 2.524289 0
M  V30 9 C 4.248734 5.703058 2.078567 0
M  V30 10 N 4.677583 6.774098 2.775967 0
M  V30 11 N 5.629658 6.381355 3.634955 0
M  V30 12 C 5.835634 5.048833 3.510464 0
M  V30 13 C 3.574111 2.793765 1.563363 0
M  V30 14 C 3.438823 1.496001 1.090614 0
M  V30 15 C 2.229379 1.019810 0.625029 0
M  V30 16 C 2.046857 -0.261103 0.146072 0
M  V30 17 C 0.742258 -0.701121 -0.331327 0
M  V30 18 C 0.373754 -1.917560 -0.833766 0
M  V30 19 C -0.983215 -1.913783 -1.175205 0
M  V30 20 C -1.809531 -2.875358 -1.707613 0
M  V30 21 C -3.135616 -2.577344 -1.942326 0
M  V30 22 C -4.131519 -3.496376 -2.504244 0
M  V30 23 N -4.851421 -4.283250 -1.556818 0
M  V30 24 C -5.600098 -3.520393 -0.606299 0
M  V30 25 C -6.165464 -4.362036 0.507059 0
M  V30 26 C -5.097669 -5.189156 1.187244 0
M  V30 27 F -4.944064 -4.927070 2.514098 0
M  V30 28 C -3.769776 -5.077147 0.428742 0
M  V30 29 C -4.075889 -5.354317 -1.014236 0
M  V30 30 C -3.577796 -1.300004 -1.624126 0
M  V30 31 C -2.727091 -0.338335 -1.085526 0
M  V30 32 C -1.397610 -0.634128 -0.849192 0
M  V30 33 N -0.362777 0.065732 -0.352360 0
M  V30 34 H 5.220444 -1.238594 0.614956 0
M  V30 35 H 6.577636 0.413039 1.515340 0
M  V30 36 H 6.898682 2.708827 2.372470 0
M  V30 37 H 3.486287 5.630353 1.294174 0
M  V30 38 H 6.111783 7.055157 4.287050 0
M  V30 39 H 6.538873 4.446317 4.067154 0
M  V30 40 H 2.748568 3.464048 1.582063 0
M  V30 41 H 1.420586 1.731683 0.662052 0
M  V30 42 H 0.980262 -2.787705 -0.973495 0
M  V30 43 H -1.464916 -3.868824 -1.954944 0
M  V30 44 H -4.876210 -2.969499 -3.149041 0
M  V30 45 H -3.574384 -4.194864 -3.173918 0
M  V30 46 H -6.461681 -3.024664 -1.104177 0
M  V30 47 H -4.991431 -2.693120 -0.165173 0
M  V30 48 H -6.539727 -3.637648 1.287384 0
M  V30 49 H -7.035444 -4.960287 0.197671 0
M  V30 50 H -5.397981 -6.257612 1.067526 0
M  V30 51 H -3.277625 -4.105608 0.578003 0
M  V30 52 H -3.084908 -5.863815 0.835266 0
M  V30 53 H -4.674965 -6.291290 -1.046791 0
M  V30 54 H -3.195313 -5.503536 -1.653906 0
M  V30 55 H -4.599482 -0.930828 -1.757950 0
M  V30 56 H -3.064173 0.666482 -0.832475 0
M  V30 57 H -0.448156 1.050745 -0.042337 0
M  V30 END ATOM
M  V30 BEGIN BOND
M  V30 1 2 1 2
M  V30 2 1 2 3
M  V30 3 1 3 4
M  V30 4 2 4 5
M  V30 5 1 5 6
M  V30 6 2 6 7
M  V30 7 1 7 8
M  V30 8 1 8 9
M  V30 9 2 9 10
M  V30 10 1 10 11
M  V30 11 1 11 12
M  V30 12 1 7 13
M  V30 13 2 13 14
M  V30 14 1 14 15
M  V30 15 2 15 16
M  V30 16 1 16 17
M  V30 17 2 17 18
M  V30 18 1 18 19
M  V30 19 2 19 20
M  V30 20 1 20 21
M  V30 21 1 21 22
M  V30 22 1 22 23
M  V30 23 1 23 24
M  V30 24 1 24 25
M  V30 25 1 25 26
M  V30 26 1 26 27
M  V30 27 1 26 28
M  V30 28 1 28 29
M  V30 29 2 21 30
M  V30 30 1 30 31
M  V30 31 2 31 32
M  V30 32 1 32 33
M  V30 33 1 16 2
M  V30 34 1 33 17
M  V30 35 1 14 4
M  V30 36 1 32 19
M  V30 37 2 12 8
M  V30 38 1 29 23
M  V30 39 1 3 34
M  V30 40 1 5 35
M  V30 41 1 6 36
M  V30 42 1 9 37
M  V30 43 1 11 38
M  V30 44 1 12 39
M  V30 45 1 13 40
M  V30 46 1 15 41
M  V30 47 1 18 42
M  V30 48 1 20 43
M  V30 49 1 22 44
M  V30 50 1 22 45
M  V30 51 1 24 46
M  V30 52 1 24 47
M  V30 53 1 25 48
M  V30 54 1 25 49
M  V30 55 1 26 50
M  V30 56 1 28 51
M  V30 57 1 28 52
M  V30 58 1 29 53
M  V30 59 1 29 54
M  V30 60 1 30 55
M  V30 61 1 31 56
M  V30 62 1 33 57
M  V30 END BOND
M  V30 END CTAB
M  END
>  <Dataset>  (392) 
ChEMBL_Kinases

>  <Ligand_Instance>  (392) 
nan

>  <PDB_ID>  (392) 
nan

>  <Standardized_SMILES>  (392) 
O=c1[nH]c2ccc(-c3cn[nH]c3)cc2cc1-c1cc2cc(CN3CCC(F)CC3)ccc2[nH]1

>  <Name>  (392) 
nan

>  <Pocket>  (392) 
nan

>  <ATP_Site>  (392) 
nan

>  <Peripheral>  (392) 
nan

>  <Num_H_Atoms_ProtBoundConf>  (392) 
nan

>  <Num_Resolved_Atoms>  (392) 
nan

>  <Num_Not_Resolved_Atoms>  (392) 
nan

$$$$
CHEMBL220925
     RDKit          3D

  0  0  0  0  0  0  0  0  0  0999 V3000
M  V30 BEGIN CTAB
M  V30 COUNTS 56 60 0 0 0
M  V30 BEGIN ATOM
M  V30 1 N 5.919019 -9.413288 1.737455 0
M  V30 2 C 5.378207 -8.404556 1.548300 0
M  V30 3 C 4.721098 -7.139578 1.326789 0
M  V30 4 C 5.052063 -5.979481 2.009109 0
M  V30 5 C 4.396422 -4.785941 1.766245 0
M  V30 6 C 3.392841 -4.795187 0.811435 0
M  V30 7 C 2.782828 -3.571744 0.621406 0
M  V30 8 C 1.760246 -3.432066 -0.304094 0
M  V30 9 C 1.073587 -2.168715 -0.554337 0
M  V30 10 C 1.400707 -1.009542 0.123181 0
M  V30 11 C 0.602569 0.034351 -0.302445 0
M  V30 12 C 0.496309 1.371681 0.020748 0
M  V30 13 C -0.410804 2.222852 -0.569265 0
M  V30 14 C -0.544487 3.667965 -0.238280 0
M  V30 15 N -1.466461 3.840622 0.783125 0
M  V30 16 C -1.320549 3.268602 2.045695 0
M  V30 17 C -2.244549 2.111225 2.214149 0
M  V30 18 C -3.573349 2.222668 1.576968 0
M  V30 19 C -3.974050 0.874091 1.010809 0
M  V30 20 N -5.276082 0.934758 0.373156 0
M  V30 21 C -3.726334 3.242282 0.508095 0
M  V30 22 C -2.738945 4.381541 0.568407 0
M  V30 23 C -1.220618 1.627246 -1.525764 0
M  V30 24 C -1.154171 0.295455 -1.884900 0
M  V30 25 C -0.225507 -0.512389 -1.260667 0
M  V30 26 N 0.077107 -1.816871 -1.387334 0
M  V30 27 C 1.443655 -4.594857 -0.973639 0
M  V30 28 O 0.536743 -4.613348 -1.839659 0
M  V30 29 N 2.034948 -5.791899 -0.792960 0
M  V30 30 C 3.026993 -5.923463 0.106156 0
M  V30 31 C 3.713399 -7.096578 0.384657 0
M  V30 32 H 5.852415 -6.105508 2.728211 0
M  V30 33 H 4.690004 -3.906036 2.324113 0
M  V30 34 H 3.070704 -2.672522 1.180018 0
M  V30 35 H 2.151424 -0.874159 0.877685 0
M  V30 36 H 1.158148 1.757992 0.769399 0
M  V30 37 H 0.481621 4.064679 -0.023307 0
M  V30 38 H -0.882403 4.163171 -1.177000 0
M  V30 39 H -1.583180 4.000210 2.863816 0
M  V30 40 H -0.285717 2.929333 2.278402 0
M  V30 41 H -1.715913 1.194555 1.878477 0
M  V30 42 H -2.369863 1.945190 3.325045 0
M  V30 43 H -4.348043 2.440628 2.360996 0
M  V30 44 H -3.242707 0.530267 0.248492 0
M  V30 45 H -3.961956 0.083238 1.795181 0
M  V30 46 H -5.782718 0.057127 0.588332 0
M  V30 47 H -5.187802 1.028211 -0.671197 0
M  V30 48 H -3.692298 2.832979 -0.522253 0
M  V30 49 H -4.739571 3.740553 0.561154 0
M  V30 50 H -2.855670 4.962760 -0.375062 0
M  V30 51 H -3.099768 5.022899 1.427424 0
M  V30 52 H -1.972731 2.190267 -2.061460 0
M  V30 53 H -1.802926 -0.134002 -2.636057 0
M  V30 54 H -0.379193 -2.484967 -2.031661 0
M  V30 55 H 1.777397 -6.648568 -1.309309 0
M  V30 56 H 3.411418 -7.969998 -0.179138 0
M  V30 END ATOM
M  V30 BEGIN BOND
M  V30 1 3 1 2
M  V30 2 1 2 3
M  V30 3 2 3 4
M  V30 4 1 4 5
M  V30 5 2 5 6
M  V30 6 1 6 7
M  V30 7 2 7 8
M  V30 8 1 8 9
M  V30 9 2 9 10
M  V30 10 1 10 11
M  V30 11 2 11 12
M  V30 12 1 12 13
M  V30 13 1 13 14
M  V30 14 1 14 15
M  V30 15 1 15 16
M  V30 16 1 16 17
M  V30 17 1 17 18
M  V30 18 1 18 19
M  V30 19 1 19 20
M  V30 20 1 18 21
M  V30 21 1 21 22
M  V30 22 2 13 23
M  V30 23 1 23 24
M  V30 24 2 24 25
M  V30 25 1 25 26
M  V30 26 1 8 27
M  V30 27 2 27 28
M  V30 28 1 27 29
M  V30 29 1 29 30
M  V30 30 2 30 31
M  V30 31 1 31 3
M  V30 32 1 30 6
M  V30 33 1 26 9
M  V30 34 1 25 11
M  V30 35 1 22 15
M  V30 36 1 4 32
M  V30 37 1 5 33
M  V30 38 1 7 34
M  V30 39 1 10 35
M  V30 40 1 12 36
M  V30 41 1 14 37
M  V30 42 1 14 38
M  V30 43 1 16 39
M  V30 44 1 16 40
M  V30 45 1 17 41
M  V30 46 1 17 42
M  V30 47 1 18 43
M  V30 48 1 19 44
M  V30 49 1 19 45
M  V30 50 1 20 46
M  V30 51 1 20 47
M  V30 52 1 21 48
M  V30 53 1 21 49
M  V30 54 1 22 50
M  V30 55 1 22 51
M  V30 56 1 23 52
M  V30 57 1 24 53
M  V30 58 1 26 54
M  V30 59 1 29 55
M  V30 60 1 31 56
M  V30 END BOND
M  V30 END CTAB
M  END
>  <Dataset>  (393) 
ChEMBL_Kinases

>  <Ligand_Instance>  (393) 
nan

>  <PDB_ID>  (393) 
nan

>  <Standardized_SMILES>  (393) 
N#Cc1ccc2cc(-c3cc4cc(CN5CCC(CN)CC5)ccc4[nH]3)c(=O)[nH]c2c1

>  <Name>  (393) 
nan

>  <Pocket>  (393) 
nan

>  <ATP_Site>  (393) 
nan

>  <Peripheral>  (393) 
nan

>  <Num_H_Atoms_ProtBoundConf>  (393) 
nan

>  <Num_Resolved_Atoms>  (393) 
nan

>  <Num_Not_Resolved_Atoms>  (393) 
nan

$$$$
CHEMBL220903
     RDKit          3D

  0  0  0  0  0  0  0  0  0  0999 V3000
M  V30 BEGIN CTAB
M  V30 COUNTS 65 70 0 0 0
M  V30 BEGIN ATOM
M  V30 1 C 7.919081 3.129181 4.708210 0
M  V30 2 O 7.304084 3.553498 3.661158 0
M  V30 3 C 6.677138 3.973300 2.602985 0
M  V30 4 C 5.697998 3.287603 1.921713 0
M  V30 5 C 5.051461 3.751458 0.805871 0
M  V30 6 C 3.984171 3.145793 0.025134 0
M  V30 7 C 3.926260 3.374268 -1.331969 0
M  V30 8 C 2.979075 2.907881 -2.212432 0
M  V30 9 C 1.984514 2.126576 -1.662072 0
M  V30 10 N 0.993659 1.607890 -2.390035 0
M  V30 11 C 0.035599 0.858752 -1.829850 0
M  V30 12 O -0.809025 0.459788 -2.671625 0
M  V30 13 C -0.055595 0.538408 -0.502349 0
M  V30 14 C -1.119995 -0.282607 0.050675 0
M  V30 15 C -2.068574 -0.940507 -0.696636 0
M  V30 16 C -2.913023 -1.635211 0.139383 0
M  V30 17 C -4.016326 -2.452415 0.017373 0
M  V30 18 C -4.723130 -3.052507 1.030074 0
M  V30 19 C -5.875082 -3.906820 0.657396 0
M  V30 20 N -5.554190 -5.285585 0.515589 0
M  V30 21 C -4.543385 -5.627059 -0.421939 0
M  V30 22 C -5.010014 -5.880856 -1.825954 0
M  V30 23 C -5.822234 -7.151366 -1.831559 0
M  V30 24 C -6.357462 -7.372985 -0.444484 0
M  V30 25 C -6.732087 -6.050385 0.222880 0
M  V30 26 C -4.253541 -2.788698 2.297674 0
M  V30 27 C -3.140895 -1.972731 2.524318 0
M  V30 28 C -2.466001 -1.393530 1.443815 0
M  V30 29 N -1.408444 -0.592087 1.320541 0
M  V30 30 C 0.966970 1.059408 0.316251 0
M  V30 31 C 1.952175 1.838150 -0.308197 0
M  V30 32 C 2.951809 2.350266 0.518385 0
M  V30 33 C 5.467144 5.023142 0.383082 0
M  V30 34 C 6.456540 5.792183 1.018269 0
M  V30 35 C 7.062344 5.220695 2.163011 0
M  V30 36 O 8.012159 6.111666 2.667470 0
M  V30 37 H 7.237595 3.114940 5.631485 0
M  V30 38 H 8.806529 3.708294 5.107093 0
M  V30 39 H 8.229220 2.044509 4.613273 0
M  V30 40 H 5.381696 2.317459 2.244544 0
M  V30 41 H 4.692809 3.983584 -1.815724 0
M  V30 42 H 2.995777 3.129829 -3.271429 0
M  V30 43 H 1.035811 1.835550 -3.410752 0
M  V30 44 H -2.259279 -1.010152 -1.738734 0
M  V30 45 H -4.355606 -2.632976 -1.012823 0
M  V30 46 H -6.314018 -3.490571 -0.274001 0
M  V30 47 H -6.647553 -3.794403 1.439664 0
M  V30 48 H -3.693476 -4.917682 -0.458193 0
M  V30 49 H -4.085895 -6.594309 -0.047726 0
M  V30 50 H -4.105768 -6.054834 -2.437321 0
M  V30 51 H -5.554703 -5.023220 -2.251488 0
M  V30 52 H -6.608585 -7.143174 -2.613998 0
M  V30 53 H -5.148368 -8.003019 -2.058106 0
M  V30 54 H -7.330461 -7.924560 -0.569101 0
M  V30 55 H -5.726068 -8.007356 0.184616 0
M  V30 56 H -7.372636 -5.509769 -0.519630 0
M  V30 57 H -7.323031 -6.331431 1.106224 0
M  V30 58 H -4.812728 -3.261470 3.116811 0
M  V30 59 H -2.803722 -1.787857 3.524082 0
M  V30 60 H -0.838907 -0.223758 2.119643 0
M  V30 61 H 0.972529 0.853312 1.376891 0
M  V30 62 H 2.976487 2.153692 1.587427 0
M  V30 63 H 5.005901 5.464966 -0.491901 0
M  V30 64 H 6.682665 6.748693 0.594045 0
M  V30 65 H 7.729545 7.023349 3.047766 0
M  V30 END ATOM
M  V30 BEGIN BOND
M  V30 1 1 1 2
M  V30 2 1 2 3
M  V30 3 2 3 4
M  V30 4 1 4 5
M  V30 5 1 5 6
M  V30 6 2 6 7
M  V30 7 1 7 8
M  V30 8 2 8 9
M  V30 9 1 9 10
M  V30 10 1 10 11
M  V30 11 2 11 12
M  V30 12 1 11 13
M  V30 13 1 13 14
M  V30 14 2 14 15
M  V30 15 1 15 16
M  V30 16 2 16 17
M  V30 17 1 17 18
M  V30 18 1 18 19
M  V30 19 1 19 20
M  V30 20 1 20 21
M  V30 21 1 21 22
M  V30 22 1 22 23
M  V30 23 1 23 24
M  V30 24 1 24 25
M  V30 25 2 18 26
M  V30 26 1 26 27
M  V30 27 2 27 28
M  V30 28 1 28 29
M  V30 29 2 13 30
M  V30 30 1 30 31
M  V30 31 2 31 32
M  V30 32 2 5 33
M  V30 33 1 33 34
M  V30 34 2 34 35
M  V30 35 1 35 36
M  V30 36 1 35 3
M  V30 37 1 32 6
M  V30 38 1 31 9
M  V30 39 1 29 14
M  V30 40 1 28 16
M  V30 41 1 25 20
M  V30 42 1 1 37
M  V30 43 1 1 38
M  V30 44 1 1 39
M  V30 45 1 4 40
M  V30 46 1 7 41
M  V30 47 1 8 42
M  V30 48 1 10 43
M  V30 49 1 15 44
M  V30 50 1 17 45
M  V30 51 1 19 46
M  V30 52 1 19 47
M  V30 53 1 21 48
M  V30 54 1 21 49
M  V30 55 1 22 50
M  V30 56 1 22 51
M  V30 57 1 23 52
M  V30 58 1 23 53
M  V30 59 1 24 54
M  V30 60 1 24 55
M  V30 61 1 25 56
M  V30 62 1 25 57
M  V30 63 1 26 58
M  V30 64 1 27 59
M  V30 65 1 29 60
M  V30 66 1 30 61
M  V30 67 1 32 62
M  V30 68 1 33 63
M  V30 69 1 34 64
M  V30 70 1 36 65
M  V30 END BOND
M  V30 END CTAB
M  END
>  <Dataset>  (394) 
ChEMBL_Kinases

>  <Ligand_Instance>  (394) 
nan

>  <PDB_ID>  (394) 
nan

>  <Standardized_SMILES>  (394) 
COc1cc(-c2ccc3[nH]c(=O)c(-c4cc5cc(CN6CCCCC6)ccc5[nH]4)cc3c2)ccc1O

>  <Name>  (394) 
nan

>  <Pocket>  (394) 
nan

>  <ATP_Site>  (394) 
nan

>  <Peripheral>  (394) 
nan

>  <Num_H_Atoms_ProtBoundConf>  (394) 
nan

>  <Num_Resolved_Atoms>  (394) 
nan

>  <Num_Not_Resolved_Atoms>  (394) 
nan

$$$$
CHEMBL220902
     RDKit          3D

  0  0  0  0  0  0  0  0  0  0999 V3000
M  V30 BEGIN CTAB
M  V30 COUNTS 61 66 0 0 0
M  V30 BEGIN ATOM
M  V30 1 O 1.229236 -2.291367 3.053443 0
M  V30 2 C 1.548136 -1.119074 2.834831 0
M  V30 3 N 2.585852 -0.605096 3.518151 0
M  V30 4 C 3.013487 0.658718 3.354796 0
M  V30 5 C 4.073177 1.232018 4.031748 0
M  V30 6 C 4.436034 2.560277 3.785093 0
M  V30 7 C 3.719104 3.301654 2.849709 0
M  V30 8 C 4.095278 4.688030 2.590638 0
M  V30 9 C 3.911308 5.256141 1.331710 0
M  V30 10 C 4.263627 6.552774 1.093049 0
M  V30 11 C 4.813027 7.362175 2.067377 0
M  V30 12 C 4.986715 6.777278 3.309402 0
M  V30 13 O 5.540289 7.554256 4.334107 0
M  V30 14 C 4.644885 5.470332 3.595369 0
M  V30 15 C 2.656837 2.742172 2.164334 0
M  V30 16 C 2.325577 1.422706 2.434722 0
M  V30 17 C 1.240254 0.912164 1.708766 0
M  V30 18 C 0.827215 -0.399458 1.904888 0
M  V30 19 C -0.306359 -0.915004 1.138760 0
M  V30 20 C -0.856746 -2.176574 1.194893 0
M  V30 21 C -1.925947 -2.257403 0.299845 0
M  V30 22 C -2.818879 -3.250467 -0.055798 0
M  V30 23 C -3.806711 -3.019185 -1.012537 0
M  V30 24 C -4.715074 -4.168047 -1.313736 0
M  V30 25 N -4.199385 -4.977044 -2.378390 0
M  V30 26 C -5.059481 -6.077932 -2.667270 0
M  V30 27 C -4.414601 -7.430122 -2.626845 0
M  V30 28 C -3.109956 -7.530732 -3.345666 0
M  V30 29 C -2.490322 -6.168666 -3.508780 0
M  V30 30 C -2.825843 -5.353856 -2.253812 0
M  V30 31 C -3.880656 -1.773041 -1.604636 0
M  V30 32 C -2.966942 -0.786416 -1.228275 0
M  V30 33 C -1.983817 -1.006417 -0.280370 0
M  V30 34 N -1.017212 -0.221829 0.227281 0
M  V30 35 H 3.105076 -1.205679 4.222623 0
M  V30 36 H 4.588592 0.603165 4.745153 0
M  V30 37 H 5.285509 2.985920 4.342049 0
M  V30 38 H 3.479452 4.651095 0.530698 0
M  V30 39 H 4.089168 6.930291 0.078405 0
M  V30 40 H 5.089323 8.382228 1.876257 0
M  V30 41 H 6.248976 8.247341 4.123198 0
M  V30 42 H 4.810515 5.075896 4.597145 0
M  V30 43 H 2.123814 3.350159 1.443859 0
M  V30 44 H 0.718309 1.531634 0.993332 0
M  V30 45 H -0.577286 -3.008060 1.790652 0
M  V30 46 H -2.715466 -4.206254 0.438661 0
M  V30 47 H -4.801334 -4.808406 -0.423289 0
M  V30 48 H -5.724584 -3.821273 -1.609774 0
M  V30 49 H -5.513492 -5.921091 -3.674088 0
M  V30 50 H -5.925275 -6.138434 -1.949704 0
M  V30 51 H -4.369969 -7.864659 -1.589787 0
M  V30 52 H -5.135181 -8.121019 -3.155813 0
M  V30 53 H -2.424937 -8.175061 -2.720761 0
M  V30 54 H -3.191894 -8.081067 -4.306813 0
M  V30 55 H -2.984390 -5.671876 -4.392077 0
M  V30 56 H -1.416240 -6.251654 -3.689773 0
M  V30 57 H -2.604116 -5.990530 -1.364681 0
M  V30 58 H -2.157336 -4.473952 -2.302235 0
M  V30 59 H -4.654633 -1.620795 -2.342948 0
M  V30 60 H -3.042149 0.191662 -1.708073 0
M  V30 61 H -0.860372 0.786838 -0.063585 0
M  V30 END ATOM
M  V30 BEGIN BOND
M  V30 1 2 1 2
M  V30 2 1 2 3
M  V30 3 1 3 4
M  V30 4 2 4 5
M  V30 5 1 5 6
M  V30 6 2 6 7
M  V30 7 1 7 8
M  V30 8 2 8 9
M  V30 9 1 9 10
M  V30 10 2 10 11
M  V30 11 1 11 12
M  V30 12 1 12 13
M  V30 13 2 12 14
M  V30 14 1 7 15
M  V30 15 2 15 16
M  V30 16 1 16 17
M  V30 17 2 17 18
M  V30 18 1 18 19
M  V30 19 2 19 20
M  V30 20 1 20 21
M  V30 21 2 21 22
M  V30 22 1 22 23
M  V30 23 1 23 24
M  V30 24 1 24 25
M  V30 25 1 25 26
M  V30 26 1 26 27
M  V30 27 1 27 28
M  V30 28 1 28 29
M  V30 29 1 29 30
M  V30 30 2 23 31
M  V30 31 1 31 32
M  V30 32 2 32 33
M  V30 33 1 33 34
M  V30 34 1 18 2
M  V30 35 1 34 19
M  V30 36 1 16 4
M  V30 37 1 33 21
M  V30 38 1 14 8
M  V30 39 1 30 25
M  V30 40 1 3 35
M  V30 41 1 5 36
M  V30 42 1 6 37
M  V30 43 1 9 38
M  V30 44 1 10 39
M  V30 45 1 11 40
M  V30 46 1 13 41
M  V30 47 1 14 42
M  V30 48 1 15 43
M  V30 49 1 17 44
M  V30 50 1 20 45
M  V30 51 1 22 46
M  V30 52 1 24 47
M  V30 53 1 24 48
M  V30 54 1 26 49
M  V30 55 1 26 50
M  V30 56 1 27 51
M  V30 57 1 27 52
M  V30 58 1 28 53
M  V30 59 1 28 54
M  V30 60 1 29 55
M  V30 61 1 29 56
M  V30 62 1 30 57
M  V30 63 1 30 58
M  V30 64 1 31 59
M  V30 65 1 32 60
M  V30 66 1 34 61
M  V30 END BOND
M  V30 END CTAB
M  END
>  <Dataset>  (395) 
ChEMBL_Kinases

>  <Ligand_Instance>  (395) 
nan

>  <PDB_ID>  (395) 
nan

>  <Standardized_SMILES>  (395) 
O=c1[nH]c2ccc(-c3cccc(O)c3)cc2cc1-c1cc2cc(CN3CCCCC3)ccc2[nH]1

>  <Name>  (395) 
nan

>  <Pocket>  (395) 
nan

>  <ATP_Site>  (395) 
nan

>  <Peripheral>  (395) 
nan

>  <Num_H_Atoms_ProtBoundConf>  (395) 
nan

>  <Num_Resolved_Atoms>  (395) 
nan

>  <Num_Not_Resolved_Atoms>  (395) 
nan

$$$$
CHEMBL220882
     RDKit          3D

  0  0  0  0  0  0  0  0  0  0999 V3000
M  V30 BEGIN CTAB
M  V30 COUNTS 41 44 0 0 0
M  V30 BEGIN ATOM
M  V30 1 O 1.197283 -3.626627 -0.902290 0
M  V30 2 C 1.236989 -2.430355 -0.518616 0
M  V30 3 N 2.369622 -1.983773 0.167674 0
M  V30 4 C 3.548529 -2.674167 0.529473 0
M  V30 5 C 3.846848 -3.991404 0.272548 0
M  V30 6 C 5.003729 -4.642774 0.634356 0
M  V30 7 C 5.966439 -3.931810 1.317281 0
M  V30 8 C 5.716988 -2.606458 1.600440 0
M  V30 9 C 4.539401 -2.009155 1.211997 0
M  V30 10 C 0.086395 -1.586799 -0.820552 0
M  V30 11 C -0.015084 -0.259306 -0.465944 0
M  V30 12 C -1.217175 0.267682 -0.890185 0
M  V30 13 C -1.801217 1.599443 -0.768376 0
M  V30 14 N -2.097397 2.423213 -1.803640 0
M  V30 15 N -2.610218 3.539623 -1.287516 0
M  V30 16 C -2.649270 3.448044 0.066504 0
M  V30 17 C -2.130857 2.200908 0.428998 0
M  V30 18 C -2.008650 1.731737 1.801809 0
M  V30 19 C -0.896996 1.409794 2.538723 0
M  V30 20 C -1.022305 0.980170 3.841632 0
M  V30 21 C -2.285125 0.872346 4.413139 0
M  V30 22 C -3.437058 1.189394 3.698597 0
M  V30 23 Cl -4.976714 1.027170 4.488685 0
M  V30 24 C -3.279679 1.623127 2.377278 0
M  V30 25 C -1.824771 -0.825246 -1.518380 0
M  V30 26 N -1.031559 -1.914118 -1.464009 0
M  V30 27 H 2.291431 -0.974498 0.437944 0
M  V30 28 H 3.138687 -4.598785 -0.255416 0
M  V30 29 H 5.183525 -5.666240 0.409680 0
M  V30 30 H 6.880217 -4.425444 1.609054 0
M  V30 31 H 6.435780 -2.005940 2.132007 0
M  V30 32 H 4.393857 -0.946328 1.465533 0
M  V30 33 H 0.725041 0.309422 0.066359 0
M  V30 34 H -1.945372 2.209741 -2.825758 0
M  V30 35 H -3.029322 4.240347 0.708371 0
M  V30 36 H 0.005564 1.532606 1.995738 0
M  V30 37 H -0.123413 0.738306 4.382517 0
M  V30 38 H -2.341160 0.537831 5.421366 0
M  V30 39 H -4.242233 1.841328 1.918283 0
M  V30 40 H -2.809498 -0.858043 -2.007271 0
M  V30 41 H -1.238416 -2.861014 -1.852949 0
M  V30 END ATOM
M  V30 BEGIN BOND
M  V30 1 2 1 2
M  V30 2 1 2 3
M  V30 3 1 3 4
M  V30 4 2 4 5
M  V30 5 1 5 6
M  V30 6 2 6 7
M  V30 7 1 7 8
M  V30 8 2 8 9
M  V30 9 1 2 10
M  V30 10 2 10 11
M  V30 11 1 11 12
M  V30 12 1 12 13
M  V30 13 1 13 14
M  V30 14 1 14 15
M  V30 15 2 15 16
M  V30 16 1 16 17
M  V30 17 1 17 18
M  V30 18 2 18 19
M  V30 19 1 19 20
M  V30 20 2 20 21
M  V30 21 1 21 22
M  V30 22 1 22 23
M  V30 23 2 22 24
M  V30 24 2 12 25
M  V30 25 1 25 26
M  V30 26 1 9 4
M  V30 27 1 26 10
M  V30 28 2 17 13
M  V30 29 1 24 18
M  V30 30 1 3 27
M  V30 31 1 5 28
M  V30 32 1 6 29
M  V30 33 1 7 30
M  V30 34 1 8 31
M  V30 35 1 9 32
M  V30 36 1 11 33
M  V30 37 1 14 34
M  V30 38 1 16 35
M  V30 39 1 19 36
M  V30 40 1 20 37
M  V30 41 1 21 38
M  V30 42 1 24 39
M  V30 43 1 25 40
M  V30 44 1 26 41
M  V30 END BOND
M  V30 END CTAB
M  END
>  <Dataset>  (396) 
ChEMBL_Kinases

>  <Ligand_Instance>  (396) 
nan

>  <PDB_ID>  (396) 
nan

>  <Standardized_SMILES>  (396) 
O=C(Nc1ccccc1)c1cc(-c2[nH]ncc2-c2cccc(Cl)c2)c[nH]1

>  <Name>  (396) 
nan

>  <Pocket>  (396) 
nan

>  <ATP_Site>  (396) 
nan

>  <Peripheral>  (396) 
nan

>  <Num_H_Atoms_ProtBoundConf>  (396) 
nan

>  <Num_Resolved_Atoms>  (396) 
nan

>  <Num_Not_Resolved_Atoms>  (396) 
nan

$$$$
CHEMBL220881
     RDKit          3D

  0  0  0  0  0  0  0  0  0  0999 V3000
M  V30 BEGIN CTAB
M  V30 COUNTS 101 104 0 0 0
M  V30 BEGIN ATOM
M  V30 1 C 9.780347 0.288981 5.828465 0
M  V30 2 C 9.137618 1.638208 5.598187 0
M  V30 3 C 7.900172 1.636934 6.454706 0
M  V30 4 C 9.374840 2.740302 4.886207 0
M  V30 5 C 8.619005 4.029089 4.761337 0
M  V30 6 C 8.747760 4.236752 3.237402 0
M  V30 7 C 8.231942 3.104394 2.430422 0
M  V30 8 O 8.680965 1.881278 2.897974 0
M  V30 9 C 8.026011 5.535430 2.968111 0
M  V30 10 O 6.681829 5.240868 3.104917 0
M  V30 11 C 5.461885 5.740085 3.055533 0
M  V30 12 O 6.013831 6.801215 2.811845 0
M  V30 13 C 4.483156 4.652442 3.316852 0
M  V30 14 C 4.708549 3.380215 3.746647 0
M  V30 15 C 3.727971 2.435527 3.722370 0
M  V30 16 C 2.531791 2.865506 3.239855 0
M  V30 17 C 1.614210 1.752151 2.978364 0
M  V30 18 C 0.856798 0.821223 2.738615 0
M  V30 19 C -0.034363 -0.269175 2.431013 0
M  V30 20 C 0.721370 -1.279955 1.789394 0
M  V30 21 C 0.106993 -2.373578 1.142480 0
M  V30 22 C -1.307568 -2.294555 1.243073 0
M  V30 23 C -1.877622 -3.263237 0.295485 0
M  V30 24 C -2.348590 -4.067148 -0.520898 0
M  V30 25 C -2.893814 -5.001722 -1.507666 0
M  V30 26 C -4.100174 -4.510723 -2.023344 0
M  V30 27 C -4.447566 -5.253177 -3.149340 0
M  V30 28 C -3.826224 -6.299141 -3.763454 0
M  V30 29 O -4.080113 -7.013022 -4.844939 0
M  V30 30 C -4.905955 -7.147255 -5.903290 0
M  V30 31 C -4.808466 -5.911946 -6.844948 0
M  V30 32 O -5.097676 -4.753676 -6.517670 0
M  V30 33 C -5.335156 -3.592173 -6.121207 0
M  V30 34 C -6.387984 -2.725090 -6.885711 0
M  V30 35 O -7.584367 -3.368012 -6.900994 0
M  V30 36 C -8.150400 -3.817105 -5.771297 0
M  V30 37 C -8.637939 -2.951151 -4.679878 0
M  V30 38 O -7.677679 -2.125584 -4.100449 0
M  V30 39 C -8.045986 -1.385510 -2.891500 0
M  V30 40 O -9.158578 -1.880850 -2.860767 0
M  V30 41 N -6.799716 -0.658273 -2.696990 0
M  V30 42 C -5.422915 -0.204711 -2.943865 0
M  V30 43 C -5.373120 0.996375 -3.800716 0
M  V30 44 O -4.195732 1.395675 -3.812936 0
M  V30 45 O -6.329286 1.684439 -4.517789 0
M  V30 46 C -7.375013 -0.030534 -1.477952 0
M  V30 47 C -7.126227 -0.879853 -0.307902 0
M  V30 48 O -6.542072 -1.759917 -1.013435 0
M  V30 49 O -7.078792 -1.384125 0.975593 0
M  V30 50 C -2.631267 -6.694620 -3.124737 0
M  V30 51 C -2.132538 -6.049477 -1.972728 0
M  V30 52 C -2.062661 -1.350983 1.856479 0
M  V30 53 C -1.385781 -0.313524 2.462889 0
M  V30 54 C 2.196155 4.143999 2.786110 0
M  V30 55 C 3.232791 5.098317 2.826910 0
M  V30 56 O 10.156228 4.233026 3.160251 0
M  V30 57 C 10.492359 3.074482 3.957030 0
M  V30 58 O 11.571057 2.380876 3.926378 0
M  V30 59 H 10.667819 0.188189 5.190052 0
M  V30 60 H 9.082430 -0.524815 5.618639 0
M  V30 61 H 10.113353 0.195271 6.907663 0
M  V30 62 H 8.063994 1.162122 7.454596 0
M  V30 63 H 7.096046 1.014371 5.983344 0
M  V30 64 H 7.543049 2.677901 6.545224 0
M  V30 65 H 9.274502 4.861905 5.191925 0
M  V30 66 H 7.610333 4.031719 5.108721 0
M  V30 67 H 8.700927 3.197626 1.397128 0
M  V30 68 H 7.156491 3.085226 2.259191 0
M  V30 69 H 8.223099 1.164906 2.425775 0
M  V30 70 H 8.298422 5.797937 1.890289 0
M  V30 71 H 8.414537 6.298111 3.651804 0
M  V30 72 H 5.692764 3.215193 4.093951 0
M  V30 73 H 4.048272 1.487902 4.109686 0
M  V30 74 H 1.837085 -1.343261 1.717571 0
M  V30 75 H 0.683526 -3.141017 0.661821 0
M  V30 76 H -4.701739 -3.707845 -1.667852 0
M  V30 77 H -5.373452 -5.074484 -3.664845 0
M  V30 78 H -5.985310 -7.341236 -5.725964 0
M  V30 79 H -4.489642 -7.982395 -6.571469 0
M  V30 80 H -3.734947 -6.042049 -7.296402 0
M  V30 81 H -5.382778 -6.237818 -7.818237 0
M  V30 82 H -4.434645 -2.851469 -6.150888 0
M  V30 83 H -5.626578 -3.469194 -5.039649 0
M  V30 84 H -6.031235 -2.525320 -7.892460 0
M  V30 85 H -6.477012 -1.773737 -6.324290 0
M  V30 86 H -7.418747 -4.592873 -5.345417 0
M  V30 87 H -9.028151 -4.479642 -6.092848 0
M  V30 88 H -9.095600 -3.612264 -3.865531 0
M  V30 89 H -9.506398 -2.313157 -5.026951 0
M  V30 90 H -5.013797 -0.026364 -1.928048 0
M  V30 91 H -4.801348 -1.039210 -3.396099 0
M  V30 92 H -6.375494 2.715061 -4.494716 0
M  V30 93 H -6.778154 0.937233 -1.312691 0
M  V30 94 H -8.382408 0.330410 -1.621825 0
M  V30 95 H -7.617617 -2.196222 1.268615 0
M  V30 96 H -1.991908 -7.505381 -3.442190 0
M  V30 97 H -1.231602 -6.326604 -1.471436 0
M  V30 98 H -3.135078 -1.426943 1.864559 0
M  V30 99 H -1.833958 0.510733 2.990901 0
M  V30 100 H 1.184389 4.285691 2.444823 0
M  V30 101 H 2.955884 6.075411 2.474753 0
M  V30 END ATOM
M  V30 BEGIN BOND
M  V30 1 1 1 2
M  V30 2 1 2 3
M  V30 3 2 2 4 CFG=2
M  V30 4 1 4 5
M  V30 5 1 5 6
M  V30 6 1 6 7
M  V30 7 1 7 8
M  V30 8 1 6 9
M  V30 9 1 9 10
M  V30 10 1 10 11
M  V30 11 2 11 12
M  V30 12 1 11 13
M  V30 13 2 13 14
M  V30 14 1 14 15
M  V30 15 2 15 16
M  V30 16 1 16 17
M  V30 17 3 17 18
M  V30 18 1 18 19
M  V30 19 2 19 20
M  V30 20 1 20 21
M  V30 21 2 21 22
M  V30 22 1 22 23
M  V30 23 3 23 24
M  V30 24 1 24 25
M  V30 25 2 25 26
M  V30 26 1 26 27
M  V30 27 2 27 28
M  V30 28 1 28 29
M  V30 29 1 29 30
M  V30 30 1 30 31
M  V30 31 1 31 32
M  V30 32 1 32 33
M  V30 33 1 33 34
M  V30 34 1 34 35
M  V30 35 1 35 36
M  V30 36 1 36 37
M  V30 37 1 37 38
M  V30 38 1 38 39
M  V30 39 2 39 40
M  V30 40 1 39 41
M  V30 41 1 41 42
M  V30 42 1 42 43
M  V30 43 2 43 44
M  V30 44 1 43 45
M  V30 45 1 41 46
M  V30 46 1 46 47
M  V30 47 2 47 48
M  V30 48 1 47 49
M  V30 49 1 28 50
M  V30 50 2 50 51
M  V30 51 1 22 52
M  V30 52 2 52 53
M  V30 53 1 16 54
M  V30 54 2 54 55
M  V30 55 1 6 56
M  V30 56 1 56 57
M  V30 57 2 57 58
M  V30 58 1 57 4
M  V30 59 1 55 13
M  V30 60 1 53 19
M  V30 61 1 51 25
M  V30 62 1 1 59
M  V30 63 1 1 60
M  V30 64 1 1 61
M  V30 65 1 3 62
M  V30 66 1 3 63
M  V30 67 1 3 64
M  V30 68 1 5 65
M  V30 69 1 5 66
M  V30 70 1 7 67
M  V30 71 1 7 68
M  V30 72 1 8 69
M  V30 73 1 9 70
M  V30 74 1 9 71
M  V30 75 1 14 72
M  V30 76 1 15 73
M  V30 77 1 20 74
M  V30 78 1 21 75
M  V30 79 1 26 76
M  V30 80 1 27 77
M  V30 81 1 30 78
M  V30 82 1 30 79
M  V30 83 1 31 80
M  V30 84 1 31 81
M  V30 85 1 33 82
M  V30 86 1 33 83
M  V30 87 1 34 84
M  V30 88 1 34 85
M  V30 89 1 36 86
M  V30 90 1 36 87
M  V30 91 1 37 88
M  V30 92 1 37 89
M  V30 93 1 42 90
M  V30 94 1 42 91
M  V30 95 1 45 92
M  V30 96 1 46 93
M  V30 97 1 46 94
M  V30 98 1 49 95
M  V30 99 1 50 96
M  V30 100 1 51 97
M  V30 101 1 52 98
M  V30 102 1 53 99
M  V30 103 1 54 100
M  V30 104 1 55 101
M  V30 END BOND
M  V30 END CTAB
M  END
>  <Dataset>  (397) 
ChEMBL_Kinases

>  <Ligand_Instance>  (397) 
nan

>  <PDB_ID>  (397) 
nan

>  <Standardized_SMILES>  (397) 
CC(C)=C1CC(CO)(COC(=O)c2ccc(C#Cc3ccc(C#Cc4ccc(OCCOCCOCCOC(=O)N(CC(=O)O)CC(=O)O)cc4)cc3)cc2)OC1=O

>  <Name>  (397) 
nan

>  <Pocket>  (397) 
nan

>  <ATP_Site>  (397) 
nan

>  <Peripheral>  (397) 
nan

>  <Num_H_Atoms_ProtBoundConf>  (397) 
nan

>  <Num_Resolved_Atoms>  (397) 
nan

>  <Num_Not_Resolved_Atoms>  (397) 
nan

$$$$
CHEMBL2208009
     RDKit          3D

  0  0  0  0  0  0  0  0  0  0999 V3000
M  V30 BEGIN CTAB
M  V30 COUNTS 46 49 0 0 0
M  V30 BEGIN ATOM
M  V30 1 C 0.455429 -5.313638 3.971552 0
M  V30 2 N 1.231493 -4.098309 3.809955 0
M  V30 3 C 2.236059 -3.974918 2.809406 0
M  V30 4 O 2.375664 -4.998600 2.102168 0
M  V30 5 C 2.888447 -2.635988 2.846789 0
M  V30 6 C 3.959051 -2.484334 1.785468 0
M  V30 7 C 3.379980 -2.657953 0.398347 0
M  V30 8 C 2.340717 -1.610660 0.216514 0
M  V30 9 N 2.551853 -0.371210 -0.283747 0
M  V30 10 C 1.409174 0.312657 -0.310045 0
M  V30 11 C 1.208257 1.737167 -0.796995 0
M  V30 12 N 0.268257 2.445694 -0.871701 0
M  V30 13 C 0.249204 3.681908 -1.325155 0
M  V30 14 C -1.039619 4.418929 -1.341573 0
M  V30 15 C 1.549984 4.173040 -1.766009 0
M  V30 16 S 2.634671 2.655714 -1.420995 0
M  V30 17 C 0.424102 -0.476679 0.177237 0
M  V30 18 C -0.977048 -0.116884 0.322330 0
M  V30 19 C -1.728583 -0.059153 1.472421 0
M  V30 20 C -3.039222 0.286819 1.533893 0
M  V30 21 C -3.740878 0.620174 0.392866 0
M  V30 22 N -4.993149 0.983321 0.193000 0
M  V30 23 C -5.561557 1.255163 -0.745903 0
M  V30 24 S -4.169298 1.044869 -2.056288 0
M  V30 25 C -3.001003 0.566027 -0.760117 0
M  V30 26 C -1.649887 0.211001 -0.836857 0
M  V30 27 N 1.014519 -1.647067 0.492987 0
M  V30 28 H 0.685392 -5.808036 4.934614 0
M  V30 29 H 0.670957 -6.013257 3.132918 0
M  V30 30 H -0.623947 -5.046220 3.969778 0
M  V30 31 H 0.943858 -3.377966 4.508828 0
M  V30 32 H 3.328441 -2.471777 3.846660 0
M  V30 33 H 2.151564 -1.812164 2.668138 0
M  V30 34 H 4.309610 -1.435845 1.859509 0
M  V30 35 H 4.789367 -3.195791 1.972757 0
M  V30 36 H 4.206563 -2.464591 -0.306918 0
M  V30 37 H 2.929604 -3.659849 0.250681 0
M  V30 38 H -1.710650 3.892943 -2.070801 0
M  V30 39 H -1.565202 4.324303 -0.368733 0
M  V30 40 H -0.900359 5.478615 -1.636704 0
M  V30 41 H 1.501455 5.332855 -2.185583 0
M  V30 42 H -1.173706 -0.324488 2.387496 0
M  V30 43 H -3.491384 0.282550 2.535506 0
M  V30 44 H -6.712360 1.556380 -0.671475 0
M  V30 45 H -1.271924 0.236200 -1.845352 0
M  V30 46 H 0.544400 -2.487425 0.897034 0
M  V30 END ATOM
M  V30 BEGIN BOND
M  V30 1 1 1 2
M  V30 2 1 2 3
M  V30 3 2 3 4
M  V30 4 1 3 5
M  V30 5 1 5 6
M  V30 6 1 6 7
M  V30 7 1 7 8
M  V30 8 2 8 9
M  V30 9 1 9 10
M  V30 10 1 10 11
M  V30 11 2 11 12
M  V30 12 1 12 13
M  V30 13 1 13 14
M  V30 14 2 13 15
M  V30 15 1 15 16
M  V30 16 2 10 17
M  V30 17 1 17 18
M  V30 18 2 18 19
M  V30 19 1 19 20
M  V30 20 2 20 21
M  V30 21 1 21 22
M  V30 22 2 22 23
M  V30 23 1 23 24
M  V30 24 1 24 25
M  V30 25 2 25 26
M  V30 26 1 17 27
M  V30 27 1 27 8
M  V30 28 1 16 11
M  V30 29 1 26 18
M  V30 30 1 25 21
M  V30 31 1 1 28
M  V30 32 1 1 29
M  V30 33 1 1 30
M  V30 34 1 2 31
M  V30 35 1 5 32
M  V30 36 1 5 33
M  V30 37 1 6 34
M  V30 38 1 6 35
M  V30 39 1 7 36
M  V30 40 1 7 37
M  V30 41 1 14 38
M  V30 42 1 14 39
M  V30 43 1 14 40
M  V30 44 1 15 41
M  V30 45 1 19 42
M  V30 46 1 20 43
M  V30 47 1 23 44
M  V30 48 1 26 45
M  V30 49 1 27 46
M  V30 END BOND
M  V30 END CTAB
M  END
>  <Dataset>  (398) 
ChEMBL_Kinases

>  <Ligand_Instance>  (398) 
nan

>  <PDB_ID>  (398) 
nan

>  <Standardized_SMILES>  (398) 
CNC(=O)CCCc1nc(-c2nc(C)cs2)c(-c2ccc3ncsc3c2)[nH]1

>  <Name>  (398) 
nan

>  <Pocket>  (398) 
nan

>  <ATP_Site>  (398) 
nan

>  <Peripheral>  (398) 
nan

>  <Num_H_Atoms_ProtBoundConf>  (398) 
nan

>  <Num_Resolved_Atoms>  (398) 
nan

>  <Num_Not_Resolved_Atoms>  (398) 
nan

$$$$
CHEMBL2208010
     RDKit          3D

  0  0  0  0  0  0  0  0  0  0999 V3000
M  V30 BEGIN CTAB
M  V30 COUNTS 46 49 0 0 0
M  V30 BEGIN ATOM
M  V30 1 C -0.865014 -5.040578 3.263290 0
M  V30 2 C 0.264743 -4.184827 2.746657 0
M  V30 3 C 1.708669 -4.381470 3.012867 0
M  V30 4 S 2.358347 -2.983392 2.065670 0
M  V30 5 C 0.738902 -2.388740 1.498550 0
M  V30 6 C 0.675057 -1.216059 0.651540 0
M  V30 7 N 1.652165 -0.430663 0.172856 0
M  V30 8 C 1.111244 0.559554 -0.584629 0
M  V30 9 C 1.764577 1.653969 -1.312753 0
M  V30 10 C 3.259310 1.654982 -1.182662 0
M  V30 11 C 3.748598 1.787361 0.218981 0
M  V30 12 C 3.306716 3.059139 0.906335 0
M  V30 13 C 3.797148 4.259570 0.181171 0
M  V30 14 N 3.363702 5.436891 0.850131 0
M  V30 15 O 4.473404 4.547724 -0.836010 0
M  V30 16 N -0.222386 0.391084 -0.579629 0
M  V30 17 C -0.515888 -0.704365 0.180970 0
M  V30 18 C -1.859678 -1.208401 0.425732 0
M  V30 19 C -2.906384 -0.556217 1.052593 0
M  V30 20 C -4.139312 -1.090689 1.246593 0
M  V30 21 C -4.440682 -2.356550 0.819558 0
M  V30 22 N -5.580870 -3.041521 0.919059 0
M  V30 23 C -5.789273 -4.128716 0.535051 0
M  V30 24 S -4.113873 -4.652705 -0.251018 0
M  V30 25 C -3.373821 -3.007391 0.186449 0
M  V30 26 C -2.104480 -2.478374 -0.022153 0
M  V30 27 N -0.211859 -3.200131 1.998576 0
M  V30 28 H -0.476930 -5.771528 4.003860 0
M  V30 29 H -1.624581 -4.451486 3.814157 0
M  V30 30 H -1.370775 -5.523501 2.413244 0
M  V30 31 H 1.923854 -5.247732 3.653153 0
M  V30 32 H 1.388508 2.643714 -0.984187 0
M  V30 33 H 1.528398 1.575219 -2.396469 0
M  V30 34 H 3.649351 2.523065 -1.751545 0
M  V30 35 H 3.706651 0.735846 -1.598106 0
M  V30 36 H 4.865049 1.863667 0.161406 0
M  V30 37 H 3.565476 0.908384 0.864062 0
M  V30 38 H 2.233394 3.127419 1.089923 0
M  V30 39 H 3.825970 3.077251 1.896532 0
M  V30 40 H 3.808305 6.312070 1.214356 0
M  V30 41 H 2.404049 5.711010 1.154796 0
M  V30 42 H -0.971291 0.968852 -1.059319 0
M  V30 43 H -2.649858 0.459956 1.390576 0
M  V30 44 H -4.840510 -0.447844 1.752461 0
M  V30 45 H -6.754062 -4.677273 0.632116 0
M  V30 46 H -1.421761 -3.133044 -0.526889 0
M  V30 END ATOM
M  V30 BEGIN BOND
M  V30 1 1 1 2
M  V30 2 2 2 3
M  V30 3 1 3 4
M  V30 4 1 4 5
M  V30 5 1 5 6
M  V30 6 1 6 7
M  V30 7 2 7 8
M  V30 8 1 8 9
M  V30 9 1 9 10
M  V30 10 1 10 11
M  V30 11 1 11 12
M  V30 12 1 12 13
M  V30 13 1 13 14
M  V30 14 2 13 15
M  V30 15 1 8 16
M  V30 16 1 16 17
M  V30 17 1 17 18
M  V30 18 2 18 19
M  V30 19 1 19 20
M  V30 20 2 20 21
M  V30 21 1 21 22
M  V30 22 2 22 23
M  V30 23 1 23 24
M  V30 24 1 24 25
M  V30 25 2 25 26
M  V30 26 2 5 27
M  V30 27 1 27 2
M  V30 28 2 17 6
M  V30 29 1 26 18
M  V30 30 1 25 21
M  V30 31 1 1 28
M  V30 32 1 1 29
M  V30 33 1 1 30
M  V30 34 1 3 31
M  V30 35 1 9 32
M  V30 36 1 9 33
M  V30 37 1 10 34
M  V30 38 1 10 35
M  V30 39 1 11 36
M  V30 40 1 11 37
M  V30 41 1 12 38
M  V30 42 1 12 39
M  V30 43 1 14 40
M  V30 44 1 14 41
M  V30 45 1 16 42
M  V30 46 1 19 43
M  V30 47 1 20 44
M  V30 48 1 23 45
M  V30 49 1 26 46
M  V30 END BOND
M  V30 END CTAB
M  END
>  <Dataset>  (399) 
ChEMBL_Kinases

>  <Ligand_Instance>  (399) 
nan

>  <PDB_ID>  (399) 
nan

>  <Standardized_SMILES>  (399) 
Cc1csc(-c2nc(CCCCC(N)=O)[nH]c2-c2ccc3ncsc3c2)n1

>  <Name>  (399) 
nan

>  <Pocket>  (399) 
nan

>  <ATP_Site>  (399) 
nan

>  <Peripheral>  (399) 
nan

>  <Num_H_Atoms_ProtBoundConf>  (399) 
nan

>  <Num_Resolved_Atoms>  (399) 
nan

>  <Num_Not_Resolved_Atoms>  (399) 
nan

$$$$
CHEMBL2208011
     RDKit          3D

  0  0  0  0  0  0  0  0  0  0999 V3000
M  V30 BEGIN CTAB
M  V30 COUNTS 44 47 0 0 0
M  V30 BEGIN ATOM
M  V30 1 C 5.344739 -2.499382 4.913618 0
M  V30 2 C 4.809077 -2.054304 3.594224 0
M  V30 3 N 4.608383 -0.596493 3.557258 0
M  V30 4 C 4.104221 -0.181892 2.295846 0
M  V30 5 O 3.800069 -0.762045 1.236295 0
M  V30 6 O 3.843671 1.131323 2.038950 0
M  V30 7 C 3.353402 1.738452 0.888545 0
M  V30 8 C 1.987667 1.205366 0.555479 0
M  V30 9 N 0.737071 1.554034 0.994409 0
M  V30 10 C -0.208382 0.781111 0.356841 0
M  V30 11 C -1.400463 1.404689 1.043026 0
M  V30 12 N -2.286596 1.865615 1.550596 0
M  V30 13 C -3.536797 1.865761 1.625656 0
M  V30 14 C -4.341075 2.726773 2.526975 0
M  V30 15 C -4.080096 0.922517 0.728734 0
M  V30 16 S -2.554870 0.327501 0.052224 0
M  V30 17 C 0.501774 -0.012501 -0.447607 0
M  V30 18 C -0.347833 -0.908652 -1.194768 0
M  V30 19 C -0.509018 -2.234335 -0.774333 0
M  V30 20 C -1.286178 -3.188572 -1.392462 0
M  V30 21 C -1.989673 -2.832084 -2.545191 0
M  V30 22 N -2.788676 -3.570915 -3.295776 0
M  V30 23 C -3.373335 -3.254995 -4.262059 0
M  V30 24 S -2.856125 -1.426072 -4.432486 0
M  V30 25 C -1.821947 -1.523162 -2.948204 0
M  V30 26 C -1.035225 -0.549532 -2.326602 0
M  V30 27 N 1.823253 0.226209 -0.344202 0
M  V30 28 H 6.435516 -2.287795 4.969064 0
M  V30 29 H 4.827974 -1.950942 5.745604 0
M  V30 30 H 5.169236 -3.579307 5.045720 0
M  V30 31 H 5.461826 -2.339999 2.761695 0
M  V30 32 H 3.824368 -2.561454 3.435940 0
M  V30 33 H 4.761057 0.177702 4.264075 0
M  V30 34 H 3.240950 2.830055 1.145628 0
M  V30 35 H 3.994933 1.672673 -0.008222 0
M  V30 36 H -4.340664 3.779162 2.185873 0
M  V30 37 H -5.393629 2.365119 2.537994 0
M  V30 38 H -3.947927 2.735507 3.585778 0
M  V30 39 H -5.246226 0.759146 0.636823 0
M  V30 40 H 0.048833 -2.508056 0.135952 0
M  V30 41 H -1.301284 -4.172396 -0.935974 0
M  V30 42 H -4.038471 -3.796870 -4.920259 0
M  V30 43 H -0.976861 0.435927 -2.725373 0
M  V30 44 H 2.381216 -0.383709 -0.977715 0
M  V30 END ATOM
M  V30 BEGIN BOND
M  V30 1 1 1 2
M  V30 2 1 2 3
M  V30 3 1 3 4
M  V30 4 2 4 5
M  V30 5 1 4 6
M  V30 6 1 6 7
M  V30 7 1 7 8
M  V30 8 2 8 9
M  V30 9 1 9 10
M  V30 10 1 10 11
M  V30 11 2 11 12
M  V30 12 1 12 13
M  V30 13 1 13 14
M  V30 14 2 13 15
M  V30 15 1 15 16
M  V30 16 2 10 17
M  V30 17 1 17 18
M  V30 18 2 18 19
M  V30 19 1 19 20
M  V30 20 2 20 21
M  V30 21 1 21 22
M  V30 22 2 22 23
M  V30 23 1 23 24
M  V30 24 1 24 25
M  V30 25 2 25 26
M  V30 26 1 17 27
M  V30 27 1 27 8
M  V30 28 1 16 11
M  V30 29 1 26 18
M  V30 30 1 25 21
M  V30 31 1 1 28
M  V30 32 1 1 29
M  V30 33 1 1 30
M  V30 34 1 2 31
M  V30 35 1 2 32
M  V30 36 1 3 33
M  V30 37 1 7 34
M  V30 38 1 7 35
M  V30 39 1 14 36
M  V30 40 1 14 37
M  V30 41 1 14 38
M  V30 42 1 15 39
M  V30 43 1 19 40
M  V30 44 1 20 41
M  V30 45 1 23 42
M  V30 46 1 26 43
M  V30 47 1 27 44
M  V30 END BOND
M  V30 END CTAB
M  END
>  <Dataset>  (400) 
ChEMBL_Kinases

>  <Ligand_Instance>  (400) 
nan

>  <PDB_ID>  (400) 
nan

>  <Standardized_SMILES>  (400) 
CCNC(=O)OCc1nc(-c2nc(C)cs2)c(-c2ccc3ncsc3c2)[nH]1

>  <Name>  (400) 
nan

>  <Pocket>  (400) 
nan

>  <ATP_Site>  (400) 
nan

>  <Peripheral>  (400) 
nan

>  <Num_H_Atoms_ProtBoundConf>  (400) 
nan

>  <Num_Resolved_Atoms>  (400) 
nan

>  <Num_Not_Resolved_Atoms>  (400) 
nan

$$$$
CHEMBL2208012
     RDKit          3D

  0  0  0  0  0  0  0  0  0  0999 V3000
M  V30 BEGIN CTAB
M  V30 COUNTS 46 49 0 0 0
M  V30 BEGIN ATOM
M  V30 1 C -1.763369 -5.799793 2.333691 0
M  V30 2 C -0.628360 -4.960681 2.711049 0
M  V30 3 C 0.539269 -4.909614 1.825084 0
M  V30 4 O 0.476023 -5.609879 0.780876 0
M  V30 5 N 1.615457 -4.081895 2.230409 0
M  V30 6 C 2.785357 -4.006437 1.378805 0
M  V30 7 C 2.423923 -3.482390 0.000692 0
M  V30 8 C 1.835259 -2.121674 0.100706 0
M  V30 9 N 1.654790 -1.460534 1.270173 0
M  V30 10 C 1.112749 -0.271224 1.058564 0
M  V30 11 C 0.722270 0.808426 1.953796 0
M  V30 12 N 0.248681 1.878385 1.918350 0
M  V30 13 C -0.006060 2.674221 2.943318 0
M  V30 14 C -0.621721 4.041221 2.802555 0
M  V30 15 C 0.348305 2.143239 4.247383 0
M  V30 16 S 1.031128 0.494236 3.794115 0
M  V30 17 C 0.923514 -0.129049 -0.293396 0
M  V30 18 C 0.363929 0.990655 -1.029026 0
M  V30 19 C 0.989369 1.755927 -1.995270 0
M  V30 20 C 0.472103 2.809554 -2.690369 0
M  V30 21 C -0.828634 3.178250 -2.417464 0
M  V30 22 N -1.490905 4.158972 -2.980832 0
M  V30 23 C -2.538363 4.513191 -2.811625 0
M  V30 24 S -3.075523 3.259445 -1.453614 0
M  V30 25 C -1.483334 2.465026 -1.483942 0
M  V30 26 C -0.940337 1.377155 -0.770438 0
M  V30 27 N 1.383661 -1.293799 -0.838476 0
M  V30 28 H -1.943998 -6.652730 3.042698 0
M  V30 29 H -1.596512 -6.284195 1.344194 0
M  V30 30 H -2.742376 -5.302893 2.236603 0
M  V30 31 H -0.994501 -3.893654 2.774415 0
M  V30 32 H -0.259730 -5.198725 3.731899 0
M  V30 33 H 1.572893 -3.538986 3.116336 0
M  V30 34 H 3.497089 -3.278464 1.801949 0
M  V30 35 H 3.311509 -4.955043 1.242413 0
M  V30 36 H 3.371846 -3.429390 -0.577853 0
M  V30 37 H 1.757564 -4.184122 -0.554577 0
M  V30 38 H -0.423337 4.467193 1.799939 0
M  V30 39 H -0.095982 4.724551 3.530601 0
M  V30 40 H -1.680637 4.052413 3.047733 0
M  V30 41 H 0.154421 2.784039 5.195599 0
M  V30 42 H 2.029018 1.444836 -2.198082 0
M  V30 43 H 1.149900 3.281765 -3.421293 0
M  V30 44 H -3.585602 5.153915 -2.896643 0
M  V30 45 H -1.583231 0.894772 -0.046963 0
M  V30 46 H 1.400785 -1.552686 -1.866182 0
M  V30 END ATOM
M  V30 BEGIN BOND
M  V30 1 1 1 2
M  V30 2 1 2 3
M  V30 3 2 3 4
M  V30 4 1 3 5
M  V30 5 1 5 6
M  V30 6 1 6 7
M  V30 7 1 7 8
M  V30 8 2 8 9
M  V30 9 1 9 10
M  V30 10 1 10 11
M  V30 11 2 11 12
M  V30 12 1 12 13
M  V30 13 1 13 14
M  V30 14 2 13 15
M  V30 15 1 15 16
M  V30 16 2 10 17
M  V30 17 1 17 18
M  V30 18 2 18 19
M  V30 19 1 19 20
M  V30 20 2 20 21
M  V30 21 1 21 22
M  V30 22 2 22 23
M  V30 23 1 23 24
M  V30 24 1 24 25
M  V30 25 2 25 26
M  V30 26 1 17 27
M  V30 27 1 27 8
M  V30 28 1 16 11
M  V30 29 1 26 18
M  V30 30 1 25 21
M  V30 31 1 1 28
M  V30 32 1 1 29
M  V30 33 1 1 30
M  V30 34 1 2 31
M  V30 35 1 2 32
M  V30 36 1 5 33
M  V30 37 1 6 34
M  V30 38 1 6 35
M  V30 39 1 7 36
M  V30 40 1 7 37
M  V30 41 1 14 38
M  V30 42 1 14 39
M  V30 43 1 14 40
M  V30 44 1 15 41
M  V30 45 1 19 42
M  V30 46 1 20 43
M  V30 47 1 23 44
M  V30 48 1 26 45
M  V30 49 1 27 46
M  V30 END BOND
M  V30 END CTAB
M  END
>  <Dataset>  (401) 
ChEMBL_Kinases

>  <Ligand_Instance>  (401) 
nan

>  <PDB_ID>  (401) 
nan

>  <Standardized_SMILES>  (401) 
CCC(=O)NCCc1nc(-c2nc(C)cs2)c(-c2ccc3ncsc3c2)[nH]1

>  <Name>  (401) 
nan

>  <Pocket>  (401) 
nan

>  <ATP_Site>  (401) 
nan

>  <Peripheral>  (401) 
nan

>  <Num_H_Atoms_ProtBoundConf>  (401) 
nan

>  <Num_Resolved_Atoms>  (401) 
nan

>  <Num_Not_Resolved_Atoms>  (401) 
nan

$$$$
CHEMBL2208013
     RDKit          3D

  0  0  0  0  0  0  0  0  0  0999 V3000
M  V30 BEGIN CTAB
M  V30 COUNTS 46 49 0 0 0
M  V30 BEGIN ATOM
M  V30 1 C 2.733926 -4.342410 6.242188 0
M  V30 2 C 2.609655 -4.324583 4.753757 0
M  V30 3 O 3.151738 -5.240555 4.067263 0
M  V30 4 N 1.888200 -3.283341 4.145203 0
M  V30 5 C 1.725367 -3.199320 2.714606 0
M  V30 6 C 3.031434 -3.087536 1.960185 0
M  V30 7 C 2.738059 -3.007559 0.458122 0
M  V30 8 C 1.895219 -1.827302 0.144998 0
M  V30 9 N 2.270125 -0.575968 -0.171577 0
M  V30 10 C 1.197687 0.192978 -0.382616 0
M  V30 11 C 1.186527 1.667721 -0.762021 0
M  V30 12 N 0.281796 2.436766 -0.970557 0
M  V30 13 C 0.470074 3.695428 -1.292744 0
M  V30 14 C -0.702215 4.578505 -1.535504 0
M  V30 15 C 1.831417 4.148742 -1.394107 0
M  V30 16 S 2.733192 2.530347 -0.966591 0
M  V30 17 C 0.089460 -0.565991 -0.201757 0
M  V30 18 C -1.299494 -0.155875 -0.325336 0
M  V30 19 C -2.245774 -0.153304 0.677126 0
M  V30 20 C -3.558961 0.233059 0.555150 0
M  V30 21 C -4.016478 0.669244 -0.680152 0
M  V30 22 N -5.203561 1.086243 -1.059833 0
M  V30 23 C -5.593397 1.446665 -2.070166 0
M  V30 24 S -3.997936 1.283331 -3.132142 0
M  V30 25 C -3.071851 0.672037 -1.702415 0
M  V30 26 C -1.728334 0.272964 -1.561717 0
M  V30 27 N 0.544122 -1.793240 0.119137 0
M  V30 28 H 3.394489 -5.164267 6.591197 0
M  V30 29 H 2.968787 -3.371697 6.683543 0
M  V30 30 H 1.704134 -4.625310 6.610359 0
M  V30 31 H 1.456966 -2.546526 4.763268 0
M  V30 32 H 1.037632 -2.365456 2.432140 0
M  V30 33 H 1.215838 -4.114525 2.291477 0
M  V30 34 H 3.630235 -4.001063 2.147145 0
M  V30 35 H 3.615533 -2.200021 2.291850 0
M  V30 36 H 3.721957 -2.955942 -0.037455 0
M  V30 37 H 2.163468 -3.910158 0.181613 0
M  V30 38 H -1.073136 4.361427 -2.551204 0
M  V30 39 H -1.515745 4.391118 -0.809932 0
M  V30 40 H -0.424468 5.644079 -1.391544 0
M  V30 41 H 2.025915 5.263015 -1.678901 0
M  V30 42 H -1.881393 -0.499733 1.657308 0
M  V30 43 H -4.172401 0.175052 1.441225 0
M  V30 44 H -6.698694 1.784656 -2.225697 0
M  V30 45 H -1.165653 0.348017 -2.459343 0
M  V30 46 H -0.075165 -2.616180 0.322352 0
M  V30 END ATOM
M  V30 BEGIN BOND
M  V30 1 1 1 2
M  V30 2 2 2 3
M  V30 3 1 2 4
M  V30 4 1 4 5
M  V30 5 1 5 6
M  V30 6 1 6 7
M  V30 7 1 7 8
M  V30 8 2 8 9
M  V30 9 1 9 10
M  V30 10 1 10 11
M  V30 11 2 11 12
M  V30 12 1 12 13
M  V30 13 1 13 14
M  V30 14 2 13 15
M  V30 15 1 15 16
M  V30 16 2 10 17
M  V30 17 1 17 18
M  V30 18 2 18 19
M  V30 19 1 19 20
M  V30 20 2 20 21
M  V30 21 1 21 22
M  V30 22 2 22 23
M  V30 23 1 23 24
M  V30 24 1 24 25
M  V30 25 2 25 26
M  V30 26 1 17 27
M  V30 27 1 27 8
M  V30 28 1 16 11
M  V30 29 1 26 18
M  V30 30 1 25 21
M  V30 31 1 1 28
M  V30 32 1 1 29
M  V30 33 1 1 30
M  V30 34 1 4 31
M  V30 35 1 5 32
M  V30 36 1 5 33
M  V30 37 1 6 34
M  V30 38 1 6 35
M  V30 39 1 7 36
M  V30 40 1 7 37
M  V30 41 1 14 38
M  V30 42 1 14 39
M  V30 43 1 14 40
M  V30 44 1 15 41
M  V30 45 1 19 42
M  V30 46 1 20 43
M  V30 47 1 23 44
M  V30 48 1 26 45
M  V30 49 1 27 46
M  V30 END BOND
M  V30 END CTAB
M  END
>  <Dataset>  (402) 
ChEMBL_Kinases

>  <Ligand_Instance>  (402) 
nan

>  <PDB_ID>  (402) 
nan

>  <Standardized_SMILES>  (402) 
CC(=O)NCCCc1nc(-c2nc(C)cs2)c(-c2ccc3ncsc3c2)[nH]1

>  <Name>  (402) 
nan

>  <Pocket>  (402) 
nan

>  <ATP_Site>  (402) 
nan

>  <Peripheral>  (402) 
nan

>  <Num_H_Atoms_ProtBoundConf>  (402) 
nan

>  <Num_Resolved_Atoms>  (402) 
nan

>  <Num_Not_Resolved_Atoms>  (402) 
nan

$$$$
CHEMBL2208014
     RDKit          3D

  0  0  0  0  0  0  0  0  0  0999 V3000
M  V30 BEGIN CTAB
M  V30 COUNTS 45 48 0 0 0
M  V30 BEGIN ATOM
M  V30 1 C 3.907389 -4.656284 4.840776 0
M  V30 2 C 3.234629 -4.354662 3.543745 0
M  V30 3 N 3.955740 -3.369230 2.754920 0
M  V30 4 C 3.451307 -2.970056 1.491571 0
M  V30 5 O 2.393151 -3.495591 1.116211 0
M  V30 6 N 4.089124 -2.029845 0.677366 0
M  V30 7 C 3.676339 -1.540940 -0.625935 0
M  V30 8 C 2.344172 -0.896843 -0.478080 0
M  V30 9 N 2.253884 0.430030 -0.167542 0
M  V30 10 C 0.958918 0.769236 -0.093702 0
M  V30 11 C 0.340971 2.130686 0.221008 0
M  V30 12 N -0.686207 2.593407 0.325932 0
M  V30 13 C -1.014129 3.830644 0.610583 0
M  V30 14 C -2.440960 4.238195 0.705006 0
M  V30 15 C 0.101703 4.693895 0.811312 0
M  V30 16 S 1.550599 3.499443 0.538736 0
M  V30 17 C 0.203429 -0.323716 -0.353281 0
M  V30 18 C -1.248661 -0.387954 -0.374381 0
M  V30 19 C -2.054425 -1.171206 0.444038 0
M  V30 20 C -3.408741 -1.216505 0.408942 0
M  V30 21 C -4.110783 -0.442759 -0.494014 0
M  V30 22 N -5.407768 -0.328458 -0.701856 0
M  V30 23 C -5.994477 0.307176 -1.443735 0
M  V30 24 S -4.536120 1.191286 -2.333626 0
M  V30 25 C -3.324596 0.351967 -1.326573 0
M  V30 26 C -1.940180 0.389152 -1.280503 0
M  V30 27 N 1.072928 -1.323203 -0.583861 0
M  V30 28 H 4.615349 -5.502803 4.767201 0
M  V30 29 H 4.362090 -3.780728 5.339506 0
M  V30 30 H 3.089073 -5.014169 5.530463 0
M  V30 31 H 2.213270 -3.969031 3.716034 0
M  V30 32 H 3.258760 -5.295836 2.942455 0
M  V30 33 H 4.858973 -2.928366 3.089329 0
M  V30 34 H 4.988088 -1.640462 1.091677 0
M  V30 35 H 3.490206 -2.427887 -1.290343 0
M  V30 36 H 4.413330 -0.854847 -1.036328 0
M  V30 37 H -2.901003 3.725202 1.601146 0
M  V30 38 H -2.555439 5.313057 0.843541 0
M  V30 39 H -3.049690 3.861597 -0.167500 0
M  V30 40 H -0.154663 5.869343 1.082162 0
M  V30 41 H -1.488969 -1.784697 1.159950 0
M  V30 42 H -3.882893 -1.895392 1.132752 0
M  V30 43 H -7.151641 0.301151 -1.509587 0
M  V30 44 H -1.506117 1.049146 -1.985733 0
M  V30 45 H 0.862874 -2.316149 -0.819633 0
M  V30 END ATOM
M  V30 BEGIN BOND
M  V30 1 1 1 2
M  V30 2 1 2 3
M  V30 3 1 3 4
M  V30 4 2 4 5
M  V30 5 1 4 6
M  V30 6 1 6 7
M  V30 7 1 7 8
M  V30 8 2 8 9
M  V30 9 1 9 10
M  V30 10 1 10 11
M  V30 11 2 11 12
M  V30 12 1 12 13
M  V30 13 1 13 14
M  V30 14 2 13 15
M  V30 15 1 15 16
M  V30 16 2 10 17
M  V30 17 1 17 18
M  V30 18 2 18 19
M  V30 19 1 19 20
M  V30 20 2 20 21
M  V30 21 1 21 22
M  V30 22 2 22 23
M  V30 23 1 23 24
M  V30 24 1 24 25
M  V30 25 2 25 26
M  V30 26 1 17 27
M  V30 27 1 27 8
M  V30 28 1 16 11
M  V30 29 1 26 18
M  V30 30 1 25 21
M  V30 31 1 1 28
M  V30 32 1 1 29
M  V30 33 1 1 30
M  V30 34 1 2 31
M  V30 35 1 2 32
M  V30 36 1 3 33
M  V30 37 1 6 34
M  V30 38 1 7 35
M  V30 39 1 7 36
M  V30 40 1 14 37
M  V30 41 1 14 38
M  V30 42 1 14 39
M  V30 43 1 15 40
M  V30 44 1 19 41
M  V30 45 1 20 42
M  V30 46 1 23 43
M  V30 47 1 26 44
M  V30 48 1 27 45
M  V30 END BOND
M  V30 END CTAB
M  END
>  <Dataset>  (403) 
ChEMBL_Kinases

>  <Ligand_Instance>  (403) 
nan

>  <PDB_ID>  (403) 
nan

>  <Standardized_SMILES>  (403) 
CCNC(=O)NCc1nc(-c2nc(C)cs2)c(-c2ccc3ncsc3c2)[nH]1

>  <Name>  (403) 
nan

>  <Pocket>  (403) 
nan

>  <ATP_Site>  (403) 
nan

>  <Peripheral>  (403) 
nan

>  <Num_H_Atoms_ProtBoundConf>  (403) 
nan

>  <Num_Resolved_Atoms>  (403) 
nan

>  <Num_Not_Resolved_Atoms>  (403) 
nan

$$$$
CHEMBL2208015
     RDKit          3D

  0  0  0  0  0  0  0  0  0  0999 V3000
M  V30 BEGIN CTAB
M  V30 COUNTS 47 50 0 0 0
M  V30 BEGIN ATOM
M  V30 1 C 3.614188 -2.472061 6.283512 0
M  V30 2 C 2.640317 -3.153971 5.326341 0
M  V30 3 C 3.354396 -3.934146 4.251881 0
M  V30 4 S 2.152010 -4.698077 3.179141 0
M  V30 5 O 2.913727 -5.442854 2.113988 0
M  V30 6 O 1.333744 -5.672784 3.960044 0
M  V30 7 N 1.164981 -3.502596 2.445604 0
M  V30 8 C 1.898175 -2.589035 1.623443 0
M  V30 9 C 1.023014 -1.562535 0.998399 0
M  V30 10 N 0.734826 -0.377102 1.565125 0
M  V30 11 C -0.075828 0.327562 0.762596 0
M  V30 12 C -0.686902 1.706603 0.933441 0
M  V30 13 N -1.354376 2.447296 0.419469 0
M  V30 14 C -1.756826 3.632610 0.787459 0
M  V30 15 C -2.650651 4.545689 0.030465 0
M  V30 16 C -1.266011 4.031758 2.031241 0
M  V30 17 S -0.208723 2.550364 2.562546 0
M  V30 18 C -0.324838 -0.409238 -0.352555 0
M  V30 19 C -1.154744 -0.029634 -1.485483 0
M  V30 20 C -2.507461 0.237903 -1.509389 0
M  V30 21 C -3.214191 0.587908 -2.611279 0
M  V30 22 C -2.595867 0.707219 -3.852592 0
M  V30 23 N -3.024894 1.022696 -5.055007 0
M  V30 24 C -2.526295 1.118703 -6.054350 0
M  V30 25 S -0.733396 0.673938 -5.555613 0
M  V30 26 C -1.259671 0.443424 -3.831344 0
M  V30 27 C -0.510292 0.079547 -2.700478 0
M  V30 28 N 0.361536 -1.568774 -0.186191 0
M  V30 29 H 4.045741 -1.572363 5.795428 0
M  V30 30 H 4.442406 -3.135067 6.538627 0
M  V30 31 H 2.981382 -2.160731 7.154719 0
M  V30 32 H 2.085412 -2.312706 4.822219 0
M  V30 33 H 1.997570 -3.801134 5.936505 0
M  V30 34 H 4.047876 -3.302946 3.693396 0
M  V30 35 H 3.939113 -4.728304 4.768564 0
M  V30 36 H 0.361671 -3.904924 1.945311 0
M  V30 37 H 2.636531 -2.078466 2.276405 0
M  V30 38 H 2.502533 -3.134133 0.868109 0
M  V30 39 H -2.058652 5.342786 -0.490743 0
M  V30 40 H -3.232399 4.039689 -0.735831 0
M  V30 41 H -3.347195 5.120561 0.701857 0
M  V30 42 H -1.509171 5.080657 2.559052 0
M  V30 43 H -2.994473 0.142706 -0.525962 0
M  V30 44 H -4.284936 0.771044 -2.481569 0
M  V30 45 H -3.281345 1.445008 -6.984509 0
M  V30 46 H 0.522685 -0.076111 -2.934916 0
M  V30 47 H 0.395390 -2.380248 -0.865479 0
M  V30 END ATOM
M  V30 BEGIN BOND
M  V30 1 1 1 2
M  V30 2 1 2 3
M  V30 3 1 3 4
M  V30 4 2 4 5
M  V30 5 2 4 6
M  V30 6 1 4 7
M  V30 7 1 7 8
M  V30 8 1 8 9
M  V30 9 2 9 10
M  V30 10 1 10 11
M  V30 11 1 11 12
M  V30 12 2 12 13
M  V30 13 1 13 14
M  V30 14 1 14 15
M  V30 15 2 14 16
M  V30 16 1 16 17
M  V30 17 2 11 18
M  V30 18 1 18 19
M  V30 19 2 19 20
M  V30 20 1 20 21
M  V30 21 2 21 22
M  V30 22 1 22 23
M  V30 23 2 23 24
M  V30 24 1 24 25
M  V30 25 1 25 26
M  V30 26 2 26 27
M  V30 27 1 18 28
M  V30 28 1 28 9
M  V30 29 1 17 12
M  V30 30 1 27 19
M  V30 31 1 26 22
M  V30 32 1 1 29
M  V30 33 1 1 30
M  V30 34 1 1 31
M  V30 35 1 2 32
M  V30 36 1 2 33
M  V30 37 1 3 34
M  V30 38 1 3 35
M  V30 39 1 7 36
M  V30 40 1 8 37
M  V30 41 1 8 38
M  V30 42 1 15 39
M  V30 43 1 15 40
M  V30 44 1 15 41
M  V30 45 1 16 42
M  V30 46 1 20 43
M  V30 47 1 21 44
M  V30 48 1 24 45
M  V30 49 1 27 46
M  V30 50 1 28 47
M  V30 END BOND
M  V30 END CTAB
M  END
>  <Dataset>  (404) 
ChEMBL_Kinases

>  <Ligand_Instance>  (404) 
nan

>  <PDB_ID>  (404) 
nan

>  <Standardized_SMILES>  (404) 
CCCS(=O)(=O)NCc1nc(-c2nc(C)cs2)c(-c2ccc3ncsc3c2)[nH]1

>  <Name>  (404) 
nan

>  <Pocket>  (404) 
nan

>  <ATP_Site>  (404) 
nan

>  <Peripheral>  (404) 
nan

>  <Num_H_Atoms_ProtBoundConf>  (404) 
nan

>  <Num_Resolved_Atoms>  (404) 
nan

>  <Num_Not_Resolved_Atoms>  (404) 
nan

$$$$
CHEMBL2208016
     RDKit          3D

  0  0  0  0  0  0  0  0  0  0999 V3000
M  V30 BEGIN CTAB
M  V30 COUNTS 44 47 0 0 0
M  V30 BEGIN ATOM
M  V30 1 C 4.664673 -2.682099 2.295684 0
M  V30 2 C 5.840887 -2.561707 1.379461 0
M  V30 3 O 5.807984 -1.361960 0.588557 0
M  V30 4 C 4.735558 -1.165528 -0.248731 0
M  V30 5 O 3.923191 -2.122298 -0.170302 0
M  V30 6 N 4.504928 -0.080399 -1.101127 0
M  V30 7 C 3.354088 0.084902 -1.967918 0
M  V30 8 C 2.076659 0.131918 -1.210890 0
M  V30 9 N 1.533812 1.295256 -0.743611 0
M  V30 10 C 0.399311 1.045380 -0.110956 0
M  V30 11 C -0.512617 2.064385 0.556875 0
M  V30 12 N -1.574655 1.933464 1.163204 0
M  V30 13 C -2.230362 2.945438 1.681270 0
M  V30 14 C -3.532543 2.761803 2.418689 0
M  V30 15 C -1.659157 4.239083 1.516636 0
M  V30 16 S -0.113842 3.781038 0.548751 0
M  V30 17 C 0.163620 -0.287043 -0.143917 0
M  V30 18 C -0.949524 -1.036393 0.405848 0
M  V30 19 C -0.956354 -1.961809 1.411805 0
M  V30 20 C -2.048661 -2.634404 1.866465 0
M  V30 21 C -3.293508 -2.404627 1.300597 0
M  V30 22 N -4.477418 -2.936209 1.574987 0
M  V30 23 C -5.502853 -2.726037 1.082433 0
M  V30 24 S -5.050733 -1.405908 -0.238982 0
M  V30 25 C -3.287546 -1.455654 0.269151 0
M  V30 26 C -2.164019 -0.772600 -0.189138 0
M  V30 27 N 1.198799 -0.815897 -0.818236 0
M  V30 28 H 4.973417 -3.046238 3.296021 0
M  V30 29 H 3.976144 -3.448926 1.887462 0
M  V30 30 H 4.063224 -1.743466 2.348687 0
M  V30 31 H 5.849312 -3.421497 0.682133 0
M  V30 32 H 6.767625 -2.530116 2.002957 0
M  V30 33 H 5.303686 0.616704 -1.021372 0
M  V30 34 H 3.272275 -0.798327 -2.639114 0
M  V30 35 H 3.460666 1.008616 -2.547265 0
M  V30 36 H -3.438077 3.157497 3.456490 0
M  V30 37 H -3.809875 1.702663 2.522763 0
M  V30 38 H -4.327812 3.380399 1.947212 0
M  V30 39 H -2.183417 5.179857 1.948426 0
M  V30 40 H 0.034307 -2.145621 1.863086 0
M  V30 41 H -1.886660 -3.333686 2.668076 0
M  V30 42 H -6.467176 -3.218693 1.372976 0
M  V30 43 H -2.380646 -0.082700 -0.995595 0
M  V30 44 H 1.341172 -1.819382 -1.031959 0
M  V30 END ATOM
M  V30 BEGIN BOND
M  V30 1 1 1 2
M  V30 2 1 2 3
M  V30 3 1 3 4
M  V30 4 2 4 5
M  V30 5 1 4 6
M  V30 6 1 6 7
M  V30 7 1 7 8
M  V30 8 2 8 9
M  V30 9 1 9 10
M  V30 10 1 10 11
M  V30 11 2 11 12
M  V30 12 1 12 13
M  V30 13 1 13 14
M  V30 14 2 13 15
M  V30 15 1 15 16
M  V30 16 2 10 17
M  V30 17 1 17 18
M  V30 18 2 18 19
M  V30 19 1 19 20
M  V30 20 2 20 21
M  V30 21 1 21 22
M  V30 22 2 22 23
M  V30 23 1 23 24
M  V30 24 1 24 25
M  V30 25 2 25 26
M  V30 26 1 17 27
M  V30 27 1 27 8
M  V30 28 1 16 11
M  V30 29 1 26 18
M  V30 30 1 25 21
M  V30 31 1 1 28
M  V30 32 1 1 29
M  V30 33 1 1 30
M  V30 34 1 2 31
M  V30 35 1 2 32
M  V30 36 1 6 33
M  V30 37 1 7 34
M  V30 38 1 7 35
M  V30 39 1 14 36
M  V30 40 1 14 37
M  V30 41 1 14 38
M  V30 42 1 15 39
M  V30 43 1 19 40
M  V30 44 1 20 41
M  V30 45 1 23 42
M  V30 46 1 26 43
M  V30 47 1 27 44
M  V30 END BOND
M  V30 END CTAB
M  END
>  <Dataset>  (405) 
ChEMBL_Kinases

>  <Ligand_Instance>  (405) 
nan

>  <PDB_ID>  (405) 
nan

>  <Standardized_SMILES>  (405) 
CCOC(=O)NCc1nc(-c2nc(C)cs2)c(-c2ccc3ncsc3c2)[nH]1

>  <Name>  (405) 
nan

>  <Pocket>  (405) 
nan

>  <ATP_Site>  (405) 
nan

>  <Peripheral>  (405) 
nan

>  <Num_H_Atoms_ProtBoundConf>  (405) 
nan

>  <Num_Resolved_Atoms>  (405) 
nan

>  <Num_Not_Resolved_Atoms>  (405) 
nan

$$$$
CHEMBL220862
     RDKit          3D

  0  0  0  0  0  0  0  0  0  0999 V3000
M  V30 BEGIN CTAB
M  V30 COUNTS 52 55 0 0 0
M  V30 BEGIN ATOM
M  V30 1 C 0.381421 -1.117547 5.374870 0
M  V30 2 C 1.115986 -2.270979 4.743259 0
M  V30 3 O 1.270037 -3.513414 4.860214 0
M  V30 4 N 1.945055 -1.914248 3.617565 0
M  V30 5 C 2.688586 -2.998118 2.950667 0
M  V30 6 C 1.992503 -3.201148 1.587772 0
M  V30 7 N 1.553235 -1.897772 1.064099 0
M  V30 8 C 0.439005 -1.788964 0.194947 0
M  V30 9 C -0.055460 -0.558617 -0.171760 0
M  V30 10 C 0.213832 0.832321 0.082580 0
M  V30 11 C 0.002824 1.616600 1.211286 0
M  V30 12 C 0.324998 2.942337 1.264184 0
M  V30 13 N 0.867231 3.553474 0.212632 0
M  V30 14 C 1.112250 2.870905 -0.937447 0
M  V30 15 C 0.786897 1.513075 -1.004206 0
M  V30 16 C -1.129380 -0.785146 -1.041206 0
M  V30 17 C -2.060301 0.082636 -1.765987 0
M  V30 18 C -2.890571 0.874960 -0.969318 0
M  V30 19 C -3.837177 1.758772 -1.444358 0
M  V30 20 C -3.961564 1.856733 -2.812261 0
M  V30 21 F -4.857997 2.692241 -3.362952 0
M  V30 22 C -3.161695 1.092841 -3.626967 0
M  V30 23 C -2.215363 0.209488 -3.128888 0
M  V30 24 C -1.235289 -2.176904 -1.160960 0
M  V30 25 C -2.206714 -2.911213 -1.958973 0
M  V30 26 N -2.986902 -3.495230 -2.620509 0
M  V30 27 N -0.265651 -2.765282 -0.396158 0
M  V30 28 C -0.095835 -4.195955 -0.305410 0
M  V30 29 C 2.397459 -0.818924 1.529744 0
M  V30 30 C 2.177569 -0.618817 3.003886 0
M  V30 31 H -0.333485 -0.704278 4.628353 0
M  V30 32 H -0.210874 -1.416012 6.246668 0
M  V30 33 H 1.118811 -0.334157 5.615037 0
M  V30 34 H 2.609051 -3.915219 3.537973 0
M  V30 35 H 3.718385 -2.647939 2.844170 0
M  V30 36 H 2.728224 -3.595454 0.895733 0
M  V30 37 H 1.139681 -3.835618 1.843690 0
M  V30 38 H -0.444551 1.030999 2.019150 0
M  V30 39 H 0.132093 3.480043 2.170217 0
M  V30 40 H 1.547913 3.374571 -1.772515 0
M  V30 41 H 1.016763 1.039839 -1.965112 0
M  V30 42 H -2.821909 0.825822 0.129140 0
M  V30 43 H -4.448738 2.342744 -0.789181 0
M  V30 44 H -3.214698 1.127155 -4.705830 0
M  V30 45 H -1.559251 -0.415799 -3.712506 0
M  V30 46 H -0.652493 -4.663434 0.541701 0
M  V30 47 H -0.597121 -4.672648 -1.208934 0
M  V30 48 H 0.952586 -4.540004 -0.401012 0
M  V30 49 H 3.476040 -1.180492 1.452870 0
M  V30 50 H 2.393465 0.085632 0.920468 0
M  V30 51 H 1.382439 0.090374 3.247083 0
M  V30 52 H 3.123019 -0.240774 3.456180 0
M  V30 END ATOM
M  V30 BEGIN BOND
M  V30 1 1 1 2
M  V30 2 2 2 3
M  V30 3 1 2 4
M  V30 4 1 4 5
M  V30 5 1 5 6
M  V30 6 1 6 7
M  V30 7 1 7 8
M  V30 8 2 8 9
M  V30 9 1 9 10
M  V30 10 2 10 11
M  V30 11 1 11 12
M  V30 12 2 12 13
M  V30 13 1 13 14
M  V30 14 2 14 15
M  V30 15 1 9 16
M  V30 16 1 16 17
M  V30 17 2 17 18
M  V30 18 1 18 19
M  V30 19 2 19 20
M  V30 20 1 20 21
M  V30 21 1 20 22
M  V30 22 2 22 23
M  V30 23 2 16 24
M  V30 24 1 24 25
M  V30 25 3 25 26
M  V30 26 1 24 27
M  V30 27 1 27 28
M  V30 28 1 7 29
M  V30 29 1 29 30
M  V30 30 1 30 4
M  V30 31 1 27 8
M  V30 32 1 15 10
M  V30 33 1 23 17
M  V30 34 1 1 31
M  V30 35 1 1 32
M  V30 36 1 1 33
M  V30 37 1 5 34
M  V30 38 1 5 35
M  V30 39 1 6 36
M  V30 40 1 6 37
M  V30 41 1 11 38
M  V30 42 1 12 39
M  V30 43 1 14 40
M  V30 44 1 15 41
M  V30 45 1 18 42
M  V30 46 1 19 43
M  V30 47 1 22 44
M  V30 48 1 23 45
M  V30 49 1 28 46
M  V30 50 1 28 47
M  V30 51 1 28 48
M  V30 52 1 29 49
M  V30 53 1 29 50
M  V30 54 1 30 51
M  V30 55 1 30 52
M  V30 END BOND
M  V30 END CTAB
M  END
>  <Dataset>  (406) 
ChEMBL_Kinases

>  <Ligand_Instance>  (406) 
nan

>  <PDB_ID>  (406) 
nan

>  <Standardized_SMILES>  (406) 
CC(=O)N1CCN(c2c(-c3ccncc3)c(-c3ccc(F)cc3)c(C#N)n2C)CC1

>  <Name>  (406) 
nan

>  <Pocket>  (406) 
nan

>  <ATP_Site>  (406) 
nan

>  <Peripheral>  (406) 
nan

>  <Num_H_Atoms_ProtBoundConf>  (406) 
nan

>  <Num_Resolved_Atoms>  (406) 
nan

>  <Num_Not_Resolved_Atoms>  (406) 
nan

$$$$
CHEMBL2208018
     RDKit          3D

  0  0  0  0  0  0  0  0  0  0999 V3000
M  V30 BEGIN CTAB
M  V30 COUNTS 41 44 0 0 0
M  V30 BEGIN ATOM
M  V30 1 C 3.104529 -4.351978 4.935846 0
M  V30 2 O 3.645498 -4.249349 3.633504 0
M  V30 3 C 2.880536 -4.120478 2.500460 0
M  V30 4 O 1.647530 -4.095997 2.663253 0
M  V30 5 N 3.424179 -4.017679 1.195628 0
M  V30 6 C 2.680738 -3.879109 -0.042388 0
M  V30 7 C 1.871603 -2.632345 0.000077 0
M  V30 8 N 2.370634 -1.428935 -0.411460 0
M  V30 9 C 1.426528 -0.488723 -0.267715 0
M  V30 10 C 1.425847 0.954403 -0.552162 0
M  V30 11 N 0.763472 1.879481 -0.503730 0
M  V30 12 C 1.014619 3.126849 -0.837255 0
M  V30 13 C -0.063599 4.144400 -0.662097 0
M  V30 14 C 2.411817 3.302006 -1.358766 0
M  V30 15 S 3.052802 1.627491 -1.251955 0
M  V30 16 C 0.295019 -1.080644 0.243685 0
M  V30 17 C -0.982582 -0.466981 0.567990 0
M  V30 18 C -1.590507 -0.412180 1.827202 0
M  V30 19 C -2.789333 0.178074 2.063175 0
M  V30 20 C -3.497086 0.780753 1.017931 0
M  V30 21 N -4.680357 1.368603 1.226125 0
M  V30 22 C -5.283595 1.898968 0.257372 0
M  V30 23 S -4.115703 1.590789 -1.215845 0
M  V30 24 C -2.924368 0.748137 -0.256848 0
M  V30 25 C -1.692800 0.126848 -0.429911 0
M  V30 26 N 0.624321 -2.376599 0.384485 0
M  V30 27 H 3.392044 -5.281830 5.457503 0
M  V30 28 H 3.487786 -3.495679 5.529094 0
M  V30 29 H 1.998902 -4.263697 4.947934 0
M  V30 30 H 4.487680 -4.051771 1.189183 0
M  V30 31 H 3.411564 -3.807341 -0.879228 0
M  V30 32 H 2.015075 -4.766571 -0.170281 0
M  V30 33 H -0.391853 4.230245 0.392843 0
M  V30 34 H -0.967864 3.903045 -1.258661 0
M  V30 35 H 0.274937 5.133671 -1.006843 0
M  V30 36 H 2.579006 4.463068 -1.646009 0
M  V30 37 H -0.999587 -0.898745 2.622264 0
M  V30 38 H -3.107904 0.123399 3.111673 0
M  V30 39 H -6.222027 2.400669 0.257135 0
M  V30 40 H -1.396400 0.191662 -1.470430 0
M  V30 41 H -0.028267 -3.101981 0.752304 0
M  V30 END ATOM
M  V30 BEGIN BOND
M  V30 1 1 1 2
M  V30 2 1 2 3
M  V30 3 2 3 4
M  V30 4 1 3 5
M  V30 5 1 5 6
M  V30 6 1 6 7
M  V30 7 2 7 8
M  V30 8 1 8 9
M  V30 9 1 9 10
M  V30 10 2 10 11
M  V30 11 1 11 12
M  V30 12 1 12 13
M  V30 13 2 12 14
M  V30 14 1 14 15
M  V30 15 2 9 16
M  V30 16 1 16 17
M  V30 17 2 17 18
M  V30 18 1 18 19
M  V30 19 2 19 20
M  V30 20 1 20 21
M  V30 21 2 21 22
M  V30 22 1 22 23
M  V30 23 1 23 24
M  V30 24 2 24 25
M  V30 25 1 16 26
M  V30 26 1 26 7
M  V30 27 1 15 10
M  V30 28 1 25 17
M  V30 29 1 24 20
M  V30 30 1 1 27
M  V30 31 1 1 28
M  V30 32 1 1 29
M  V30 33 1 5 30
M  V30 34 1 6 31
M  V30 35 1 6 32
M  V30 36 1 13 33
M  V30 37 1 13 34
M  V30 38 1 13 35
M  V30 39 1 14 36
M  V30 40 1 18 37
M  V30 41 1 19 38
M  V30 42 1 22 39
M  V30 43 1 25 40
M  V30 44 1 26 41
M  V30 END BOND
M  V30 END CTAB
M  END
>  <Dataset>  (407) 
ChEMBL_Kinases

>  <Ligand_Instance>  (407) 
nan

>  <PDB_ID>  (407) 
nan

>  <Standardized_SMILES>  (407) 
COC(=O)NCc1nc(-c2nc(C)cs2)c(-c2ccc3ncsc3c2)[nH]1

>  <Name>  (407) 
nan

>  <Pocket>  (407) 
nan

>  <ATP_Site>  (407) 
nan

>  <Peripheral>  (407) 
nan

>  <Num_H_Atoms_ProtBoundConf>  (407) 
nan

>  <Num_Resolved_Atoms>  (407) 
nan

>  <Num_Not_Resolved_Atoms>  (407) 
nan

$$$$
CHEMBL2208019
     RDKit          3D

  0  0  0  0  0  0  0  0  0  0999 V3000
M  V30 BEGIN CTAB
M  V30 COUNTS 47 50 0 0 0
M  V30 BEGIN ATOM
M  V30 1 C 1.264867 -2.818924 4.817451 0
M  V30 2 C 0.904114 -4.078872 4.026589 0
M  V30 3 C 2.130915 -4.876565 3.744539 0
M  V30 4 O 3.037011 -4.105599 2.992999 0
M  V30 5 C 2.699108 -3.629834 1.759322 0
M  V30 6 O 1.589942 -3.836837 1.213729 0
M  V30 7 N 3.619031 -2.854633 1.015632 0
M  V30 8 C 3.430246 -2.267150 -0.309373 0
M  V30 9 C 2.288159 -1.318175 -0.276730 0
M  V30 10 N 2.441164 -0.014152 0.053621 0
M  V30 11 C 1.269666 0.608909 -0.001401 0
M  V30 12 C 0.885035 2.055413 0.270038 0
M  V30 13 N 0.002221 2.747113 0.280870 0
M  V30 14 C -0.063938 4.025147 0.566522 0
M  V30 15 C -1.262028 4.905069 0.567954 0
M  V30 16 C 1.162249 4.616146 0.911925 0
M  V30 17 S 2.352897 3.144141 0.772092 0
M  V30 18 C 0.313273 -0.293079 -0.375576 0
M  V30 19 C -1.108589 -0.047444 -0.561647 0
M  V30 20 C -2.030654 0.349232 0.379092 0
M  V30 21 C -3.350408 0.566925 0.153992 0
M  V30 22 C -3.871196 0.387377 -1.126555 0
M  V30 23 N -5.117932 0.549044 -1.537677 0
M  V30 24 C -5.546444 0.394761 -2.620381 0
M  V30 25 S -3.971280 -0.140200 -3.586015 0
M  V30 26 C -2.939107 -0.017767 -2.095873 0
M  V30 27 C -1.584971 -0.235871 -1.841128 0
M  V30 28 N 0.987622 -1.447022 -0.529502 0
M  V30 29 H 0.499179 -2.594012 5.600856 0
M  V30 30 H 2.232485 -2.961838 5.339912 0
M  V30 31 H 1.281253 -1.958840 4.106421 0
M  V30 32 H 0.261685 -4.704750 4.707947 0
M  V30 33 H 0.319105 -3.814769 3.145257 0
M  V30 34 H 2.561181 -5.196024 4.718990 0
M  V30 35 H 1.823310 -5.766431 3.135869 0
M  V30 36 H 4.548679 -2.682366 1.473446 0
M  V30 37 H 3.259312 -3.062494 -1.071628 0
M  V30 38 H 4.325430 -1.729974 -0.624272 0
M  V30 39 H -1.107463 5.796934 -0.053342 0
M  V30 40 H -2.167155 4.382026 0.251584 0
M  V30 41 H -1.467911 5.274249 1.612920 0
M  V30 42 H 1.387764 5.680927 1.197821 0
M  V30 43 H -1.622471 0.488998 1.378814 0
M  V30 44 H -3.956339 0.880274 1.007555 0
M  V30 45 H -6.607401 0.540147 -2.933812 0
M  V30 46 H -1.058698 -0.538296 -2.719687 0
M  V30 47 H 0.547171 -2.345185 -0.817564 0
M  V30 END ATOM
M  V30 BEGIN BOND
M  V30 1 1 1 2
M  V30 2 1 2 3
M  V30 3 1 3 4
M  V30 4 1 4 5
M  V30 5 2 5 6
M  V30 6 1 5 7
M  V30 7 1 7 8
M  V30 8 1 8 9
M  V30 9 2 9 10
M  V30 10 1 10 11
M  V30 11 1 11 12
M  V30 12 2 12 13
M  V30 13 1 13 14
M  V30 14 1 14 15
M  V30 15 2 14 16
M  V30 16 1 16 17
M  V30 17 2 11 18
M  V30 18 1 18 19
M  V30 19 2 19 20
M  V30 20 1 20 21
M  V30 21 2 21 22
M  V30 22 1 22 23
M  V30 23 2 23 24
M  V30 24 1 24 25
M  V30 25 1 25 26
M  V30 26 2 26 27
M  V30 27 1 18 28
M  V30 28 1 28 9
M  V30 29 1 17 12
M  V30 30 1 27 19
M  V30 31 1 26 22
M  V30 32 1 1 29
M  V30 33 1 1 30
M  V30 34 1 1 31
M  V30 35 1 2 32
M  V30 36 1 2 33
M  V30 37 1 3 34
M  V30 38 1 3 35
M  V30 39 1 7 36
M  V30 40 1 8 37
M  V30 41 1 8 38
M  V30 42 1 15 39
M  V30 43 1 15 40
M  V30 44 1 15 41
M  V30 45 1 16 42
M  V30 46 1 20 43
M  V30 47 1 21 44
M  V30 48 1 24 45
M  V30 49 1 27 46
M  V30 50 1 28 47
M  V30 END BOND
M  V30 END CTAB
M  END
>  <Dataset>  (408) 
ChEMBL_Kinases

>  <Ligand_Instance>  (408) 
nan

>  <PDB_ID>  (408) 
nan

>  <Standardized_SMILES>  (408) 
CCCOC(=O)NCc1nc(-c2nc(C)cs2)c(-c2ccc3ncsc3c2)[nH]1

>  <Name>  (408) 
nan

>  <Pocket>  (408) 
nan

>  <ATP_Site>  (408) 
nan

>  <Peripheral>  (408) 
nan

>  <Num_H_Atoms_ProtBoundConf>  (408) 
nan

>  <Num_Resolved_Atoms>  (408) 
nan

>  <Num_Not_Resolved_Atoms>  (408) 
nan

$$$$
CHEMBL2208020
     RDKit          3D

  0  0  0  0  0  0  0  0  0  0999 V3000
M  V30 BEGIN CTAB
M  V30 COUNTS 50 53 0 0 0
M  V30 BEGIN ATOM
M  V30 1 C 0.823051 -1.867600 4.273408 0
M  V30 2 C 1.883996 -2.084684 3.180356 0
M  V30 3 C 3.247994 -1.960250 3.733878 0
M  V30 4 C 4.420623 -2.179768 2.862810 0
M  V30 5 O 4.567955 -1.397235 1.728450 0
M  V30 6 C 3.786650 -1.483062 0.611513 0
M  V30 7 O 2.837586 -2.258235 0.348972 0
M  V30 8 N 4.025298 -0.582903 -0.457557 0
M  V30 9 C 3.369572 -0.438521 -1.742747 0
M  V30 10 C 1.905624 -0.275424 -1.388923 0
M  V30 11 N 1.481147 0.849752 -0.967306 0
M  V30 12 C 0.333206 1.190347 -0.634390 0
M  V30 13 C -1.066760 1.602192 -0.229486 0
M  V30 14 N -0.859049 2.811679 0.117111 0
M  V30 15 C -1.855015 3.569015 0.561027 0
M  V30 16 C -2.023284 4.987730 1.054728 0
M  V30 17 C -3.178554 2.995010 0.644080 0
M  V30 18 S -2.739538 1.268422 -0.000085 0
M  V30 19 C -0.091133 -0.166469 -0.953355 0
M  V30 20 C -1.329147 -1.057863 -0.960513 0
M  V30 21 C -1.753385 -1.579674 0.256309 0
M  V30 22 C -2.885881 -2.378113 0.364828 0
M  V30 23 C -3.586356 -2.633619 -0.826244 0
M  V30 24 N -4.680558 -3.369183 -0.903632 0
M  V30 25 C -5.332917 -3.646649 -1.801230 0
M  V30 26 S -4.320556 -2.700998 -3.137199 0
M  V30 27 C -3.155759 -2.118444 -1.991562 0
M  V30 28 C -2.036828 -1.325861 -2.117067 0
M  V30 29 N 0.840133 -1.067117 -1.409871 0
M  V30 30 H -0.083265 -2.453041 4.067071 0
M  V30 31 H 0.597818 -0.766185 4.395676 0
M  V30 32 H 1.232209 -2.186286 5.253601 0
M  V30 33 H 1.652031 -3.038689 2.698674 0
M  V30 34 H 1.673274 -1.269967 2.440521 0
M  V30 35 H 3.356212 -2.693073 4.598220 0
M  V30 36 H 3.357801 -0.959126 4.259559 0
M  V30 37 H 5.330236 -1.954920 3.497348 0
M  V30 38 H 4.477812 -3.261878 2.545630 0
M  V30 39 H 4.824078 0.118173 -0.327935 0
M  V30 40 H 3.714123 0.428321 -2.303080 0
M  V30 41 H 3.436023 -1.359024 -2.366000 0
M  V30 42 H -2.676947 5.576526 0.410069 0
M  V30 43 H -2.293211 5.004688 2.130498 0
M  V30 44 H -1.018664 5.503538 0.993788 0
M  V30 45 H -4.197483 3.191970 0.915033 0
M  V30 46 H -1.151001 -1.329745 1.126219 0
M  V30 47 H -3.096452 -2.712762 1.371756 0
M  V30 48 H -6.230674 -4.233077 -1.956195 0
M  V30 49 H -1.707242 -0.923535 -3.053811 0
M  V30 50 H 1.076729 -2.025822 -1.743681 0
M  V30 END ATOM
M  V30 BEGIN BOND
M  V30 1 1 1 2
M  V30 2 1 2 3
M  V30 3 1 3 4
M  V30 4 1 4 5
M  V30 5 1 5 6
M  V30 6 2 6 7
M  V30 7 1 6 8
M  V30 8 1 8 9
M  V30 9 1 9 10
M  V30 10 2 10 11
M  V30 11 1 11 12
M  V30 12 1 12 13
M  V30 13 2 13 14
M  V30 14 1 14 15
M  V30 15 1 15 16
M  V30 16 2 15 17
M  V30 17 1 17 18
M  V30 18 2 12 19
M  V30 19 1 19 20
M  V30 20 2 20 21
M  V30 21 1 21 22
M  V30 22 2 22 23
M  V30 23 1 23 24
M  V30 24 2 24 25
M  V30 25 1 25 26
M  V30 26 1 26 27
M  V30 27 2 27 28
M  V30 28 1 19 29
M  V30 29 1 29 10
M  V30 30 1 18 13
M  V30 31 1 28 20
M  V30 32 1 27 23
M  V30 33 1 1 30
M  V30 34 1 1 31
M  V30 35 1 1 32
M  V30 36 1 2 33
M  V30 37 1 2 34
M  V30 38 1 3 35
M  V30 39 1 3 36
M  V30 40 1 4 37
M  V30 41 1 4 38
M  V30 42 1 8 39
M  V30 43 1 9 40
M  V30 44 1 9 41
M  V30 45 1 16 42
M  V30 46 1 16 43
M  V30 47 1 16 44
M  V30 48 1 17 45
M  V30 49 1 21 46
M  V30 50 1 22 47
M  V30 51 1 25 48
M  V30 52 1 28 49
M  V30 53 1 29 50
M  V30 END BOND
M  V30 END CTAB
M  END
>  <Dataset>  (409) 
ChEMBL_Kinases

>  <Ligand_Instance>  (409) 
nan

>  <PDB_ID>  (409) 
nan

>  <Standardized_SMILES>  (409) 
CCCCOC(=O)NCc1nc(-c2nc(C)cs2)c(-c2ccc3ncsc3c2)[nH]1

>  <Name>  (409) 
nan

>  <Pocket>  (409) 
nan

>  <ATP_Site>  (409) 
nan

>  <Peripheral>  (409) 
nan

>  <Num_H_Atoms_ProtBoundConf>  (409) 
nan

>  <Num_Resolved_Atoms>  (409) 
nan

>  <Num_Not_Resolved_Atoms>  (409) 
nan

$$$$
CHEMBL2208021
     RDKit          3D

  0  0  0  0  0  0  0  0  0  0999 V3000
M  V30 BEGIN CTAB
M  V30 COUNTS 53 56 0 0 0
M  V30 BEGIN ATOM
M  V30 1 C 1.997666 -0.766478 1.460815 0
M  V30 2 C 3.367086 -0.614102 2.083109 0
M  V30 3 C 3.388609 0.270435 3.274711 0
M  V30 4 C 3.006351 1.691265 3.094350 0
M  V30 5 C 3.853419 2.507515 2.183116 0
M  V30 6 O 3.891118 2.099288 0.849749 0
M  V30 7 C 2.810926 2.085576 -0.002200 0
M  V30 8 O 1.762013 2.484422 0.547259 0
M  V30 9 N 2.792410 1.682835 -1.365527 0
M  V30 10 C 1.597083 1.710619 -2.181895 0
M  V30 11 C 0.575109 0.825440 -1.570509 0
M  V30 12 N -0.324932 1.242330 -0.650036 0
M  V30 13 C -1.117606 0.221377 -0.287116 0
M  V30 14 C -2.221355 0.115702 0.642195 0
M  V30 15 N -2.972082 -0.652053 1.051125 0
M  V30 16 C -3.932639 -0.483613 1.942957 0
M  V30 17 C -4.860756 -1.546730 2.411083 0
M  V30 18 C -4.063535 0.830848 2.478277 0
M  V30 19 S -2.668133 1.722917 1.546879 0
M  V30 20 C -0.718758 -0.889971 -0.993957 0
M  V30 21 C -1.255086 -2.239651 -0.961340 0
M  V30 22 C -0.592495 -3.402120 -0.605760 0
M  V30 23 C -1.133814 -4.645868 -0.588789 0
M  V30 24 C -2.459705 -4.829441 -0.948617 0
M  V30 25 N -3.151926 -5.948349 -0.993102 0
M  V30 26 C -4.274697 -6.100140 -1.298332 0
M  V30 27 S -4.795638 -4.293431 -1.703012 0
M  V30 28 C -3.137961 -3.666767 -1.308805 0
M  V30 29 C -2.558821 -2.382192 -1.320426 0
M  V30 30 N 0.319726 -0.500183 -1.775084 0
M  V30 31 H 1.478226 -1.688807 1.801048 0
M  V30 32 H 2.083428 -0.695983 0.377732 0
M  V30 33 H 1.333382 0.076528 1.799704 0
M  V30 34 H 4.088484 -0.293495 1.289266 0
M  V30 35 H 3.631757 -1.646622 2.449539 0
M  V30 36 H 4.376876 0.185454 3.785158 0
M  V30 37 H 2.645387 -0.166711 4.007629 0
M  V30 38 H 3.065441 2.169429 4.118903 0
M  V30 39 H 1.942880 1.763644 2.767114 0
M  V30 40 H 3.487748 3.572766 2.284419 0
M  V30 41 H 4.906485 2.560678 2.605375 0
M  V30 42 H 3.722625 1.361468 -1.733867 0
M  V30 43 H 1.174584 2.729654 -2.284530 0
M  V30 44 H 1.866483 1.273141 -3.172620 0
M  V30 45 H -4.391454 -2.538552 2.389719 0
M  V30 46 H -5.823898 -1.533517 1.856763 0
M  V30 47 H -5.147973 -1.386173 3.486721 0
M  V30 48 H -4.771649 1.173389 3.205596 0
M  V30 49 H 0.459687 -3.257175 -0.320079 0
M  V30 50 H -0.467417 -5.465545 -0.280214 0
M  V30 51 H -4.841934 -7.053224 -1.329675 0
M  V30 52 H -3.204344 -1.592496 -1.618705 0
M  V30 53 H 0.849687 -1.091316 -2.428512 0
M  V30 END ATOM
M  V30 BEGIN BOND
M  V30 1 1 1 2
M  V30 2 1 2 3
M  V30 3 1 3 4
M  V30 4 1 4 5
M  V30 5 1 5 6
M  V30 6 1 6 7
M  V30 7 2 7 8
M  V30 8 1 7 9
M  V30 9 1 9 10
M  V30 10 1 10 11
M  V30 11 2 11 12
M  V30 12 1 12 13
M  V30 13 1 13 14
M  V30 14 2 14 15
M  V30 15 1 15 16
M  V30 16 1 16 17
M  V30 17 2 16 18
M  V30 18 1 18 19
M  V30 19 2 13 20
M  V30 20 1 20 21
M  V30 21 2 21 22
M  V30 22 1 22 23
M  V30 23 2 23 24
M  V30 24 1 24 25
M  V30 25 2 25 26
M  V30 26 1 26 27
M  V30 27 1 27 28
M  V30 28 2 28 29
M  V30 29 1 20 30
M  V30 30 1 30 11
M  V30 31 1 19 14
M  V30 32 1 29 21
M  V30 33 1 28 24
M  V30 34 1 1 31
M  V30 35 1 1 32
M  V30 36 1 1 33
M  V30 37 1 2 34
M  V30 38 1 2 35
M  V30 39 1 3 36
M  V30 40 1 3 37
M  V30 41 1 4 38
M  V30 42 1 4 39
M  V30 43 1 5 40
M  V30 44 1 5 41
M  V30 45 1 9 42
M  V30 46 1 10 43
M  V30 47 1 10 44
M  V30 48 1 17 45
M  V30 49 1 17 46
M  V30 50 1 17 47
M  V30 51 1 18 48
M  V30 52 1 22 49
M  V30 53 1 23 50
M  V30 54 1 26 51
M  V30 55 1 29 52
M  V30 56 1 30 53
M  V30 END BOND
M  V30 END CTAB
M  END
>  <Dataset>  (410) 
ChEMBL_Kinases

>  <Ligand_Instance>  (410) 
nan

>  <PDB_ID>  (410) 
nan

>  <Standardized_SMILES>  (410) 
CCCCCOC(=O)NCc1nc(-c2nc(C)cs2)c(-c2ccc3ncsc3c2)[nH]1

>  <Name>  (410) 
nan

>  <Pocket>  (410) 
nan

>  <ATP_Site>  (410) 
nan

>  <Peripheral>  (410) 
nan

>  <Num_H_Atoms_ProtBoundConf>  (410) 
nan

>  <Num_Resolved_Atoms>  (410) 
nan

>  <Num_Not_Resolved_Atoms>  (410) 
nan

$$$$
CHEMBL2208022
     RDKit          3D

  0  0  0  0  0  0  0  0  0  0999 V3000
M  V30 BEGIN CTAB
M  V30 COUNTS 47 50 0 0 0
M  V30 BEGIN ATOM
M  V30 1 C -3.305470 -2.093742 4.495765 0
M  V30 2 C -2.245054 -1.039884 4.286166 0
M  V30 3 C -1.430162 -0.304212 5.308283 0
M  V30 4 S -0.434798 0.737236 4.254234 0
M  V30 5 C -1.205878 0.080770 2.648168 0
M  V30 6 C -0.696809 0.654405 1.426339 0
M  V30 7 N 0.239827 1.588724 1.193190 0
M  V30 8 C 0.327986 1.753437 -0.132700 0
M  V30 9 C 1.200783 2.657605 -0.935135 0
M  V30 10 N 2.421281 1.909536 -1.216898 0
M  V30 11 C 3.216667 1.445700 -0.153331 0
M  V30 12 O 2.910310 1.654909 1.037021 0
M  V30 13 O 4.381670 0.733274 -0.325563 0
M  V30 14 C 5.120430 0.304955 0.786909 0
M  V30 15 C 5.291354 -1.177188 0.866417 0
M  V30 16 C 6.494672 0.937591 0.702819 0
M  V30 17 N -0.556533 0.920804 -0.757131 0
M  V30 18 C -1.200369 0.229807 0.231346 0
M  V30 19 C -2.217402 -0.753742 -0.059740 0
M  V30 20 C -3.556864 -0.713068 0.312752 0
M  V30 21 C -4.489983 -1.656368 0.022413 0
M  V30 22 C -4.143308 -2.788452 -0.708627 0
M  V30 23 N -4.837009 -3.823256 -1.113281 0
M  V30 24 C -4.564473 -4.749159 -1.708404 0
M  V30 25 S -2.717732 -4.379283 -1.980900 0
M  V30 26 C -2.841735 -2.852689 -1.084580 0
M  V30 27 C -1.896331 -1.889459 -0.786174 0
M  V30 28 N -2.035517 -0.755659 3.017625 0
M  V30 29 H -3.368034 -2.376708 5.561599 0
M  V30 30 H -3.051923 -3.021251 3.951351 0
M  V30 31 H -4.270536 -1.729353 4.093490 0
M  V30 32 H -1.761054 -0.696375 6.402622 0
M  V30 33 H 0.711828 2.997461 -1.864417 0
M  V30 34 H 1.519632 3.542812 -0.346566 0
M  V30 35 H 2.732373 1.701727 -2.188901 0
M  V30 36 H 4.645291 0.613082 1.762364 0
M  V30 37 H 6.264316 -1.378490 1.368803 0
M  V30 38 H 5.398376 -1.661441 -0.141003 0
M  V30 39 H 4.539998 -1.693166 1.495916 0
M  V30 40 H 7.186063 0.259008 0.161329 0
M  V30 41 H 6.430943 1.857711 0.100304 0
M  V30 42 H 6.871303 1.137824 1.736219 0
M  V30 43 H -0.719358 0.822231 -1.799940 0
M  V30 44 H -3.844575 0.179617 0.892998 0
M  V30 45 H -5.497836 -1.479511 0.385511 0
M  V30 46 H -5.489317 -5.545553 -1.917814 0
M  V30 47 H -0.936961 -2.106488 -1.159254 0
M  V30 END ATOM
M  V30 BEGIN BOND
M  V30 1 1 1 2
M  V30 2 2 2 3
M  V30 3 1 3 4
M  V30 4 1 4 5
M  V30 5 1 5 6
M  V30 6 1 6 7
M  V30 7 2 7 8
M  V30 8 1 8 9
M  V30 9 1 9 10
M  V30 10 1 10 11
M  V30 11 2 11 12
M  V30 12 1 11 13
M  V30 13 1 13 14
M  V30 14 1 14 15
M  V30 15 1 14 16
M  V30 16 1 8 17
M  V30 17 1 17 18
M  V30 18 1 18 19
M  V30 19 2 19 20
M  V30 20 1 20 21
M  V30 21 2 21 22
M  V30 22 1 22 23
M  V30 23 2 23 24
M  V30 24 1 24 25
M  V30 25 1 25 26
M  V30 26 2 26 27
M  V30 27 2 5 28
M  V30 28 1 28 2
M  V30 29 2 18 6
M  V30 30 1 27 19
M  V30 31 1 26 22
M  V30 32 1 1 29
M  V30 33 1 1 30
M  V30 34 1 1 31
M  V30 35 1 3 32
M  V30 36 1 9 33
M  V30 37 1 9 34
M  V30 38 1 10 35
M  V30 39 1 14 36
M  V30 40 1 15 37
M  V30 41 1 15 38
M  V30 42 1 15 39
M  V30 43 1 16 40
M  V30 44 1 16 41
M  V30 45 1 16 42
M  V30 46 1 17 43
M  V30 47 1 20 44
M  V30 48 1 21 45
M  V30 49 1 24 46
M  V30 50 1 27 47
M  V30 END BOND
M  V30 END CTAB
M  END
>  <Dataset>  (411) 
ChEMBL_Kinases

>  <Ligand_Instance>  (411) 
nan

>  <PDB_ID>  (411) 
nan

>  <Standardized_SMILES>  (411) 
Cc1csc(-c2nc(CNC(=O)OC(C)C)[nH]c2-c2ccc3ncsc3c2)n1

>  <Name>  (411) 
nan

>  <Pocket>  (411) 
nan

>  <ATP_Site>  (411) 
nan

>  <Peripheral>  (411) 
nan

>  <Num_H_Atoms_ProtBoundConf>  (411) 
nan

>  <Num_Resolved_Atoms>  (411) 
nan

>  <Num_Not_Resolved_Atoms>  (411) 
nan

$$$$
CHEMBL220810
     RDKit          3D

  0  0  0  0  0  0  0  0  0  0999 V3000
M  V30 BEGIN CTAB
M  V30 COUNTS 51 52 0 0 0
M  V30 BEGIN ATOM
M  V30 1 C 3.068958 -5.793547 -0.766013 0
M  V30 2 S 4.461605 -4.853558 -1.330938 0
M  V30 3 O 5.633335 -5.237016 -0.456497 0
M  V30 4 O 4.735987 -5.218921 -2.759611 0
M  V30 5 C 4.099634 -3.145931 -1.137169 0
M  V30 6 C 4.547200 -2.364790 -0.071093 0
M  V30 7 C 4.192161 -1.042896 -0.019811 0
M  V30 8 C 3.412154 -0.406368 -0.951445 0
M  V30 9 C 2.961282 0.997816 -1.035806 0
M  V30 10 N 1.721686 1.146013 -0.284689 0
M  V30 11 C 1.667886 1.299704 1.109376 0
M  V30 12 O 2.752762 1.316590 1.744224 0
M  V30 13 C 0.514251 1.450957 1.978071 0
M  V30 14 C 0.566091 1.678117 3.324076 0
M  V30 15 C -0.514073 1.839949 4.126754 0
M  V30 16 N -0.281381 2.075245 5.528198 0
M  V30 17 C -1.774267 1.764728 3.512027 0
M  V30 18 C -2.869204 1.947448 4.419714 0
M  V30 19 N -3.765514 2.085000 5.141421 0
M  V30 20 C -1.827034 1.528813 2.120362 0
M  V30 21 N -3.189670 1.501036 1.814156 0
M  V30 22 C -4.556121 1.473179 1.507078 0
M  V30 23 C -5.008761 0.089639 1.060309 0
M  V30 24 N -4.314104 -0.355498 -0.111411 0
M  V30 25 C -4.829405 -1.652155 -0.415306 0
M  V30 26 N -4.499932 -2.549322 -1.466069 0
M  V30 27 O -5.718003 -2.193997 0.282636 0
M  V30 28 N -0.698048 1.383205 1.416019 0
M  V30 29 C 2.988918 -1.235964 -2.000640 0
M  V30 30 C 3.316170 -2.578352 -2.106908 0
M  V30 31 H 2.307059 -5.098904 -0.388598 0
M  V30 32 H 2.605876 -6.329455 -1.626188 0
M  V30 33 H 3.335569 -6.509001 0.042114 0
M  V30 34 H 5.158325 -2.832420 0.673701 0
M  V30 35 H 4.536748 -0.444345 0.783532 0
M  V30 36 H 3.747806 1.684453 -0.640454 0
M  V30 37 H 2.820607 1.263718 -2.089628 0
M  V30 38 H 0.767039 1.146955 -0.753035 0
M  V30 39 H 1.540201 1.728055 3.746090 0
M  V30 40 H -0.068165 1.380354 6.282598 0
M  V30 41 H -0.285922 2.988655 6.031498 0
M  V30 42 H -3.022683 1.314352 0.764947 0
M  V30 43 H -5.178316 1.754451 2.437712 0
M  V30 44 H -4.925998 2.225931 0.760790 0
M  V30 45 H -6.108479 0.116780 0.849259 0
M  V30 46 H -4.805652 -0.646942 1.894179 0
M  V30 47 H -3.586134 -0.092014 -0.811283 0
M  V30 48 H -5.174919 -2.865455 -2.213040 0
M  V30 49 H -3.522356 -2.866481 -1.435938 0
M  V30 50 H 2.358063 -0.837861 -2.811314 0
M  V30 51 H 2.954469 -3.156656 -2.943297 0
M  V30 END ATOM
M  V30 BEGIN BOND
M  V30 1 1 1 2
M  V30 2 2 2 3
M  V30 3 2 2 4
M  V30 4 1 2 5
M  V30 5 2 5 6
M  V30 6 1 6 7
M  V30 7 2 7 8
M  V30 8 1 8 9
M  V30 9 1 9 10
M  V30 10 1 10 11
M  V30 11 2 11 12
M  V30 12 1 11 13
M  V30 13 2 13 14
M  V30 14 1 14 15
M  V30 15 1 15 16
M  V30 16 2 15 17
M  V30 17 1 17 18
M  V30 18 3 18 19
M  V30 19 1 17 20
M  V30 20 1 20 21
M  V30 21 1 21 22
M  V30 22 1 22 23
M  V30 23 1 23 24
M  V30 24 1 24 25
M  V30 25 1 25 26
M  V30 26 2 25 27
M  V30 27 2 20 28
M  V30 28 1 8 29
M  V30 29 2 29 30
M  V30 30 1 30 5
M  V30 31 1 28 13
M  V30 32 1 1 31
M  V30 33 1 1 32
M  V30 34 1 1 33
M  V30 35 1 6 34
M  V30 36 1 7 35
M  V30 37 1 9 36
M  V30 38 1 9 37
M  V30 39 1 10 38
M  V30 40 1 14 39
M  V30 41 1 16 40
M  V30 42 1 16 41
M  V30 43 1 21 42
M  V30 44 1 22 43
M  V30 45 1 22 44
M  V30 46 1 23 45
M  V30 47 1 23 46
M  V30 48 1 24 47
M  V30 49 1 26 48
M  V30 50 1 26 49
M  V30 51 1 29 50
M  V30 52 1 30 51
M  V30 END BOND
M  V30 END CTAB
M  END
>  <Dataset>  (412) 
ChEMBL_Kinases

>  <Ligand_Instance>  (412) 
nan

>  <PDB_ID>  (412) 
nan

>  <Standardized_SMILES>  (412) 
CS(=O)(=O)c1ccc(CNC(=O)c2cc(N)c(C#N)c(NCCNC(N)=O)n2)cc1

>  <Name>  (412) 
nan

>  <Pocket>  (412) 
nan

>  <ATP_Site>  (412) 
nan

>  <Peripheral>  (412) 
nan

>  <Num_H_Atoms_ProtBoundConf>  (412) 
nan

>  <Num_Resolved_Atoms>  (412) 
nan

>  <Num_Not_Resolved_Atoms>  (412) 
nan

$$$$
CHEMBL2208237
     RDKit          3D

  0  0  0  0  0  0  0  0  0  0999 V3000
M  V30 BEGIN CTAB
M  V30 COUNTS 50 53 0 0 0
M  V30 BEGIN ATOM
M  V30 1 C -0.231413 -3.097728 5.101602 0
M  V30 2 C -0.278729 -2.973715 3.595452 0
M  V30 3 C -1.283321 -3.877618 3.057242 0
M  V30 4 S -1.189389 -3.580212 1.229135 0
M  V30 5 C 0.146741 -2.323116 1.462708 0
M  V30 6 C 1.074083 -1.355716 0.852141 0
M  V30 7 N 1.847189 -0.549215 0.343117 0
M  V30 8 C 2.032652 -0.203673 -0.852107 0
M  V30 9 C 3.031286 0.799946 -1.377504 0
M  V30 10 N 2.407894 2.104273 -1.271390 0
M  V30 11 C 2.171802 2.627222 0.044856 0
M  V30 12 O 2.557915 1.870383 0.943495 0
M  V30 13 O 1.609562 3.787604 0.418363 0
M  V30 14 C 1.345013 4.377820 1.625488 0
M  V30 15 C 0.433628 3.739335 2.591477 0
M  V30 16 C 0.771707 2.393820 3.113010 0
M  V30 17 C -1.017698 3.715426 2.149983 0
M  V30 18 N 1.160421 -0.932755 -1.559353 0
M  V30 19 C 0.598164 -1.615609 -0.515659 0
M  V30 20 C -0.430010 -2.482255 -1.249390 0
M  V30 21 C -1.737918 -2.136476 -1.410736 0
M  V30 22 C -2.662902 -2.949359 -2.042076 0
M  V30 23 C -2.208007 -4.169756 -2.523814 0
M  V30 24 N -2.883291 -5.112136 -3.149461 0
M  V30 25 C -2.609252 -6.118322 -3.569325 0
M  V30 26 S -0.742042 -6.144613 -3.114819 0
M  V30 27 C -0.880883 -4.508657 -2.355665 0
M  V30 28 C 0.062427 -3.700980 -1.722303 0
M  V30 29 N 0.288332 -2.318917 2.622704 0
M  V30 30 H 0.293935 -4.020824 5.414469 0
M  V30 31 H -1.251925 -3.137368 5.522901 0
M  V30 32 H 0.244573 -2.181080 5.513148 0
M  V30 33 H -2.105718 -4.716434 3.434737 0
M  V30 34 H 3.946406 0.740305 -0.741706 0
M  V30 35 H 3.336338 0.556628 -2.398375 0
M  V30 36 H 2.092862 2.747273 -2.059825 0
M  V30 37 H 2.283124 4.656463 2.196247 0
M  V30 38 H 0.900466 5.396394 1.394538 0
M  V30 39 H 0.422098 4.420100 3.509276 0
M  V30 40 H 0.413471 1.537099 2.518566 0
M  V30 41 H 1.822793 2.288263 3.488454 0
M  V30 42 H 0.170481 2.287089 4.082057 0
M  V30 43 H -1.526073 3.071607 2.916410 0
M  V30 44 H -1.518302 4.693743 2.248173 0
M  V30 45 H -1.141746 3.213125 1.182167 0
M  V30 46 H 1.159998 -0.786880 -2.590114 0
M  V30 47 H -2.036512 -1.163815 -1.011988 0
M  V30 48 H -3.656767 -2.563445 -2.104423 0
M  V30 49 H -3.374840 -6.852829 -4.119112 0
M  V30 50 H 1.042902 -4.091854 -1.663508 0
M  V30 END ATOM
M  V30 BEGIN BOND
M  V30 1 1 1 2
M  V30 2 2 2 3
M  V30 3 1 3 4
M  V30 4 1 4 5
M  V30 5 1 5 6
M  V30 6 1 6 7
M  V30 7 2 7 8
M  V30 8 1 8 9
M  V30 9 1 9 10
M  V30 10 1 10 11
M  V30 11 2 11 12
M  V30 12 1 11 13
M  V30 13 1 13 14
M  V30 14 1 14 15
M  V30 15 1 15 16
M  V30 16 1 15 17
M  V30 17 1 8 18
M  V30 18 1 18 19
M  V30 19 1 19 20
M  V30 20 2 20 21
M  V30 21 1 21 22
M  V30 22 2 22 23
M  V30 23 1 23 24
M  V30 24 2 24 25
M  V30 25 1 25 26
M  V30 26 1 26 27
M  V30 27 2 27 28
M  V30 28 2 5 29
M  V30 29 1 29 2
M  V30 30 2 19 6
M  V30 31 1 28 20
M  V30 32 1 27 23
M  V30 33 1 1 30
M  V30 34 1 1 31
M  V30 35 1 1 32
M  V30 36 1 3 33
M  V30 37 1 9 34
M  V30 38 1 9 35
M  V30 39 1 10 36
M  V30 40 1 14 37
M  V30 41 1 14 38
M  V30 42 1 15 39
M  V30 43 1 16 40
M  V30 44 1 16 41
M  V30 45 1 16 42
M  V30 46 1 17 43
M  V30 47 1 17 44
M  V30 48 1 17 45
M  V30 49 1 18 46
M  V30 50 1 21 47
M  V30 51 1 22 48
M  V30 52 1 25 49
M  V30 53 1 28 50
M  V30 END BOND
M  V30 END CTAB
M  END
>  <Dataset>  (413) 
ChEMBL_Kinases

>  <Ligand_Instance>  (413) 
nan

>  <PDB_ID>  (413) 
nan

>  <Standardized_SMILES>  (413) 
Cc1csc(-c2nc(CNC(=O)OCC(C)C)[nH]c2-c2ccc3ncsc3c2)n1

>  <Name>  (413) 
nan

>  <Pocket>  (413) 
nan

>  <ATP_Site>  (413) 
nan

>  <Peripheral>  (413) 
nan

>  <Num_H_Atoms_ProtBoundConf>  (413) 
nan

>  <Num_Resolved_Atoms>  (413) 
nan

>  <Num_Not_Resolved_Atoms>  (413) 
nan

$$$$
CHEMBL2208238
     RDKit          3D

  0  0  0  0  0  0  0  0  0  0999 V3000
M  V30 BEGIN CTAB
M  V30 COUNTS 53 56 0 0 0
M  V30 BEGIN ATOM
M  V30 1 C -3.305233 -3.849130 3.310216 0
M  V30 2 C -2.171272 -2.875653 3.523800 0
M  V30 3 C -1.964632 -2.057952 4.665055 0
M  V30 4 S -0.412196 -1.206961 4.129935 0
M  V30 5 C -0.326053 -2.049624 2.568699 0
M  V30 6 C 0.767701 -1.778911 1.628635 0
M  V30 7 N 1.795191 -0.935865 1.756516 0
M  V30 8 C 2.567770 -0.999273 0.658517 0
M  V30 9 C 3.816834 -0.297609 0.261417 0
M  V30 10 N 3.419530 0.913040 -0.448469 0
M  V30 11 C 2.625740 1.927782 0.177507 0
M  V30 12 O 2.334713 1.652566 1.350718 0
M  V30 13 O 2.290518 3.027995 -0.537388 0
M  V30 14 C 1.544199 4.126507 -0.192799 0
M  V30 15 C 0.101794 3.969892 0.113548 0
M  V30 16 C -0.242888 3.088982 1.253688 0
M  V30 17 C -0.543066 5.330720 0.386752 0
M  V30 18 C -0.649238 3.443789 -1.123559 0
M  V30 19 N 1.993573 -1.913626 -0.172120 0
M  V30 20 C 0.865710 -2.416963 0.410183 0
M  V30 21 C 0.001258 -3.416187 -0.197182 0
M  V30 22 C -0.694026 -3.318931 -1.387262 0
M  V30 23 C -1.489207 -4.283738 -1.909278 0
M  V30 24 C -1.668030 -5.488852 -1.256292 0
M  V30 25 N -2.383196 -6.553074 -1.572571 0
M  V30 26 C -2.516439 -7.546388 -1.011377 0
M  V30 27 S -1.409765 -7.252442 0.532972 0
M  V30 28 C -0.978450 -5.592810 -0.070110 0
M  V30 29 C -0.158875 -4.607328 0.474944 0
M  V30 30 N -1.349418 -2.873273 2.469351 0
M  V30 31 H -2.875059 -4.860337 3.288532 0
M  V30 32 H -3.848252 -3.677019 2.376345 0
M  V30 33 H -4.054472 -3.734684 4.125723 0
M  V30 34 H -2.719242 -2.145183 5.487175 0
M  V30 35 H 4.347817 -0.031474 1.212114 0
M  V30 36 H 4.440114 -0.908330 -0.398838 0
M  V30 37 H 3.725720 1.050101 -1.458996 0
M  V30 38 H 2.012356 4.578082 0.753613 0
M  V30 39 H 1.663346 4.879251 -1.017629 0
M  V30 40 H -1.327885 3.336137 1.521275 0
M  V30 41 H 0.377090 3.285377 2.151233 0
M  V30 42 H -0.281889 2.034879 0.981549 0
M  V30 43 H -0.821637 5.780373 -0.576447 0
M  V30 44 H 0.169383 5.974133 0.961968 0
M  V30 45 H -1.442030 5.200104 0.992852 0
M  V30 46 H -0.620913 4.182788 -1.939057 0
M  V30 47 H -1.702413 3.292247 -0.819129 0
M  V30 48 H -0.171602 2.487373 -1.378675 0
M  V30 49 H 2.327041 -2.216283 -1.117334 0
M  V30 50 H -0.557575 -2.360529 -1.916187 0
M  V30 51 H -1.971962 -4.049403 -2.865466 0
M  V30 52 H -3.221003 -8.382124 -1.489137 0
M  V30 53 H 0.276583 -4.896146 1.398070 0
M  V30 END ATOM
M  V30 BEGIN BOND
M  V30 1 1 1 2
M  V30 2 2 2 3
M  V30 3 1 3 4
M  V30 4 1 4 5
M  V30 5 1 5 6
M  V30 6 1 6 7
M  V30 7 2 7 8
M  V30 8 1 8 9
M  V30 9 1 9 10
M  V30 10 1 10 11
M  V30 11 2 11 12
M  V30 12 1 11 13
M  V30 13 1 13 14
M  V30 14 1 14 15
M  V30 15 1 15 16
M  V30 16 1 15 17
M  V30 17 1 15 18
M  V30 18 1 8 19
M  V30 19 1 19 20
M  V30 20 1 20 21
M  V30 21 2 21 22
M  V30 22 1 22 23
M  V30 23 2 23 24
M  V30 24 1 24 25
M  V30 25 2 25 26
M  V30 26 1 26 27
M  V30 27 1 27 28
M  V30 28 2 28 29
M  V30 29 2 5 30
M  V30 30 1 30 2
M  V30 31 2 20 6
M  V30 32 1 29 21
M  V30 33 1 28 24
M  V30 34 1 1 31
M  V30 35 1 1 32
M  V30 36 1 1 33
M  V30 37 1 3 34
M  V30 38 1 9 35
M  V30 39 1 9 36
M  V30 40 1 10 37
M  V30 41 1 14 38
M  V30 42 1 14 39
M  V30 43 1 16 40
M  V30 44 1 16 41
M  V30 45 1 16 42
M  V30 46 1 17 43
M  V30 47 1 17 44
M  V30 48 1 17 45
M  V30 49 1 18 46
M  V30 50 1 18 47
M  V30 51 1 18 48
M  V30 52 1 19 49
M  V30 53 1 22 50
M  V30 54 1 23 51
M  V30 55 1 26 52
M  V30 56 1 29 53
M  V30 END BOND
M  V30 END CTAB
M  END
>  <Dataset>  (414) 
ChEMBL_Kinases

>  <Ligand_Instance>  (414) 
nan

>  <PDB_ID>  (414) 
nan

>  <Standardized_SMILES>  (414) 
Cc1csc(-c2nc(CNC(=O)OCC(C)(C)C)[nH]c2-c2ccc3ncsc3c2)n1

>  <Name>  (414) 
nan

>  <Pocket>  (414) 
nan

>  <ATP_Site>  (414) 
nan

>  <Peripheral>  (414) 
nan

>  <Num_H_Atoms_ProtBoundConf>  (414) 
nan

>  <Num_Resolved_Atoms>  (414) 
nan

>  <Num_Not_Resolved_Atoms>  (414) 
nan

$$$$
CHEMBL2208017
     RDKit          3D

  0  0  0  0  0  0  0  0  0  0999 V3000
M  V30 BEGIN CTAB
M  V30 COUNTS 42 46 0 0 0
M  V30 BEGIN ATOM
M  V30 1 C 0.421706 -4.245881 4.081672 0
M  V30 2 C 1.141341 -2.921641 3.966339 0
M  V30 3 C 2.272054 -2.414035 4.772748 0
M  V30 4 S 2.517798 -0.810758 4.010975 0
M  V30 5 C 1.115365 -1.047676 2.764304 0
M  V30 6 C 0.901616 0.067502 1.851602 0
M  V30 7 N 1.505621 1.250888 1.709948 0
M  V30 8 C 0.929938 1.948774 0.698720 0
M  V30 9 C 1.306138 3.305638 0.221072 0
M  V30 10 N 2.301560 3.248681 -0.814963 0
M  V30 11 C 2.112273 3.164166 -2.252839 0
M  V30 12 C 3.323118 2.322275 -2.649987 0
M  V30 13 O 4.344412 2.944461 -1.881675 0
M  V30 14 C 3.727784 3.263001 -0.658019 0
M  V30 15 O 4.276441 3.532357 0.451666 0
M  V30 16 N -0.060122 1.139133 0.221416 0
M  V30 17 C -0.101341 -0.025957 0.911835 0
M  V30 18 C -1.038870 -1.111627 0.659922 0
M  V30 19 C -2.413741 -1.041628 0.751954 0
M  V30 20 C -3.270934 -2.077975 0.509494 0
M  V30 21 C -2.783216 -3.315078 0.140270 0
M  V30 22 N -3.525302 -4.371444 -0.113866 0
M  V30 23 C -3.044335 -5.463991 -0.442635 0
M  V30 24 S -1.153733 -5.102951 -0.442212 0
M  V30 25 C -1.435228 -3.420802 0.039733 0
M  V30 26 C -0.553761 -2.347670 0.291125 0
M  V30 27 N 0.638897 -2.180390 3.001190 0
M  V30 28 H 0.884247 -4.874736 4.862576 0
M  V30 29 H -0.653424 -4.073800 4.363088 0
M  V30 30 H 0.441670 -4.817611 3.141741 0
M  V30 31 H 2.580292 -3.209148 5.578549 0
M  V30 32 H 1.587089 3.942060 1.087897 0
M  V30 33 H 0.406688 3.806956 -0.217776 0
M  V30 34 H 1.152902 2.689390 -2.533182 0
M  V30 35 H 2.270704 4.165451 -2.706580 0
M  V30 36 H 3.186753 1.304168 -2.225285 0
M  V30 37 H 3.500908 2.351735 -3.732457 0
M  V30 38 H -0.655575 1.467493 -0.577450 0
M  V30 39 H -2.801029 -0.052489 1.046986 0
M  V30 40 H -4.339981 -1.841989 0.631442 0
M  V30 41 H -3.644234 -6.378309 -0.664818 0
M  V30 42 H 0.492402 -2.559089 0.177192 0
M  V30 END ATOM
M  V30 BEGIN BOND
M  V30 1 1 1 2
M  V30 2 2 2 3
M  V30 3 1 3 4
M  V30 4 1 4 5
M  V30 5 1 5 6
M  V30 6 1 6 7
M  V30 7 2 7 8
M  V30 8 1 8 9
M  V30 9 1 9 10
M  V30 10 1 10 11
M  V30 11 1 11 12
M  V30 12 1 12 13
M  V30 13 1 13 14
M  V30 14 2 14 15
M  V30 15 1 8 16
M  V30 16 1 16 17
M  V30 17 1 17 18
M  V30 18 2 18 19
M  V30 19 1 19 20
M  V30 20 2 20 21
M  V30 21 1 21 22
M  V30 22 2 22 23
M  V30 23 1 23 24
M  V30 24 1 24 25
M  V30 25 2 25 26
M  V30 26 2 5 27
M  V30 27 1 27 2
M  V30 28 2 17 6
M  V30 29 1 26 18
M  V30 30 1 14 10
M  V30 31 1 25 21
M  V30 32 1 1 28
M  V30 33 1 1 29
M  V30 34 1 1 30
M  V30 35 1 3 31
M  V30 36 1 9 32
M  V30 37 1 9 33
M  V30 38 1 11 34
M  V30 39 1 11 35
M  V30 40 1 12 36
M  V30 41 1 12 37
M  V30 42 1 16 38
M  V30 43 1 19 39
M  V30 44 1 20 40
M  V30 45 1 23 41
M  V30 46 1 26 42
M  V30 END BOND
M  V30 END CTAB
M  END
>  <Dataset>  (415) 
ChEMBL_Kinases

>  <Ligand_Instance>  (415) 
nan

>  <PDB_ID>  (415) 
nan

>  <Standardized_SMILES>  (415) 
Cc1csc(-c2nc(CN3CCOC3=O)[nH]c2-c2ccc3ncsc3c2)n1

>  <Name>  (415) 
nan

>  <Pocket>  (415) 
nan

>  <ATP_Site>  (415) 
nan

>  <Peripheral>  (415) 
nan

>  <Num_H_Atoms_ProtBoundConf>  (415) 
nan

>  <Num_Resolved_Atoms>  (415) 
nan

>  <Num_Not_Resolved_Atoms>  (415) 
nan

$$$$
CHEMBL226850
     RDKit          3D

  0  0  0  0  0  0  0  0  0  0999 V3000
M  V30 BEGIN CTAB
M  V30 COUNTS 48 51 0 0 0
M  V30 BEGIN ATOM
M  V30 1 N -3.984692 0.933695 1.502224 0
M  V30 2 C -3.274966 -0.349820 1.354120 0 CFG=2
M  V30 3 C -1.798521 -0.153646 1.314466 0
M  V30 4 O -1.042442 -1.340627 1.187354 0
M  V30 5 C 0.342580 -1.231318 1.144264 0
M  V30 6 C 1.009365 -2.432842 1.019287 0
M  V30 7 N 2.371943 -2.374559 0.972859 0
M  V30 8 C 3.017502 -1.177087 1.048105 0
M  V30 9 C 2.361971 0.029877 1.173113 0
M  V30 10 C 3.155387 1.253355 1.245036 0
M  V30 11 C 2.584470 2.501860 1.370379 0
M  V30 12 C 3.392678 3.643029 1.434861 0
M  V30 13 C 3.158330 5.000140 1.556567 0
M  V30 14 N 4.379334 5.566701 1.557705 0
M  V30 15 N 5.326585 4.651431 1.445918 0
M  V30 16 C 4.754684 3.433503 1.366161 0
M  V30 17 C 5.325343 2.184250 1.240775 0
M  V30 18 N 4.491480 1.109993 1.182818 0
M  V30 19 C 0.985140 -0.022078 1.220616 0
M  V30 20 C -3.842930 -1.095057 0.179537 0
M  V30 21 C -3.202510 -2.403500 -0.065542 0
M  V30 22 C -3.790392 -3.446505 0.647469 0
M  V30 23 C -3.359213 -4.752315 0.562263 0
M  V30 24 C -2.303614 -5.058939 -0.257298 0
M  V30 25 C -1.713708 -4.045577 -0.965830 0
M  V30 26 C -0.572460 -4.325841 -1.863070 0
M  V30 27 F -0.999294 -4.946784 -3.044813 0
M  V30 28 F 0.278355 -5.196953 -1.185819 0
M  V30 29 F 0.143146 -3.190643 -2.116236 0
M  V30 30 C -2.144804 -2.746994 -0.879222 0
M  V30 31 H -3.638195 1.446644 2.341505 0
M  V30 32 H -4.991191 0.768624 1.675966 0
M  V30 33 H -3.508936 -0.940548 2.272376 0
M  V30 34 H -1.594154 0.558490 0.482304 0
M  V30 35 H -1.416509 0.366349 2.223751 0
M  V30 36 H 0.553727 -3.413563 0.954906 0
M  V30 37 H 4.098780 -1.269132 0.999791 0
M  V30 38 H 1.511332 2.617101 1.420322 0
M  V30 39 H 2.162778 5.424669 1.629392 0
M  V30 40 H 6.373582 4.818460 1.420295 0
M  V30 41 H 6.400315 2.068315 1.190624 0
M  V30 42 H 0.446517 0.886547 1.316448 0
M  V30 43 H -3.623201 -0.480348 -0.736576 0
M  V30 44 H -4.953818 -1.212546 0.269633 0
M  V30 45 H -4.640963 -3.315104 1.332355 0
M  V30 46 H -3.819272 -5.560573 1.118500 0
M  V30 47 H -1.930934 -6.069010 -0.355960 0
M  V30 48 H -1.734585 -1.878339 -1.408973 0
M  V30 END ATOM
M  V30 BEGIN BOND
M  V30 1 1 1 2
M  V30 2 1 2 3
M  V30 3 1 3 4
M  V30 4 1 4 5
M  V30 5 2 5 6
M  V30 6 1 6 7
M  V30 7 2 7 8
M  V30 8 1 8 9
M  V30 9 1 9 10
M  V30 10 2 10 11
M  V30 11 1 11 12
M  V30 12 1 12 13
M  V30 13 2 13 14
M  V30 14 1 14 15
M  V30 15 1 15 16
M  V30 16 1 16 17
M  V30 17 2 17 18
M  V30 18 2 9 19
M  V30 19 1 2 20
M  V30 20 1 20 21
M  V30 21 2 21 22
M  V30 22 1 22 23
M  V30 23 2 23 24
M  V30 24 1 24 25
M  V30 25 1 25 26
M  V30 26 1 26 27
M  V30 27 1 26 28
M  V30 28 1 26 29
M  V30 29 2 25 30
M  V30 30 1 19 5
M  V30 31 1 30 21
M  V30 32 1 18 10
M  V30 33 2 16 12
M  V30 34 1 1 31
M  V30 35 1 1 32
M  V30 36 1 2 33 CFG=1
M  V30 37 1 3 34
M  V30 38 1 3 35
M  V30 39 1 6 36
M  V30 40 1 8 37
M  V30 41 1 11 38
M  V30 42 1 13 39
M  V30 43 1 15 40
M  V30 44 1 17 41
M  V30 45 1 19 42
M  V30 46 1 20 43
M  V30 47 1 20 44
M  V30 48 1 22 45
M  V30 49 1 23 46
M  V30 50 1 24 47
M  V30 51 1 30 48
M  V30 END BOND
M  V30 END CTAB
M  END
>  <Dataset>  (416) 
ChEMBL_Kinases

>  <Ligand_Instance>  (416) 
nan

>  <PDB_ID>  (416) 
nan

>  <Standardized_SMILES>  (416) 
N[C@H](COc1cncc(-c2cc3cn[nH]c3cn2)c1)Cc1cccc(C(F)(F)F)c1

>  <Name>  (416) 
nan

>  <Pocket>  (416) 
nan

>  <ATP_Site>  (416) 
nan

>  <Peripheral>  (416) 
nan

>  <Num_H_Atoms_ProtBoundConf>  (416) 
nan

>  <Num_Resolved_Atoms>  (416) 
nan

>  <Num_Not_Resolved_Atoms>  (416) 
nan

$$$$
CHEMBL226849
     RDKit          3D

  0  0  0  0  0  0  0  0  0  0999 V3000
M  V30 BEGIN CTAB
M  V30 COUNTS 56 60 0 0 0
M  V30 BEGIN ATOM
M  V30 1 N 3.006986 -4.585692 2.012380 0
M  V30 2 C 1.999194 -3.983311 1.194601 0 CFG=2
M  V30 3 C 1.123540 -2.965996 1.873611 0
M  V30 4 O 1.598469 -1.899553 2.416496 0
M  V30 5 C 2.100833 -0.843363 2.996681 0
M  V30 6 C 2.737135 -0.033435 3.783775 0
M  V30 7 N 2.904628 1.290493 3.830995 0
M  V30 8 C 2.336738 2.102962 2.907191 0
M  V30 9 C 1.590754 1.473627 1.935125 0
M  V30 10 C 1.043750 2.199955 0.733242 0
M  V30 11 C 1.798402 3.211363 0.163731 0
M  V30 12 C 1.337030 3.815867 -1.007617 0
M  V30 13 C 0.152422 3.405742 -1.565676 0
M  V30 14 C -0.606161 2.429922 -1.017022 0
M  V30 15 C -0.173746 1.789680 0.159076 0
M  V30 16 C -1.783786 2.157668 -1.822309 0
M  V30 17 C -2.811491 1.393672 -1.432393 0
M  V30 18 C -3.000680 0.704916 -0.151473 0
M  V30 19 C -3.184610 -0.423164 0.609948 0
M  V30 20 C -3.289652 -0.061589 1.933968 0
M  V30 21 C -3.164597 1.324402 1.949969 0
M  V30 22 O -3.003512 1.705765 0.744517 0
M  V30 23 C -1.725272 3.033488 -2.965924 0
M  V30 24 O -2.628466 2.993449 -3.844610 0
M  V30 25 N -0.523330 3.794229 -2.785614 0
M  V30 26 C 1.468507 0.026405 1.974914 0
M  V30 27 C 1.108278 -5.050559 0.605133 0
M  V30 28 C 0.001141 -4.540459 -0.205393 0
M  V30 29 C -1.191384 -4.472290 0.471851 0
M  V30 30 C -2.359889 -4.008320 -0.127535 0
M  V30 31 C -2.383968 -3.587278 -1.438046 0
M  V30 32 C -1.159946 -3.655832 -2.131751 0
M  V30 33 C -0.022026 -4.114144 -1.527243 0
M  V30 34 H 3.837238 -3.972419 2.146098 0
M  V30 35 H 3.274364 -5.489491 1.561152 0
M  V30 36 H 2.480722 -3.494946 0.272836 0
M  V30 37 H 0.504598 -3.605980 2.616080 0
M  V30 38 H 0.347379 -2.710888 1.049841 0
M  V30 39 H 3.140111 -0.777727 4.476918 0
M  V30 40 H 2.430024 3.162271 2.885826 0
M  V30 41 H 2.730419 3.552542 0.583825 0
M  V30 42 H 1.882657 4.616275 -1.523011 0
M  V30 43 H -0.606880 1.013195 0.710518 0
M  V30 44 H -3.637363 1.236280 -2.145428 0
M  V30 45 H -3.193456 -1.254285 -0.067429 0
M  V30 46 H -3.437835 -0.893231 2.634503 0
M  V30 47 H -3.218038 1.804513 2.920078 0
M  V30 48 H -0.266739 4.511946 -3.494724 0
M  V30 49 H 0.839313 -0.212482 1.097254 0
M  V30 50 H 0.696600 -5.738519 1.396008 0
M  V30 51 H 1.706919 -5.761490 -0.049097 0
M  V30 52 H -1.375617 -4.758403 1.521808 0
M  V30 53 H -3.320202 -3.943460 0.391270 0
M  V30 54 H -3.269976 -3.220236 -1.920813 0
M  V30 55 H -1.145013 -3.326448 -3.184850 0
M  V30 56 H 0.928986 -4.171504 -2.030415 0
M  V30 END ATOM
M  V30 BEGIN BOND
M  V30 1 1 1 2
M  V30 2 1 2 3
M  V30 3 1 3 4
M  V30 4 1 4 5
M  V30 5 2 5 6
M  V30 6 1 6 7
M  V30 7 2 7 8
M  V30 8 1 8 9
M  V30 9 1 9 10
M  V30 10 2 10 11
M  V30 11 1 11 12
M  V30 12 2 12 13
M  V30 13 1 13 14
M  V30 14 2 14 15
M  V30 15 1 14 16
M  V30 16 2 16 17
M  V30 17 1 17 18
M  V30 18 2 18 19
M  V30 19 1 19 20
M  V30 20 2 20 21
M  V30 21 1 21 22
M  V30 22 1 16 23
M  V30 23 2 23 24
M  V30 24 1 23 25
M  V30 25 2 9 26
M  V30 26 1 2 27
M  V30 27 1 27 28
M  V30 28 2 28 29
M  V30 29 1 29 30
M  V30 30 2 30 31
M  V30 31 1 31 32
M  V30 32 2 32 33
M  V30 33 1 26 5
M  V30 34 1 33 28
M  V30 35 1 15 10
M  V30 36 1 22 18
M  V30 37 1 25 13
M  V30 38 1 1 34
M  V30 39 1 1 35
M  V30 40 1 2 36 CFG=3
M  V30 41 1 3 37
M  V30 42 1 3 38
M  V30 43 1 6 39
M  V30 44 1 8 40
M  V30 45 1 11 41
M  V30 46 1 12 42
M  V30 47 1 15 43
M  V30 48 1 17 44
M  V30 49 1 19 45
M  V30 50 1 20 46
M  V30 51 1 21 47
M  V30 52 1 25 48
M  V30 53 1 26 49
M  V30 54 1 27 50
M  V30 55 1 27 51
M  V30 56 1 29 52
M  V30 57 1 30 53
M  V30 58 1 31 54
M  V30 59 1 32 55
M  V30 60 1 33 56
M  V30 END BOND
M  V30 END CTAB
M  END
>  <Dataset>  (417) 
ChEMBL_Kinases

>  <Ligand_Instance>  (417) 
nan

>  <PDB_ID>  (417) 
nan

>  <Standardized_SMILES>  (417) 
N[C@H](COc1cncc(-c2ccc3c(c2)/C(=C\c2ccco2)C(=O)N3)c1)Cc1ccccc1

>  <Name>  (417) 
nan

>  <Pocket>  (417) 
nan

>  <ATP_Site>  (417) 
nan

>  <Peripheral>  (417) 
nan

>  <Num_H_Atoms_ProtBoundConf>  (417) 
nan

>  <Num_Resolved_Atoms>  (417) 
nan

>  <Num_Not_Resolved_Atoms>  (417) 
nan

$$$$
CHEMBL226848
     RDKit          3D

  0  0  0  0  0  0  0  0  0  0999 V3000
M  V30 BEGIN CTAB
M  V30 COUNTS 48 51 0 0 0
M  V30 BEGIN ATOM
M  V30 1 N -0.114187 -3.495860 4.053633 0
M  V30 2 C -0.789288 -3.890521 2.844162 0 CFG=2
M  V30 3 C 0.083030 -3.533973 1.660482 0
M  V30 4 O 0.342793 -2.144019 1.602068 0
M  V30 5 C 1.133312 -1.663556 0.565245 0
M  V30 6 C 1.725876 -2.400108 -0.463080 0
M  V30 7 N 2.464188 -1.760215 -1.387661 0
M  V30 8 C 2.661180 -0.428768 -1.368504 0
M  V30 9 C 2.112483 0.378156 -0.387696 0
M  V30 10 C 2.290892 1.826553 -0.314058 0
M  V30 11 C 3.456752 2.422406 -0.756293 0
M  V30 12 C 3.561784 3.802462 -0.657594 0
M  V30 13 C 2.555538 4.620395 -0.136787 0
M  V30 14 C 1.388753 4.026441 0.306023 0
M  V30 15 C 1.305666 2.648190 0.198039 0
M  V30 16 C 0.459615 5.064090 0.816213 0
M  V30 17 C 1.245884 6.315084 0.607450 0
M  V30 18 O 0.858193 7.470942 0.896676 0
M  V30 19 N 2.519114 6.035696 0.027121 0
M  V30 20 C 1.346252 -0.290973 0.570646 0
M  V30 21 C -2.121010 -3.192380 2.793513 0
M  V30 22 C -2.863662 -3.560277 1.567424 0
M  V30 23 C -2.773174 -2.870523 0.353854 0
M  V30 24 C -3.509658 -3.288616 -0.749570 0
M  V30 25 C -4.354448 -4.392715 -0.695418 0
M  V30 26 C -4.459354 -5.088497 0.492030 0
M  V30 27 C -3.723576 -4.662165 1.576091 0
M  V30 28 H 0.888733 -3.278754 3.855807 0
M  V30 29 H -0.583814 -2.681359 4.504199 0
M  V30 30 H -0.970379 -4.980269 2.867352 0
M  V30 31 H -0.351215 -3.918526 0.705808 0
M  V30 32 H 1.074183 -4.019617 1.792248 0
M  V30 33 H 1.528498 -3.460555 -0.419413 0
M  V30 34 H 3.267579 0.054473 -2.137711 0
M  V30 35 H 4.276535 1.843900 -1.171583 0
M  V30 36 H 4.479786 4.270297 -1.005881 0
M  V30 37 H 0.369855 2.206160 0.556736 0
M  V30 38 H 0.292487 4.914033 1.888145 0
M  V30 39 H -0.480093 5.074817 0.224423 0
M  V30 40 H 3.262682 6.727879 -0.222219 0
M  V30 41 H 0.918823 0.343927 1.336381 0
M  V30 42 H -2.713670 -3.555056 3.661997 0
M  V30 43 H -2.004315 -2.084503 2.833076 0
M  V30 44 H -2.111828 -2.015074 0.329860 0
M  V30 45 H -3.391959 -2.709589 -1.655640 0
M  V30 46 H -4.902431 -4.680267 -1.566188 0
M  V30 47 H -5.106937 -5.959878 0.586727 0
M  V30 48 H -3.801444 -5.206502 2.516592 0
M  V30 END ATOM
M  V30 BEGIN BOND
M  V30 1 1 1 2
M  V30 2 1 2 3
M  V30 3 1 3 4
M  V30 4 1 4 5
M  V30 5 2 5 6
M  V30 6 1 6 7
M  V30 7 2 7 8
M  V30 8 1 8 9
M  V30 9 1 9 10
M  V30 10 2 10 11
M  V30 11 1 11 12
M  V30 12 2 12 13
M  V30 13 1 13 14
M  V30 14 2 14 15
M  V30 15 1 14 16
M  V30 16 1 16 17
M  V30 17 2 17 18
M  V30 18 1 17 19
M  V30 19 2 9 20
M  V30 20 1 2 21
M  V30 21 1 21 22
M  V30 22 2 22 23
M  V30 23 1 23 24
M  V30 24 2 24 25
M  V30 25 1 25 26
M  V30 26 2 26 27
M  V30 27 1 20 5
M  V30 28 1 27 22
M  V30 29 1 15 10
M  V30 30 1 19 13
M  V30 31 1 1 28
M  V30 32 1 1 29
M  V30 33 1 2 30 CFG=1
M  V30 34 1 3 31
M  V30 35 1 3 32
M  V30 36 1 6 33
M  V30 37 1 8 34
M  V30 38 1 11 35
M  V30 39 1 12 36
M  V30 40 1 15 37
M  V30 41 1 16 38
M  V30 42 1 16 39
M  V30 43 1 19 40
M  V30 44 1 20 41
M  V30 45 1 21 42
M  V30 46 1 21 43
M  V30 47 1 23 44
M  V30 48 1 24 45
M  V30 49 1 25 46
M  V30 50 1 26 47
M  V30 51 1 27 48
M  V30 END BOND
M  V30 END CTAB
M  END
>  <Dataset>  (418) 
ChEMBL_Kinases

>  <Ligand_Instance>  (418) 
nan

>  <PDB_ID>  (418) 
nan

>  <Standardized_SMILES>  (418) 
N[C@H](COc1cncc(-c2ccc3c(c2)CC(=O)N3)c1)Cc1ccccc1

>  <Name>  (418) 
nan

>  <Pocket>  (418) 
nan

>  <ATP_Site>  (418) 
nan

>  <Peripheral>  (418) 
nan

>  <Num_H_Atoms_ProtBoundConf>  (418) 
nan

>  <Num_Resolved_Atoms>  (418) 
nan

>  <Num_Not_Resolved_Atoms>  (418) 
nan

$$$$
CHEMBL226798
     RDKit          3D

  0  0  0  0  0  0  0  0  0  0999 V3000
M  V30 BEGIN CTAB
M  V30 COUNTS 58 61 0 0 0
M  V30 BEGIN ATOM
M  V30 1 C 1.403322 -3.257611 3.471808 0
M  V30 2 C 2.871191 -3.057133 3.421316 0
M  V30 3 N 3.858882 -3.680319 4.068274 0
M  V30 4 N 5.041667 -3.171991 3.716575 0
M  V30 5 C 4.834122 -2.186709 2.813600 0
M  V30 6 C 5.657734 -1.325442 2.113388 0
M  V30 7 C 5.173765 -0.381566 1.223146 0
M  V30 8 C 3.807066 -0.296494 1.025640 0
M  V30 9 C 3.266648 0.684891 0.091379 0
M  V30 10 C 3.881804 1.132111 -1.055305 0
M  V30 11 N 3.280071 2.057542 -1.858721 0
M  V30 12 C 2.043846 2.532377 -1.494971 0
M  V30 13 C 1.357835 2.114974 -0.331550 0
M  V30 14 O 0.221395 2.825505 -0.380104 0
M  V30 15 C -0.922925 2.972378 0.337201 0
M  V30 16 C -1.883874 1.839397 0.475558 0 CFG=1
M  V30 17 N -2.314702 1.527789 -0.911979 0
M  V30 18 C -1.384157 0.568724 1.033924 0
M  V30 19 C -2.483196 -0.473955 1.134566 0
M  V30 20 C -3.288529 -0.632285 2.257353 0
M  V30 21 C -4.249883 -1.619911 2.215744 0
M  V30 22 C -4.404284 -2.429364 1.082395 0
M  V30 23 C -3.593175 -2.272966 -0.054625 0
M  V30 24 O -3.991443 -3.200848 -0.965868 0
M  V30 25 C -3.443415 -3.351159 -2.233103 0
M  V30 26 C -3.593853 -2.206380 -3.173908 0
M  V30 27 N -2.974669 -2.480769 -4.473344 0
M  V30 28 C -2.660108 -1.283464 0.040938 0
M  V30 29 C 2.028977 1.182282 0.425105 0
M  V30 30 C 2.951621 -1.156864 1.722312 0
M  V30 31 C 3.468191 -2.100047 2.614857 0
M  V30 32 H 1.047583 -3.591301 2.472366 0
M  V30 33 H 1.114262 -3.980379 4.267388 0
M  V30 34 H 0.950815 -2.240775 3.642087 0
M  V30 35 H 5.997276 -3.465990 4.065199 0
M  V30 36 H 6.735931 -1.431440 2.303756 0
M  V30 37 H 5.887008 0.261539 0.709120 0
M  V30 38 H 4.845518 0.675354 -1.217366 0
M  V30 39 H 1.815986 3.242412 -2.307899 0
M  V30 40 H -1.534897 3.829888 -0.117175 0
M  V30 41 H -0.688190 3.384239 1.386620 0
M  V30 42 H -2.783787 2.236968 1.002648 0
M  V30 43 H -2.418198 2.434036 -1.429728 0
M  V30 44 H -3.224249 1.035914 -0.923556 0
M  V30 45 H -0.980378 0.670713 2.037363 0
M  V30 46 H -0.579390 0.099111 0.395369 0
M  V30 47 H -3.072578 0.044960 3.053733 0
M  V30 48 H -4.825547 -1.672753 3.123158 0
M  V30 49 H -5.214578 -3.131864 1.272961 0
M  V30 50 H -2.365424 -3.656301 -2.207996 0
M  V30 51 H -3.971972 -4.232293 -2.709390 0
M  V30 52 H -4.692941 -2.062241 -3.433619 0
M  V30 53 H -3.255068 -1.240093 -2.798939 0
M  V30 54 H -3.524933 -3.147864 -5.049845 0
M  V30 55 H -2.724831 -1.621135 -4.994071 0
M  V30 56 H -2.055536 -1.214209 -0.846558 0
M  V30 57 H 1.432044 0.953758 1.273000 0
M  V30 58 H 1.870761 -1.090803 1.567036 0
M  V30 END ATOM
M  V30 BEGIN BOND
M  V30 1 1 1 2
M  V30 2 2 2 3
M  V30 3 1 3 4
M  V30 4 1 4 5
M  V30 5 2 5 6
M  V30 6 1 6 7
M  V30 7 2 7 8
M  V30 8 1 8 9
M  V30 9 2 9 10
M  V30 10 1 10 11
M  V30 11 2 11 12
M  V30 12 1 12 13
M  V30 13 1 13 14
M  V30 14 1 14 15
M  V30 15 1 15 16
M  V30 16 1 16 17
M  V30 17 1 16 18
M  V30 18 1 18 19
M  V30 19 2 19 20
M  V30 20 1 20 21
M  V30 21 2 21 22
M  V30 22 1 22 23
M  V30 23 1 23 24
M  V30 24 1 24 25
M  V30 25 1 25 26
M  V30 26 1 26 27
M  V30 27 2 23 28
M  V30 28 2 13 29
M  V30 29 1 8 30
M  V30 30 2 30 31
M  V30 31 1 31 2
M  V30 32 1 31 5
M  V30 33 1 29 9
M  V30 34 1 28 19
M  V30 35 1 1 32
M  V30 36 1 1 33
M  V30 37 1 1 34
M  V30 38 1 4 35
M  V30 39 1 6 36
M  V30 40 1 7 37
M  V30 41 1 10 38
M  V30 42 1 12 39
M  V30 43 1 15 40
M  V30 44 1 15 41
M  V30 45 1 16 42 CFG=1
M  V30 46 1 17 43
M  V30 47 1 17 44
M  V30 48 1 18 45
M  V30 49 1 18 46
M  V30 50 1 20 47
M  V30 51 1 21 48
M  V30 52 1 22 49
M  V30 53 1 25 50
M  V30 54 1 25 51
M  V30 55 1 26 52
M  V30 56 1 26 53
M  V30 57 1 27 54
M  V30 58 1 27 55
M  V30 59 1 28 56
M  V30 60 1 29 57
M  V30 61 1 30 58
M  V30 END BOND
M  V30 END CTAB
M  END
>  <Dataset>  (419) 
ChEMBL_Kinases

>  <Ligand_Instance>  (419) 
nan

>  <PDB_ID>  (419) 
nan

>  <Standardized_SMILES>  (419) 
Cc1n[nH]c2ccc(-c3cncc(OC[C@@H](N)Cc4cccc(OCCN)c4)c3)cc12

>  <Name>  (419) 
nan

>  <Pocket>  (419) 
nan

>  <ATP_Site>  (419) 
nan

>  <Peripheral>  (419) 
nan

>  <Num_H_Atoms_ProtBoundConf>  (419) 
nan

>  <Num_Resolved_Atoms>  (419) 
nan

>  <Num_Not_Resolved_Atoms>  (419) 
nan

$$$$
CHEMBL226797
     RDKit          3D

  0  0  0  0  0  0  0  0  0  0999 V3000
M  V30 BEGIN CTAB
M  V30 COUNTS 71 75 0 0 0
M  V30 BEGIN ATOM
M  V30 1 C 1.387979 -0.545106 5.044825 0
M  V30 2 C 2.552650 -0.908633 4.219509 0
M  V30 3 N 3.502899 -1.820864 4.505367 0
M  V30 4 N 4.355366 -1.838122 3.511888 0
M  V30 5 C 4.026027 -0.965295 2.544348 0
M  V30 6 C 4.555180 -0.590854 1.326663 0
M  V30 7 C 3.916128 0.388938 0.562127 0
M  V30 8 C 2.754972 0.989346 1.014752 0
M  V30 9 C 2.250545 1.969027 0.085567 0
M  V30 10 C 3.089151 2.701717 -0.708172 0
M  V30 11 N 2.539534 3.610565 -1.568096 0
M  V30 12 C 1.204312 3.755869 -1.607685 0
M  V30 13 C 0.299199 3.028045 -0.813513 0
M  V30 14 O -0.957345 3.430116 -1.114162 0
M  V30 15 C -2.197641 3.066521 -0.660152 0
M  V30 16 C -2.635702 1.659250 -0.837546 0 CFG=1
M  V30 17 N -3.993060 1.576242 -0.269031 0
M  V30 18 C -2.626007 1.159298 -2.240499 0
M  V30 19 C -3.090151 -0.249558 -2.262950 0
M  V30 20 C -4.407272 -0.611646 -2.417974 0
M  V30 21 C -4.806866 -1.939582 -2.434180 0
M  V30 22 C -3.824728 -2.912037 -2.287016 0
M  V30 23 C -2.462300 -2.601342 -2.124924 0
M  V30 24 O -1.814458 -3.759146 -2.015683 0
M  V30 25 C -0.582318 -4.267193 -1.840179 0
M  V30 26 C 0.190089 -3.983184 -0.596455 0
M  V30 27 C -0.539982 -4.461809 0.641037 0
M  V30 28 C -1.623361 -3.538638 1.070668 0
M  V30 29 N -1.365371 -2.146899 0.931905 0
M  V30 30 C -1.735285 -1.491845 2.178189 0
M  V30 31 C -0.044494 -1.760484 0.585906 0
M  V30 32 C 0.688521 -2.610369 -0.385502 0
M  V30 33 C -2.184120 -1.266984 -2.124354 0
M  V30 34 C 0.879815 2.117873 0.045579 0
M  V30 35 C 2.239250 0.605350 2.232018 0
M  V30 36 C 2.868038 -0.363434 2.991525 0
M  V30 37 H 0.990458 -1.476063 5.537841 0
M  V30 38 H 0.545079 -0.142315 4.454163 0
M  V30 39 H 1.666400 0.126226 5.870563 0
M  V30 40 H 5.189193 -2.450979 3.468821 0
M  V30 41 H 5.467264 -1.113238 1.051427 0
M  V30 42 H 4.477320 0.550126 -0.362634 0
M  V30 43 H 4.160877 2.544632 -0.635109 0
M  V30 44 H 0.988014 4.527603 -2.357226 0
M  V30 45 H -2.941858 3.811999 -1.031012 0
M  V30 46 H -2.200302 3.245167 0.459606 0
M  V30 47 H -1.985535 0.993722 -0.247879 0
M  V30 48 H -4.189156 0.574165 -0.101593 0
M  V30 49 H -3.950733 2.048312 0.665298 0
M  V30 50 H -1.575885 1.161670 -2.599901 0
M  V30 51 H -3.204698 1.779543 -2.948269 0
M  V30 52 H -5.091189 0.219735 -2.524643 0
M  V30 53 H -5.860217 -2.050335 -2.563031 0
M  V30 54 H -4.332515 -3.881936 -2.326166 0
M  V30 55 H -0.634663 -5.404419 -1.926609 0
M  V30 56 H 0.093291 -4.016956 -2.733186 0
M  V30 57 H 1.098559 -4.691540 -0.642077 0
M  V30 58 H -0.947865 -5.466004 0.485623 0
M  V30 59 H 0.206167 -4.494558 1.471670 0
M  V30 60 H -1.872681 -3.819551 2.136028 0
M  V30 61 H -2.595611 -3.739975 0.533782 0
M  V30 62 H -2.032284 -2.197806 2.956941 0
M  V30 63 H -2.640443 -0.840274 2.014444 0
M  V30 64 H -0.972625 -0.813304 2.573248 0
M  V30 65 H 0.531178 -1.618323 1.523935 0
M  V30 66 H -0.114193 -0.733933 0.135269 0
M  V30 67 H 1.757032 -2.694123 0.008621 0
M  V30 68 H 0.860386 -2.130553 -1.386853 0
M  V30 69 H -1.132220 -1.079652 -2.004970 0
M  V30 70 H 0.123250 1.609371 0.616051 0
M  V30 71 H 1.348283 1.109002 2.513628 0
M  V30 END ATOM
M  V30 BEGIN BOND
M  V30 1 1 1 2
M  V30 2 2 2 3
M  V30 3 1 3 4
M  V30 4 1 4 5
M  V30 5 2 5 6
M  V30 6 1 6 7
M  V30 7 2 7 8
M  V30 8 1 8 9
M  V30 9 2 9 10
M  V30 10 1 10 11
M  V30 11 2 11 12
M  V30 12 1 12 13
M  V30 13 1 13 14
M  V30 14 1 14 15
M  V30 15 1 15 16
M  V30 16 1 16 17
M  V30 17 1 16 18
M  V30 18 1 18 19
M  V30 19 2 19 20
M  V30 20 1 20 21
M  V30 21 2 21 22
M  V30 22 1 22 23
M  V30 23 1 23 24
M  V30 24 1 24 25
M  V30 25 1 25 26
M  V30 26 1 26 27
M  V30 27 1 27 28
M  V30 28 1 28 29
M  V30 29 1 29 30
M  V30 30 1 29 31
M  V30 31 1 31 32
M  V30 32 2 23 33
M  V30 33 2 13 34
M  V30 34 1 8 35
M  V30 35 2 35 36
M  V30 36 1 36 2
M  V30 37 1 36 5
M  V30 38 1 34 9
M  V30 39 1 33 19
M  V30 40 1 32 26
M  V30 41 1 1 37
M  V30 42 1 1 38
M  V30 43 1 1 39
M  V30 44 1 4 40
M  V30 45 1 6 41
M  V30 46 1 7 42
M  V30 47 1 10 43
M  V30 48 1 12 44
M  V30 49 1 15 45
M  V30 50 1 15 46
M  V30 51 1 16 47 CFG=1
M  V30 52 1 17 48
M  V30 53 1 17 49
M  V30 54 1 18 50
M  V30 55 1 18 51
M  V30 56 1 20 52
M  V30 57 1 21 53
M  V30 58 1 22 54
M  V30 59 1 25 55
M  V30 60 1 25 56
M  V30 61 1 26 57
M  V30 62 1 27 58
M  V30 63 1 27 59
M  V30 64 1 28 60
M  V30 65 1 28 61
M  V30 66 1 30 62
M  V30 67 1 30 63
M  V30 68 1 30 64
M  V30 69 1 31 65
M  V30 70 1 31 66
M  V30 71 1 32 67
M  V30 72 1 32 68
M  V30 73 1 33 69
M  V30 74 1 34 70
M  V30 75 1 35 71
M  V30 END BOND
M  V30 END CTAB
M  END
>  <Dataset>  (420) 
ChEMBL_Kinases

>  <Ligand_Instance>  (420) 
nan

>  <PDB_ID>  (420) 
nan

>  <Standardized_SMILES>  (420) 
Cc1n[nH]c2ccc(-c3cncc(OC[C@@H](N)Cc4cccc(OCC5CCN(C)CC5)c4)c3)cc12

>  <Name>  (420) 
nan

>  <Pocket>  (420) 
nan

>  <ATP_Site>  (420) 
nan

>  <Peripheral>  (420) 
nan

>  <Num_H_Atoms_ProtBoundConf>  (420) 
nan

>  <Num_Resolved_Atoms>  (420) 
nan

>  <Num_Not_Resolved_Atoms>  (420) 
nan

$$$$
CHEMBL226796
     RDKit          3D

  0  0  0  0  0  0  0  0  0  0999 V3000
M  V30 BEGIN CTAB
M  V30 COUNTS 69 73 0 0 0
M  V30 BEGIN ATOM
M  V30 1 C 2.089968 1.119233 4.805644 0
M  V30 2 C 3.136613 0.415559 4.015271 0
M  V30 3 N 4.145928 -0.405516 4.406213 0
M  V30 4 N 4.844913 -0.812347 3.362589 0
M  V30 5 C 4.353476 -0.295005 2.217110 0
M  V30 6 C 4.630330 -0.340120 0.862131 0
M  V30 7 C 3.878235 0.350212 -0.064988 0
M  V30 8 C 2.809190 1.123060 0.308876 0
M  V30 9 C 1.950734 1.893706 -0.579790 0
M  V30 10 C 2.407429 2.464603 -1.747128 0
M  V30 11 N 1.546640 3.180370 -2.529634 0
M  V30 12 C 0.253314 3.308972 -2.129139 0
M  V30 13 C -0.267377 2.748942 -0.949828 0
M  V30 14 O -1.573812 3.075603 -0.869403 0
M  V30 15 C -2.560737 2.797170 0.043436 0
M  V30 16 C -2.845919 1.319409 0.156655 0 CFG=1
M  V30 17 N -3.894163 1.187537 1.157045 0
M  V30 18 C -3.342125 0.766225 -1.187019 0
M  V30 19 C -3.608605 -0.680957 -1.010128 0
M  V30 20 C -4.848609 -1.109064 -0.591907 0
M  V30 21 C -5.121689 -2.449960 -0.425821 0
M  V30 22 C -4.102542 -3.377509 -0.693620 0
M  V30 23 C -2.827799 -2.957012 -1.122299 0
M  V30 24 O -2.104622 -4.077697 -1.286866 0
M  V30 25 C -0.876881 -4.480475 -1.643761 0
M  V30 26 C 0.325451 -4.101810 -0.853702 0
M  V30 27 C 0.308610 -4.559709 0.562725 0
M  V30 28 C -0.526411 -3.722089 1.477752 0
M  V30 29 C -0.344970 -2.256175 1.317898 0
M  V30 30 C 0.537944 -1.808194 0.221230 0
M  V30 31 C 0.798083 -2.706335 -0.919586 0
M  V30 32 C -2.656826 -1.609900 -1.256528 0
M  V30 33 C 0.636046 2.036767 -0.193522 0
M  V30 34 C 2.556979 1.146535 1.685742 0
M  V30 35 C 3.284092 0.471350 2.644818 0
M  V30 36 H 1.068534 0.972363 4.391357 0
M  V30 37 H 2.121626 0.701866 5.831901 0
M  V30 38 H 2.364265 2.191744 4.864479 0
M  V30 39 H 5.672362 -1.448903 3.387951 0
M  V30 40 H 5.472797 -0.950233 0.576805 0
M  V30 41 H 4.104390 0.307750 -1.126042 0
M  V30 42 H 3.447038 2.329238 -2.015446 0
M  V30 43 H -0.253541 3.915669 -2.897788 0
M  V30 44 H -3.512473 3.338107 -0.245067 0
M  V30 45 H -2.349304 3.141466 1.079472 0
M  V30 46 H -1.984319 0.758568 0.509640 0
M  V30 47 H -4.683289 1.826934 1.029606 0
M  V30 48 H -4.104384 0.215215 1.402026 0
M  V30 49 H -2.464623 0.853188 -1.874050 0
M  V30 50 H -4.213379 1.322735 -1.543631 0
M  V30 51 H -5.585026 -0.340844 -0.403934 0
M  V30 52 H -6.127474 -2.655141 -0.095081 0
M  V30 53 H -4.511214 -4.377088 -0.504859 0
M  V30 54 H -0.864045 -5.619758 -1.699758 0
M  V30 55 H -0.708057 -4.177820 -2.734290 0
M  V30 56 H 1.168683 -4.729883 -1.335303 0
M  V30 57 H 1.363481 -4.552584 0.932250 0
M  V30 58 H -0.013118 -5.620299 0.610469 0
M  V30 59 H -1.589675 -3.975534 1.283688 0
M  V30 60 H -0.342276 -4.067701 2.516324 0
M  V30 61 H -1.310653 -1.715153 1.279702 0
M  V30 62 H 0.099261 -1.878459 2.290108 0
M  V30 63 H 0.157726 -0.822320 -0.195650 0
M  V30 64 H 1.544710 -1.475764 0.634533 0
M  V30 65 H 0.497665 -2.198461 -1.889872 0
M  V30 66 H 1.935497 -2.743659 -1.058234 0
M  V30 67 H -1.681565 -1.380275 -1.587412 0
M  V30 68 H 0.178279 1.646403 0.685407 0
M  V30 69 H 1.720054 1.747480 2.014556 0
M  V30 END ATOM
M  V30 BEGIN BOND
M  V30 1 1 1 2
M  V30 2 2 2 3
M  V30 3 1 3 4
M  V30 4 1 4 5
M  V30 5 2 5 6
M  V30 6 1 6 7
M  V30 7 2 7 8
M  V30 8 1 8 9
M  V30 9 2 9 10
M  V30 10 1 10 11
M  V30 11 2 11 12
M  V30 12 1 12 13
M  V30 13 1 13 14
M  V30 14 1 14 15
M  V30 15 1 15 16
M  V30 16 1 16 17
M  V30 17 1 16 18
M  V30 18 1 18 19
M  V30 19 2 19 20
M  V30 20 1 20 21
M  V30 21 2 21 22
M  V30 22 1 22 23
M  V30 23 1 23 24
M  V30 24 1 24 25
M  V30 25 1 25 26
M  V30 26 1 26 27
M  V30 27 1 27 28
M  V30 28 1 28 29
M  V30 29 1 29 30
M  V30 30 1 30 31
M  V30 31 2 23 32
M  V30 32 2 13 33
M  V30 33 1 8 34
M  V30 34 2 34 35
M  V30 35 1 35 2
M  V30 36 1 35 5
M  V30 37 1 33 9
M  V30 38 1 32 19
M  V30 39 1 31 26
M  V30 40 1 1 36
M  V30 41 1 1 37
M  V30 42 1 1 38
M  V30 43 1 4 39
M  V30 44 1 6 40
M  V30 45 1 7 41
M  V30 46 1 10 42
M  V30 47 1 12 43
M  V30 48 1 15 44
M  V30 49 1 15 45
M  V30 50 1 16 46 CFG=1
M  V30 51 1 17 47
M  V30 52 1 17 48
M  V30 53 1 18 49
M  V30 54 1 18 50
M  V30 55 1 20 51
M  V30 56 1 21 52
M  V30 57 1 22 53
M  V30 58 1 25 54
M  V30 59 1 25 55
M  V30 60 1 26 56
M  V30 61 1 27 57
M  V30 62 1 27 58
M  V30 63 1 28 59
M  V30 64 1 28 60
M  V30 65 1 29 61
M  V30 66 1 29 62
M  V30 67 1 30 63
M  V30 68 1 30 64
M  V30 69 1 31 65
M  V30 70 1 31 66
M  V30 71 1 32 67
M  V30 72 1 33 68
M  V30 73 1 34 69
M  V30 END BOND
M  V30 END CTAB
M  END
>  <Dataset>  (421) 
ChEMBL_Kinases

>  <Ligand_Instance>  (421) 
nan

>  <PDB_ID>  (421) 
nan

>  <Standardized_SMILES>  (421) 
Cc1n[nH]c2ccc(-c3cncc(OC[C@@H](N)Cc4cccc(OCC5CCCCC5)c4)c3)cc12

>  <Name>  (421) 
nan

>  <Pocket>  (421) 
nan

>  <ATP_Site>  (421) 
nan

>  <Peripheral>  (421) 
nan

>  <Num_H_Atoms_ProtBoundConf>  (421) 
nan

>  <Num_Resolved_Atoms>  (421) 
nan

>  <Num_Not_Resolved_Atoms>  (421) 
nan

$$$$
CHEMBL226766
     RDKit          3D

  0  0  0  0  0  0  0  0  0  0999 V3000
M  V30 BEGIN CTAB
M  V30 COUNTS 27 28 0 0 0
M  V30 BEGIN ATOM
M  V30 1 C 0.791844 -1.069844 3.592145 0
M  V30 2 C 1.881752 -1.373493 2.646642 0
M  V30 3 N 3.034503 -1.911652 3.141650 0
M  V30 4 N 3.886838 -2.112313 2.148887 0
M  V30 5 C 3.348381 -1.724267 0.976209 0
M  V30 6 C 2.079894 -1.253162 1.265620 0
M  V30 7 C 0.980330 -0.694285 0.479598 0
M  V30 8 C 0.306900 0.439780 0.925789 0
M  V30 9 C -0.746641 1.014610 0.218793 0
M  V30 10 C -1.097028 0.394664 -0.966563 0
M  V30 11 C -2.221405 0.954419 -1.784027 0
M  V30 12 N -3.470346 0.327904 -1.355633 0
M  V30 13 C -0.436318 -0.733758 -1.422798 0
M  V30 14 C 0.610710 -1.295850 -0.709421 0
M  V30 15 H 0.659155 -1.922686 4.311422 0
M  V30 16 H -0.197722 -0.972027 3.088567 0
M  V30 17 H 1.017311 -0.197889 4.242520 0
M  V30 18 H 3.304493 -2.165229 4.136104 0
M  V30 19 H 3.694116 -1.715486 -0.047657 0
M  V30 20 H 0.573119 0.942222 1.863194 0
M  V30 21 H -1.249917 1.880023 0.573201 0
M  V30 22 H -2.264187 2.045086 -1.643261 0
M  V30 23 H -2.057636 0.678089 -2.852055 0
M  V30 24 H -3.529773 0.359486 -0.298266 0
M  V30 25 H -3.491793 -0.659831 -1.686299 0
M  V30 26 H -0.710610 -1.209191 -2.339176 0
M  V30 27 H 1.149693 -2.169684 -1.026949 0
M  V30 END ATOM
M  V30 BEGIN BOND
M  V30 1 1 1 2
M  V30 2 1 2 3
M  V30 3 1 3 4
M  V30 4 2 4 5
M  V30 5 1 5 6
M  V30 6 1 6 7
M  V30 7 2 7 8
M  V30 8 1 8 9
M  V30 9 2 9 10
M  V30 10 1 10 11
M  V30 11 1 11 12
M  V30 12 1 10 13
M  V30 13 2 13 14
M  V30 14 2 6 2
M  V30 15 1 14 7
M  V30 16 1 1 15
M  V30 17 1 1 16
M  V30 18 1 1 17
M  V30 19 1 3 18
M  V30 20 1 5 19
M  V30 21 1 8 20
M  V30 22 1 9 21
M  V30 23 1 11 22
M  V30 24 1 11 23
M  V30 25 1 12 24
M  V30 26 1 12 25
M  V30 27 1 13 26
M  V30 28 1 14 27
M  V30 END BOND
M  V30 END CTAB
M  END
>  <Dataset>  (422) 
ChEMBL_Kinases

>  <Ligand_Instance>  (422) 
nan

>  <PDB_ID>  (422) 
nan

>  <Standardized_SMILES>  (422) 
Cc1[nH]ncc1-c1ccc(CN)cc1

>  <Name>  (422) 
nan

>  <Pocket>  (422) 
nan

>  <ATP_Site>  (422) 
nan

>  <Peripheral>  (422) 
nan

>  <Num_H_Atoms_ProtBoundConf>  (422) 
nan

>  <Num_Resolved_Atoms>  (422) 
nan

>  <Num_Not_Resolved_Atoms>  (422) 
nan

$$$$
CHEMBL226745
     RDKit          3D

  0  0  0  0  0  0  0  0  0  0999 V3000
M  V30 BEGIN CTAB
M  V30 COUNTS 68 72 0 0 0
M  V30 BEGIN ATOM
M  V30 1 C 3.331793 -0.287304 -2.070723 0
M  V30 2 C 4.137840 0.955223 -1.998741 0
M  V30 3 N 5.411651 1.094632 -2.458785 0
M  V30 4 N 5.795108 2.354788 -2.214506 0
M  V30 5 C 4.790386 3.004971 -1.612824 0
M  V30 6 C 4.698235 4.308650 -1.167076 0
M  V30 7 C 3.529726 4.731448 -0.572225 0
M  V30 8 C 2.454586 3.856608 -0.421653 0
M  V30 9 C 1.270411 4.411047 0.219500 0
M  V30 10 C 0.857078 5.720797 0.127261 0
M  V30 11 N -0.273479 6.139003 0.772851 0
M  V30 12 C -0.986898 5.229448 1.513281 0
M  V30 13 C -0.617259 3.873632 1.647923 0
M  V30 14 O -1.556571 3.356056 2.432297 0
M  V30 15 C -1.921460 2.186140 2.994337 0
M  V30 16 C -2.320076 1.027910 2.123520 0 CFG=1
M  V30 17 N -3.494511 1.505800 1.357348 0
M  V30 18 C -1.335705 0.579678 1.114667 0
M  V30 19 C -1.852882 -0.605885 0.319897 0
M  V30 20 C -2.572101 -0.425859 -0.842641 0
M  V30 21 C -3.030838 -1.517201 -1.552519 0
M  V30 22 C -2.741925 -2.779332 -1.054142 0
M  V30 23 C -2.009776 -2.919532 0.128411 0
M  V30 24 O -1.767778 -4.220699 0.551661 0
M  V30 25 C -2.202808 -5.355147 -0.122609 0
M  V30 26 C -1.834216 -6.670381 0.510861 0
M  V30 27 C -2.383091 -6.846782 1.900309 0
M  V30 28 C -1.568016 -6.179714 2.974402 0
M  V30 29 N -0.325123 -5.798252 2.425982 0
M  V30 30 C 0.390650 -6.737939 1.654734 0
M  V30 31 C -0.378350 -7.000264 0.377318 0
M  V30 32 C -1.547119 -1.841845 0.844867 0
M  V30 33 C 0.515985 3.549096 0.974307 0
M  V30 34 C 2.533798 2.552771 -0.862414 0
M  V30 35 C 3.711856 2.148954 -1.455238 0
M  V30 36 H 2.580920 -0.170880 -2.878570 0
M  V30 37 H 3.995207 -1.148674 -2.329386 0
M  V30 38 H 2.787286 -0.511040 -1.137514 0
M  V30 39 H 6.745790 2.671658 -2.490592 0
M  V30 40 H 5.543627 4.967263 -1.294319 0
M  V30 41 H 3.466427 5.747731 -0.227454 0
M  V30 42 H 1.491168 6.340256 -0.477495 0
M  V30 43 H -1.822411 5.828537 1.908462 0
M  V30 44 H -2.784811 2.390297 3.720457 0
M  V30 45 H -1.093343 1.758818 3.658174 0
M  V30 46 H -2.731937 0.180309 2.726516 0
M  V30 47 H -3.125527 2.109982 0.591084 0
M  V30 48 H -3.922231 0.669864 0.899561 0
M  V30 49 H -0.369560 0.380604 1.582662 0
M  V30 50 H -1.157261 1.358076 0.313265 0
M  V30 51 H -2.788952 0.566409 -1.217117 0
M  V30 52 H -3.593808 -1.376252 -2.461957 0
M  V30 53 H -3.111796 -3.628652 -1.627893 0
M  V30 54 H -3.322220 -5.320797 -0.110281 0
M  V30 55 H -1.847489 -5.374398 -1.161224 0
M  V30 56 H -2.370705 -7.446481 -0.111696 0
M  V30 57 H -3.420327 -6.463069 1.894898 0
M  V30 58 H -2.380726 -7.952909 2.118982 0
M  V30 59 H -1.498894 -6.834051 3.869886 0
M  V30 60 H -2.114693 -5.259257 3.293868 0
M  V30 61 H 0.032798 -4.866690 2.564081 0
M  V30 62 H 1.382112 -6.305159 1.398081 0
M  V30 63 H 0.623727 -7.690190 2.191251 0
M  V30 64 H -0.225657 -8.094335 0.141352 0
M  V30 65 H 0.069179 -6.478162 -0.492409 0
M  V30 66 H -0.998041 -2.040536 1.734055 0
M  V30 67 H 0.744713 2.521910 1.124417 0
M  V30 68 H 1.691090 1.888435 -0.738019 0
M  V30 END ATOM
M  V30 BEGIN BOND
M  V30 1 1 1 2
M  V30 2 2 2 3
M  V30 3 1 3 4
M  V30 4 1 4 5
M  V30 5 2 5 6
M  V30 6 1 6 7
M  V30 7 2 7 8
M  V30 8 1 8 9
M  V30 9 2 9 10
M  V30 10 1 10 11
M  V30 11 2 11 12
M  V30 12 1 12 13
M  V30 13 1 13 14
M  V30 14 1 14 15
M  V30 15 1 15 16
M  V30 16 1 16 17
M  V30 17 1 16 18
M  V30 18 1 18 19
M  V30 19 2 19 20
M  V30 20 1 20 21
M  V30 21 2 21 22
M  V30 22 1 22 23
M  V30 23 1 23 24
M  V30 24 1 24 25
M  V30 25 1 25 26
M  V30 26 1 26 27
M  V30 27 1 27 28
M  V30 28 1 28 29
M  V30 29 1 29 30
M  V30 30 1 30 31
M  V30 31 2 23 32
M  V30 32 2 13 33
M  V30 33 1 8 34
M  V30 34 2 34 35
M  V30 35 1 35 2
M  V30 36 1 35 5
M  V30 37 1 33 9
M  V30 38 1 32 19
M  V30 39 1 31 26
M  V30 40 1 1 36
M  V30 41 1 1 37
M  V30 42 1 1 38
M  V30 43 1 4 39
M  V30 44 1 6 40
M  V30 45 1 7 41
M  V30 46 1 10 42
M  V30 47 1 12 43
M  V30 48 1 15 44
M  V30 49 1 15 45
M  V30 50 1 16 46 CFG=1
M  V30 51 1 17 47
M  V30 52 1 17 48
M  V30 53 1 18 49
M  V30 54 1 18 50
M  V30 55 1 20 51
M  V30 56 1 21 52
M  V30 57 1 22 53
M  V30 58 1 25 54
M  V30 59 1 25 55
M  V30 60 1 26 56
M  V30 61 1 27 57
M  V30 62 1 27 58
M  V30 63 1 28 59
M  V30 64 1 28 60
M  V30 65 1 29 61
M  V30 66 1 30 62
M  V30 67 1 30 63
M  V30 68 1 31 64
M  V30 69 1 31 65
M  V30 70 1 32 66
M  V30 71 1 33 67
M  V30 72 1 34 68
M  V30 END BOND
M  V30 END CTAB
M  END
>  <Dataset>  (423) 
ChEMBL_Kinases

>  <Ligand_Instance>  (423) 
nan

>  <PDB_ID>  (423) 
nan

>  <Standardized_SMILES>  (423) 
Cc1n[nH]c2ccc(-c3cncc(OC[C@@H](N)Cc4cccc(OCC5CCNCC5)c4)c3)cc12

>  <Name>  (423) 
nan

>  <Pocket>  (423) 
nan

>  <ATP_Site>  (423) 
nan

>  <Peripheral>  (423) 
nan

>  <Num_H_Atoms_ProtBoundConf>  (423) 
nan

>  <Num_Resolved_Atoms>  (423) 
nan

>  <Num_Not_Resolved_Atoms>  (423) 
nan

$$$$
CHEMBL226744
     RDKit          3D

  0  0  0  0  0  0  0  0  0  0999 V3000
M  V30 BEGIN CTAB
M  V30 COUNTS 55 59 0 0 0
M  V30 BEGIN ATOM
M  V30 1 C 1.446592 -2.625871 3.603734 0
M  V30 2 C 2.872883 -2.253699 3.439861 0
M  V30 3 N 3.925987 -2.675414 4.161141 0
M  V30 4 N 5.040732 -2.115218 3.707120 0
M  V30 5 C 4.762752 -1.308278 2.675362 0
M  V30 6 C 5.479210 -0.499705 1.840898 0
M  V30 7 C 4.856022 0.223935 0.840537 0
M  V30 8 C 3.495043 0.134076 0.676228 0
M  V30 9 C 2.952059 0.927097 -0.393041 0
M  V30 10 C 3.667139 1.183903 -1.536466 0
M  V30 11 N 3.088829 1.943827 -2.511498 0
M  V30 12 C 1.822295 2.422187 -2.318583 0
M  V30 13 C 1.061034 2.179692 -1.162261 0
M  V30 14 O -0.130662 2.805129 -1.324198 0
M  V30 15 C -1.236134 2.883002 -0.502029 0
M  V30 16 C -1.892920 1.590032 -0.170305 0 CFG=1
M  V30 17 N -3.046018 1.860247 0.704553 0
M  V30 18 C -2.482532 0.913419 -1.412846 0
M  V30 19 C -3.101847 -0.363835 -0.912933 0
M  V30 20 C -4.425204 -0.282991 -0.530848 0
M  V30 21 C -5.022368 -1.439224 -0.066843 0
M  V30 22 C -4.284469 -2.624674 -0.001015 0
M  V30 23 C -2.955609 -2.706972 -0.384381 0
M  V30 24 C -2.364120 -1.528148 -0.852201 0
M  V30 25 O -2.263345 -3.895910 -0.303684 0
M  V30 26 C -2.948235 -5.102379 -0.012277 0
M  V30 27 F -2.018897 -5.973726 0.516316 0
M  V30 28 F -3.587663 -5.630234 -1.110704 0
M  V30 29 C -4.007782 -4.783660 1.022137 0
M  V30 30 F -4.698987 -5.899083 1.416813 0
M  V30 31 F -3.340445 -4.183592 2.081530 0
M  V30 32 O -4.857580 -3.799364 0.460157 0
M  V30 33 C 1.675703 1.409400 -0.198756 0
M  V30 34 C 2.731486 -0.685672 1.514816 0
M  V30 35 C 3.383291 -1.392441 2.500578 0
M  V30 36 H 1.156722 -3.149898 2.656792 0
M  V30 37 H 1.328982 -3.352545 4.433205 0
M  V30 38 H 0.810349 -1.752633 3.828623 0
M  V30 39 H 5.990959 -2.286813 4.105197 0
M  V30 40 H 6.554811 -0.486016 2.039738 0
M  V30 41 H 5.538153 0.818342 0.258514 0
M  V30 42 H 4.650724 0.770408 -1.603487 0
M  V30 43 H 1.576143 2.996475 -3.225532 0
M  V30 44 H -0.897187 3.319753 0.483752 0
M  V30 45 H -1.989449 3.575546 -0.937463 0
M  V30 46 H -1.275923 0.851240 0.334945 0
M  V30 47 H -3.757689 2.435375 0.201640 0
M  V30 48 H -2.732635 2.304445 1.595536 0
M  V30 49 H -3.185691 1.555170 -1.942124 0
M  V30 50 H -1.658463 0.624992 -2.087136 0
M  V30 51 H -5.064375 0.564531 -0.543884 0
M  V30 52 H -6.063213 -1.481638 0.259492 0
M  V30 53 H -1.327644 -1.545206 -1.162631 0
M  V30 54 H 1.019567 1.286120 0.641176 0
M  V30 55 H 1.674697 -0.694439 1.313983 0
M  V30 END ATOM
M  V30 BEGIN BOND
M  V30 1 1 1 2
M  V30 2 2 2 3
M  V30 3 1 3 4
M  V30 4 1 4 5
M  V30 5 2 5 6
M  V30 6 1 6 7
M  V30 7 2 7 8
M  V30 8 1 8 9
M  V30 9 2 9 10
M  V30 10 1 10 11
M  V30 11 2 11 12
M  V30 12 1 12 13
M  V30 13 1 13 14
M  V30 14 1 14 15
M  V30 15 1 15 16
M  V30 16 1 16 17
M  V30 17 1 16 18
M  V30 18 1 18 19
M  V30 19 2 19 20
M  V30 20 1 20 21
M  V30 21 2 21 22
M  V30 22 1 22 23
M  V30 23 2 23 24
M  V30 24 1 23 25
M  V30 25 1 25 26
M  V30 26 1 26 27
M  V30 27 1 26 28
M  V30 28 1 26 29
M  V30 29 1 29 30
M  V30 30 1 29 31
M  V30 31 1 29 32
M  V30 32 2 13 33
M  V30 33 1 8 34
M  V30 34 2 34 35
M  V30 35 1 35 2
M  V30 36 1 35 5
M  V30 37 1 33 9
M  V30 38 1 24 19
M  V30 39 1 32 22
M  V30 40 1 1 36
M  V30 41 1 1 37
M  V30 42 1 1 38
M  V30 43 1 4 39
M  V30 44 1 6 40
M  V30 45 1 7 41
M  V30 46 1 10 42
M  V30 47 1 12 43
M  V30 48 1 15 44
M  V30 49 1 15 45
M  V30 50 1 16 46 CFG=1
M  V30 51 1 17 47
M  V30 52 1 17 48
M  V30 53 1 18 49
M  V30 54 1 18 50
M  V30 55 1 20 51
M  V30 56 1 21 52
M  V30 57 1 24 53
M  V30 58 1 33 54
M  V30 59 1 34 55
M  V30 END BOND
M  V30 END CTAB
M  END
>  <Dataset>  (424) 
ChEMBL_Kinases

>  <Ligand_Instance>  (424) 
nan

>  <PDB_ID>  (424) 
nan

>  <Standardized_SMILES>  (424) 
Cc1n[nH]c2ccc(-c3cncc(OC[C@@H](N)Cc4ccc5c(c4)OC(F)(F)C(F)(F)O5)c3)cc12

>  <Name>  (424) 
nan

>  <Pocket>  (424) 
nan

>  <ATP_Site>  (424) 
nan

>  <Peripheral>  (424) 
nan

>  <Num_H_Atoms_ProtBoundConf>  (424) 
nan

>  <Num_Resolved_Atoms>  (424) 
nan

>  <Num_Not_Resolved_Atoms>  (424) 
nan

$$$$
CHEMBL226734
     RDKit          3D

  0  0  0  0  0  0  0  0  0  0999 V3000
M  V30 BEGIN CTAB
M  V30 COUNTS 50 54 0 0 0
M  V30 BEGIN ATOM
M  V30 1 C -1.316720 -0.108632 5.385285 0
M  V30 2 C -0.534902 -0.999122 4.503411 0
M  V30 3 C -0.030669 -2.218122 4.964925 0
M  V30 4 C 0.677362 -2.932694 4.018294 0
M  V30 5 C 0.886355 -2.516843 2.736769 0
M  V30 6 C 0.357384 -1.287399 2.331498 0
M  V30 7 C 0.616144 -0.907480 0.959823 0
M  V30 8 N 1.296781 0.133157 0.454755 0
M  V30 9 C 1.329133 0.166207 -0.885138 0
M  V30 10 N 1.921390 1.075898 -1.790552 0
M  V30 11 C 2.643188 2.284535 -1.585038 0
M  V30 12 C 1.748050 3.289755 -0.958441 0
M  V30 13 C 1.550906 3.652091 0.354137 0
M  V30 14 C 0.641145 4.611454 0.726867 0
M  V30 15 C -0.139216 5.278474 -0.203582 0
M  V30 16 C 0.041652 4.932090 -1.525882 0
M  V30 17 C -0.774793 5.629868 -2.499036 0
M  V30 18 N -1.432733 6.170491 -3.255242 0
M  V30 19 C 0.952991 3.971863 -1.890232 0
M  V30 20 N 0.623134 -0.924862 -1.233103 0
M  V30 21 C 0.187829 -1.581367 -0.163701 0
M  V30 22 C -0.604546 -2.803805 -0.263686 0
M  V30 23 C -1.898185 -3.015203 0.166117 0
M  V30 24 C -2.495080 -4.246046 -0.012095 0
M  V30 25 C -1.859924 -5.312318 -0.611976 0
M  V30 26 C -0.551326 -5.084125 -1.041961 0
M  V30 27 C 0.065203 -3.866350 -0.875629 0
M  V30 28 O -0.081319 -6.276419 -1.619641 0
M  V30 29 C -0.910210 -7.341454 -1.135072 0
M  V30 30 O -2.135437 -6.627819 -0.942481 0
M  V30 31 N -0.342983 -0.564401 3.241739 0
M  V30 32 H -2.388740 -0.161784 5.091587 0
M  V30 33 H -1.224083 -0.380531 6.442518 0
M  V30 34 H -0.968366 0.948880 5.203977 0
M  V30 35 H -0.222770 -2.500286 5.981775 0
M  V30 36 H 1.074037 -3.884830 4.370706 0
M  V30 37 H 1.460086 -3.182233 2.108414 0
M  V30 38 H 1.741792 0.819010 1.097505 0
M  V30 39 H 1.813087 0.820500 -2.823919 0
M  V30 40 H 3.039598 2.685958 -2.528862 0
M  V30 41 H 3.504148 2.042728 -0.896660 0
M  V30 42 H 2.191678 3.109267 1.030957 0
M  V30 43 H 0.583328 4.804040 1.801437 0
M  V30 44 H -0.830932 6.019372 0.168246 0
M  V30 45 H 0.997518 3.793177 -2.963919 0
M  V30 46 H -2.362378 -2.166532 0.627680 0
M  V30 47 H -3.502400 -4.395098 0.327394 0
M  V30 48 H 1.099418 -3.775537 -1.245046 0
M  V30 49 H -1.001565 -8.166856 -1.843462 0
M  V30 50 H -0.532537 -7.652106 -0.132194 0
M  V30 END ATOM
M  V30 BEGIN BOND
M  V30 1 1 1 2
M  V30 2 2 2 3
M  V30 3 1 3 4
M  V30 4 2 4 5
M  V30 5 1 5 6
M  V30 6 1 6 7
M  V30 7 1 7 8
M  V30 8 1 8 9
M  V30 9 1 9 10
M  V30 10 1 10 11
M  V30 11 1 11 12
M  V30 12 2 12 13
M  V30 13 1 13 14
M  V30 14 2 14 15
M  V30 15 1 15 16
M  V30 16 1 16 17
M  V30 17 3 17 18
M  V30 18 2 16 19
M  V30 19 2 9 20
M  V30 20 1 20 21
M  V30 21 1 21 22
M  V30 22 2 22 23
M  V30 23 1 23 24
M  V30 24 2 24 25
M  V30 25 1 25 26
M  V30 26 2 26 27
M  V30 27 1 26 28
M  V30 28 1 28 29
M  V30 29 1 29 30
M  V30 30 2 6 31
M  V30 31 1 31 2
M  V30 32 2 21 7
M  V30 33 1 27 22
M  V30 34 1 19 12
M  V30 35 1 30 25
M  V30 36 1 1 32
M  V30 37 1 1 33
M  V30 38 1 1 34
M  V30 39 1 3 35
M  V30 40 1 4 36
M  V30 41 1 5 37
M  V30 42 1 8 38
M  V30 43 1 10 39
M  V30 44 1 11 40
M  V30 45 1 11 41
M  V30 46 1 13 42
M  V30 47 1 14 43
M  V30 48 1 15 44
M  V30 49 1 19 45
M  V30 50 1 23 46
M  V30 51 1 24 47
M  V30 52 1 27 48
M  V30 53 1 29 49
M  V30 54 1 29 50
M  V30 END BOND
M  V30 END CTAB
M  END
>  <Dataset>  (425) 
ChEMBL_Kinases

>  <Ligand_Instance>  (425) 
nan

>  <PDB_ID>  (425) 
nan

>  <Standardized_SMILES>  (425) 
Cc1cccc(-c2[nH]c(NCc3cccc(C#N)c3)nc2-c2ccc3c(c2)OCO3)n1

>  <Name>  (425) 
nan

>  <Pocket>  (425) 
nan

>  <ATP_Site>  (425) 
nan

>  <Peripheral>  (425) 
nan

>  <Num_H_Atoms_ProtBoundConf>  (425) 
nan

>  <Num_Resolved_Atoms>  (425) 
nan

>  <Num_Not_Resolved_Atoms>  (425) 
nan

$$$$
CHEMBL226733
     RDKit          3D

  0  0  0  0  0  0  0  0  0  0999 V3000
M  V30 BEGIN CTAB
M  V30 COUNTS 57 61 0 0 0
M  V30 BEGIN ATOM
M  V30 1 C 1.641792 -3.799911 3.758911 0
M  V30 2 C 2.350467 -2.459589 3.693174 0
M  V30 3 C 2.584820 -2.057069 2.285394 0
M  V30 4 C 3.729787 -2.397233 1.593475 0
M  V30 5 C 3.940900 -2.020638 0.286880 0
M  V30 6 C 2.954997 -1.273105 -0.337395 0
M  V30 7 C 1.810963 -0.935089 0.359089 0
M  V30 8 C 0.861840 -0.149575 -0.419609 0
M  V30 9 N 0.496149 1.103653 -0.109137 0
M  V30 10 C -0.388442 1.612011 -0.979158 0
M  V30 11 C -1.151010 2.872679 -1.175364 0
M  V30 12 N -2.463499 2.738686 -0.592659 0
M  V30 13 C -2.878521 2.608532 0.753771 0
M  V30 14 C -2.043869 2.617296 1.845927 0
M  V30 15 C -2.418933 2.483697 3.160253 0
M  V30 16 C -3.764459 2.325813 3.407037 0
M  V30 17 C -4.279248 2.175890 4.755963 0
M  V30 18 N -3.428383 2.182115 5.895032 0
M  V30 19 O -5.447894 2.024402 5.185104 0
M  V30 20 C -4.649682 2.308932 2.358693 0
M  V30 21 C -4.203247 2.447906 1.070409 0
M  V30 22 N -0.573653 0.607647 -1.875863 0
M  V30 23 C 0.166004 -0.466575 -1.565213 0
M  V30 24 C 0.328134 -1.775074 -2.186973 0
M  V30 25 C -0.061560 -2.853381 -1.436984 0
M  V30 26 C 0.068669 -4.118255 -1.972539 0
M  V30 27 C 0.576888 -4.342783 -3.236594 0
M  V30 28 N 0.720309 -5.561933 -3.794893 0
M  V30 29 C 1.224341 -5.725596 -5.037198 0
M  V30 30 C 1.617580 -4.626190 -5.792158 0
M  V30 31 N 1.484837 -3.381030 -5.255007 0
M  V30 32 C 0.970897 -3.255913 -3.995618 0
M  V30 33 C 0.835444 -2.002646 -3.449471 0
M  V30 34 N 1.646353 -1.327908 1.643933 0
M  V30 35 H 0.795351 -3.805597 3.011761 0
M  V30 36 H 1.215181 -3.865349 4.791498 0
M  V30 37 H 2.319004 -4.647305 3.537070 0
M  V30 38 H 1.751635 -1.726805 4.240802 0
M  V30 39 H 3.304044 -2.588478 4.255203 0
M  V30 40 H 4.500536 -2.990173 2.104193 0
M  V30 41 H 4.845377 -2.289740 -0.258515 0
M  V30 42 H 3.143860 -0.989730 -1.362838 0
M  V30 43 H 0.826224 1.677110 0.692773 0
M  V30 44 H -1.254027 3.090916 -2.258758 0
M  V30 45 H -0.596384 3.740802 -0.719834 0
M  V30 46 H -3.264718 2.736067 -1.299754 0
M  V30 47 H -0.983553 2.748029 1.695055 0
M  V30 48 H -1.710330 2.498839 3.976835 0
M  V30 49 H -2.987105 1.230205 6.007840 0
M  V30 50 H -3.177210 2.916686 6.598005 0
M  V30 51 H -5.707069 2.184568 2.558352 0
M  V30 52 H -4.956576 2.425252 0.293790 0
M  V30 53 H -0.465339 -2.756215 -0.447112 0
M  V30 54 H -0.230739 -4.978889 -1.401947 0
M  V30 55 H 1.283461 -6.756905 -5.359801 0
M  V30 56 H 2.015053 -4.809985 -6.781567 0
M  V30 57 H 1.136567 -1.136817 -4.023176 0
M  V30 END ATOM
M  V30 BEGIN BOND
M  V30 1 1 1 2
M  V30 2 1 2 3
M  V30 3 2 3 4
M  V30 4 1 4 5
M  V30 5 2 5 6
M  V30 6 1 6 7
M  V30 7 1 7 8
M  V30 8 1 8 9
M  V30 9 1 9 10
M  V30 10 1 10 11
M  V30 11 1 11 12
M  V30 12 1 12 13
M  V30 13 2 13 14
M  V30 14 1 14 15
M  V30 15 2 15 16
M  V30 16 1 16 17
M  V30 17 1 17 18
M  V30 18 2 17 19
M  V30 19 1 16 20
M  V30 20 2 20 21
M  V30 21 2 10 22
M  V30 22 1 22 23
M  V30 23 1 23 24
M  V30 24 2 24 25
M  V30 25 1 25 26
M  V30 26 2 26 27
M  V30 27 1 27 28
M  V30 28 2 28 29
M  V30 29 1 29 30
M  V30 30 2 30 31
M  V30 31 1 31 32
M  V30 32 2 32 33
M  V30 33 2 7 34
M  V30 34 1 34 3
M  V30 35 2 23 8
M  V30 36 1 33 24
M  V30 37 1 21 13
M  V30 38 1 32 27
M  V30 39 1 1 35
M  V30 40 1 1 36
M  V30 41 1 1 37
M  V30 42 1 2 38
M  V30 43 1 2 39
M  V30 44 1 4 40
M  V30 45 1 5 41
M  V30 46 1 6 42
M  V30 47 1 9 43
M  V30 48 1 11 44
M  V30 49 1 11 45
M  V30 50 1 12 46
M  V30 51 1 14 47
M  V30 52 1 15 48
M  V30 53 1 18 49
M  V30 54 1 18 50
M  V30 55 1 20 51
M  V30 56 1 21 52
M  V30 57 1 25 53
M  V30 58 1 26 54
M  V30 59 1 29 55
M  V30 60 1 30 56
M  V30 61 1 33 57
M  V30 END BOND
M  V30 END CTAB
M  END
>  <Dataset>  (426) 
ChEMBL_Kinases

>  <Ligand_Instance>  (426) 
nan

>  <PDB_ID>  (426) 
nan

>  <Standardized_SMILES>  (426) 
CCc1cccc(-c2[nH]c(CNc3ccc(C(N)=O)cc3)nc2-c2ccc3nccnc3c2)n1

>  <Name>  (426) 
nan

>  <Pocket>  (426) 
nan

>  <ATP_Site>  (426) 
nan

>  <Peripheral>  (426) 
nan

>  <Num_H_Atoms_ProtBoundConf>  (426) 
nan

>  <Num_Resolved_Atoms>  (426) 
nan

>  <Num_Not_Resolved_Atoms>  (426) 
nan

$$$$
CHEMBL226712
     RDKit          3D

  0  0  0  0  0  0  0  0  0  0999 V3000
M  V30 BEGIN CTAB
M  V30 COUNTS 38 41 0 0 0
M  V30 BEGIN ATOM
M  V30 1 N -1.833653 -3.403452 -0.450656 0
M  V30 2 C -0.550384 -2.874011 -0.817433 0
M  V30 3 C 0.477839 -3.667967 -0.065881 0
M  V30 4 C 1.662198 -4.205507 -0.527416 0
M  V30 5 C 2.453324 -4.903204 0.356455 0
M  V30 6 C 2.115837 -5.086542 1.672667 0
M  V30 7 Cl 3.162860 -5.982727 2.746725 0
M  V30 8 C 0.944418 -4.566358 2.169583 0
M  V30 9 C 0.147392 -3.862420 1.275469 0
M  V30 10 C -0.462010 -1.439493 -0.517102 0
M  V30 11 C -1.530679 -0.639734 -0.867723 0
M  V30 12 C -1.558637 0.719996 -0.634817 0
M  V30 13 C -0.482974 1.333565 -0.025400 0
M  V30 14 C -0.337130 2.755696 0.299383 0
M  V30 15 N -0.660710 3.744019 -0.576181 0
M  V30 16 C -0.507129 5.049597 -0.226972 0
M  V30 17 N -0.031962 5.399847 0.991392 0
M  V30 18 C 0.309789 4.463545 1.912101 0
M  V30 19 N 0.800920 4.506547 3.183298 0
M  V30 20 C 0.950489 3.235518 3.618428 0
M  V30 21 N 0.553665 2.397493 2.621360 0
M  V30 22 C 0.150162 3.131143 1.548226 0
M  V30 23 C 0.608695 0.547453 0.338345 0
M  V30 24 C 0.623570 -0.816165 0.098672 0
M  V30 25 H -1.746601 -4.372499 -0.069286 0
M  V30 26 H -2.222007 -2.820486 0.324894 0
M  V30 27 H -0.427877 -3.032796 -1.916923 0
M  V30 28 H 1.834147 -4.006575 -1.569519 0
M  V30 29 H 3.372751 -5.302648 -0.064695 0
M  V30 30 H 0.670635 -4.703685 3.197206 0
M  V30 31 H -0.775374 -3.470654 1.730258 0
M  V30 32 H -2.400252 -1.085363 -1.351268 0
M  V30 33 H -2.366197 1.372894 -0.891007 0
M  V30 34 H -0.768023 5.846054 -0.932899 0
M  V30 35 H 1.013321 5.404668 3.700192 0
M  V30 36 H 1.329065 3.007405 4.608042 0
M  V30 37 H 1.487991 0.961816 0.820745 0
M  V30 38 H 1.467251 -1.456102 0.373916 0
M  V30 END ATOM
M  V30 BEGIN BOND
M  V30 1 1 1 2
M  V30 2 1 2 3
M  V30 3 2 3 4
M  V30 4 1 4 5
M  V30 5 2 5 6
M  V30 6 1 6 7
M  V30 7 1 6 8
M  V30 8 2 8 9
M  V30 9 1 2 10
M  V30 10 2 10 11
M  V30 11 1 11 12
M  V30 12 2 12 13
M  V30 13 1 13 14
M  V30 14 2 14 15
M  V30 15 1 15 16
M  V30 16 2 16 17
M  V30 17 1 17 18
M  V30 18 1 18 19
M  V30 19 1 19 20
M  V30 20 2 20 21
M  V30 21 1 21 22
M  V30 22 1 13 23
M  V30 23 2 23 24
M  V30 24 1 9 3
M  V30 25 1 24 10
M  V30 26 1 22 14
M  V30 27 2 22 18
M  V30 28 1 1 25
M  V30 29 1 1 26
M  V30 30 1 2 27
M  V30 31 1 4 28
M  V30 32 1 5 29
M  V30 33 1 8 30
M  V30 34 1 9 31
M  V30 35 1 11 32
M  V30 36 1 12 33
M  V30 37 1 16 34
M  V30 38 1 19 35
M  V30 39 1 20 36
M  V30 40 1 23 37
M  V30 41 1 24 38
M  V30 END BOND
M  V30 END CTAB
M  END
>  <Dataset>  (427) 
ChEMBL_Kinases

>  <Ligand_Instance>  (427) 
nan

>  <PDB_ID>  (427) 
nan

>  <Standardized_SMILES>  (427) 
NC(c1ccc(Cl)cc1)c1ccc(-c2ncnc3[nH]cnc23)cc1

>  <Name>  (427) 
nan

>  <Pocket>  (427) 
nan

>  <ATP_Site>  (427) 
nan

>  <Peripheral>  (427) 
nan

>  <Num_H_Atoms_ProtBoundConf>  (427) 
nan

>  <Num_Resolved_Atoms>  (427) 
nan

>  <Num_Not_Resolved_Atoms>  (427) 
nan

$$$$
CHEMBL226627
     RDKit          3D

  0  0  0  0  0  0  0  0  0  0999 V3000
M  V30 BEGIN CTAB
M  V30 COUNTS 52 55 0 0 0
M  V30 BEGIN ATOM
M  V30 1 C 5.661382 -0.526230 -3.217509 0
M  V30 2 C 5.365484 -1.312247 -1.989819 0
M  V30 3 N 5.874991 -2.525412 -1.652420 0
M  V30 4 N 5.355516 -2.881701 -0.475532 0
M  V30 5 C 4.523694 -1.906791 -0.066006 0
M  V30 6 C 3.773987 -1.851774 1.089672 0
M  V30 7 C 2.996805 -0.730815 1.271883 0
M  V30 8 C 2.919108 0.325907 0.388193 0
M  V30 9 C 2.076591 1.489614 0.636805 0
M  V30 10 C 2.311176 2.782596 0.230785 0
M  V30 11 N 1.414909 3.762225 0.551245 0
M  V30 12 C 0.296414 3.424884 1.274935 0
M  V30 13 C -0.006479 2.136925 1.719360 0
M  V30 14 O -1.164447 2.292715 2.366215 0
M  V30 15 C -2.041370 1.495201 3.018294 0
M  V30 16 C -2.805997 0.442627 2.272491 0 CFG=1
M  V30 17 N -3.615163 1.105667 1.254179 0
M  V30 18 C -2.054547 -0.708986 1.745193 0
M  V30 19 C -2.944122 -1.708671 1.044116 0
M  V30 20 C -3.223353 -1.631563 -0.304515 0
M  V30 21 C -4.027316 -2.521958 -0.983392 0
M  V30 22 C -4.579845 -3.552785 -0.242875 0
M  V30 23 F -5.375394 -4.419656 -0.953296 0
M  V30 24 C -4.312566 -3.646031 1.103582 0
M  V30 25 C -4.976900 -4.808020 1.753926 0
M  V30 26 F -6.350292 -4.730980 1.626292 0
M  V30 27 F -4.586436 -5.992251 1.132123 0
M  V30 28 F -4.694872 -4.862044 3.110103 0
M  V30 29 C -3.515617 -2.757475 1.759404 0
M  V30 30 C 0.940060 1.214339 1.358618 0
M  V30 31 C 3.697818 0.202537 -0.748841 0
M  V30 32 C 4.503821 -0.887204 -1.007374 0
M  V30 33 H 6.524037 -0.957939 -3.764144 0
M  V30 34 H 4.757034 -0.435143 -3.863057 0
M  V30 35 H 5.875717 0.509425 -2.876569 0
M  V30 36 H 5.621946 -3.799775 -0.028837 0
M  V30 37 H 3.792747 -2.644900 1.816641 0
M  V30 38 H 2.405400 -0.699833 2.195288 0
M  V30 39 H 3.225283 2.894738 -0.327048 0
M  V30 40 H -0.205831 4.407939 1.364746 0
M  V30 41 H -1.470783 0.895801 3.818980 0
M  V30 42 H -2.753174 2.090081 3.681868 0
M  V30 43 H -3.565221 0.036958 3.009169 0
M  V30 44 H -3.080228 1.835016 0.739732 0
M  V30 45 H -4.416121 1.635327 1.693694 0
M  V30 46 H -1.394803 -1.247703 2.407110 0
M  V30 47 H -1.419401 -0.306878 0.890443 0
M  V30 48 H -2.779862 -0.816999 -0.862164 0
M  V30 49 H -4.190134 -2.376555 -2.057335 0
M  V30 50 H -3.339123 -2.881948 2.828531 0
M  V30 51 H 0.647537 0.252153 1.752711 0
M  V30 52 H 3.692279 1.001051 -1.501907 0
M  V30 END ATOM
M  V30 BEGIN BOND
M  V30 1 1 1 2
M  V30 2 2 2 3
M  V30 3 1 3 4
M  V30 4 1 4 5
M  V30 5 2 5 6
M  V30 6 1 6 7
M  V30 7 2 7 8
M  V30 8 1 8 9
M  V30 9 2 9 10
M  V30 10 1 10 11
M  V30 11 2 11 12
M  V30 12 1 12 13
M  V30 13 1 13 14
M  V30 14 1 14 15
M  V30 15 1 15 16
M  V30 16 1 16 17
M  V30 17 1 16 18
M  V30 18 1 18 19
M  V30 19 2 19 20
M  V30 20 1 20 21
M  V30 21 2 21 22
M  V30 22 1 22 23
M  V30 23 1 22 24
M  V30 24 1 24 25
M  V30 25 1 25 26
M  V30 26 1 25 27
M  V30 27 1 25 28
M  V30 28 2 24 29
M  V30 29 2 13 30
M  V30 30 1 8 31
M  V30 31 2 31 32
M  V30 32 1 32 2
M  V30 33 1 32 5
M  V30 34 1 30 9
M  V30 35 1 29 19
M  V30 36 1 1 33
M  V30 37 1 1 34
M  V30 38 1 1 35
M  V30 39 1 4 36
M  V30 40 1 6 37
M  V30 41 1 7 38
M  V30 42 1 10 39
M  V30 43 1 12 40
M  V30 44 1 15 41
M  V30 45 1 15 42
M  V30 46 1 16 43 CFG=1
M  V30 47 1 17 44
M  V30 48 1 17 45
M  V30 49 1 18 46
M  V30 50 1 18 47
M  V30 51 1 20 48
M  V30 52 1 21 49
M  V30 53 1 29 50
M  V30 54 1 30 51
M  V30 55 1 31 52
M  V30 END BOND
M  V30 END CTAB
M  END
>  <Dataset>  (428) 
ChEMBL_Kinases

>  <Ligand_Instance>  (428) 
nan

>  <PDB_ID>  (428) 
nan

>  <Standardized_SMILES>  (428) 
Cc1n[nH]c2ccc(-c3cncc(OC[C@@H](N)Cc4ccc(F)c(C(F)(F)F)c4)c3)cc12

>  <Name>  (428) 
nan

>  <Pocket>  (428) 
nan

>  <ATP_Site>  (428) 
nan

>  <Peripheral>  (428) 
nan

>  <Num_H_Atoms_ProtBoundConf>  (428) 
nan

>  <Num_Resolved_Atoms>  (428) 
nan

>  <Num_Not_Resolved_Atoms>  (428) 
nan

$$$$
CHEMBL226626
     RDKit          3D

  0  0  0  0  0  0  0  0  0  0999 V3000
M  V30 BEGIN CTAB
M  V30 COUNTS 55 58 0 0 0
M  V30 BEGIN ATOM
M  V30 1 C 1.930170 -2.203469 3.650566 0
M  V30 2 C 3.299916 -2.115301 3.106764 0
M  V30 3 N 4.376141 -2.782221 3.504994 0
M  V30 4 N 5.423361 -2.425729 2.764784 0
M  V30 5 C 5.026379 -1.508712 1.865169 0
M  V30 6 C 5.639300 -0.793246 0.863320 0
M  V30 7 C 4.947577 0.117590 0.066457 0
M  V30 8 C 3.599358 0.344017 0.250745 0
M  V30 9 C 2.832918 1.280231 -0.548784 0
M  V30 10 C 3.261725 2.443886 -1.117174 0
M  V30 11 N 2.438502 3.225380 -1.841394 0
M  V30 12 C 1.133249 2.855242 -2.020994 0
M  V30 13 C 0.601586 1.669232 -1.471295 0
M  V30 14 O -0.683098 1.627146 -1.841089 0
M  V30 15 C -1.754176 0.809536 -1.691376 0
M  V30 16 C -1.717784 -0.568916 -2.230908 0 CFG=1
M  V30 17 N -0.724679 -1.450950 -1.743813 0
M  V30 18 C -3.103105 -1.205852 -2.032692 0
M  V30 19 C -3.440375 -1.239056 -0.586779 0
M  V30 20 C -3.042983 -2.354805 0.142190 0
M  V30 21 C -3.290468 -2.518859 1.489717 0
M  V30 22 C -2.838168 -3.737593 2.219318 0
M  V30 23 F -3.050642 -4.822106 1.407798 0
M  V30 24 F -1.487715 -3.609223 2.536780 0
M  V30 25 F -3.553620 -3.855101 3.414930 0
M  V30 26 C -3.980807 -1.509000 2.170635 0
M  V30 27 C -4.381515 -0.396285 1.461647 0
M  V30 28 C -5.114748 0.679299 2.182205 0
M  V30 29 F -5.988555 0.166668 3.116026 0
M  V30 30 F -4.169423 1.508641 2.750702 0
M  V30 31 F -5.787242 1.450890 1.230600 0
M  V30 32 C -4.119138 -0.254812 0.101267 0
M  V30 33 C 1.517764 0.940376 -0.749528 0
M  V30 34 C 3.003911 -0.388393 1.265925 0
M  V30 35 C 3.664178 -1.288588 2.061064 0
M  V30 36 H 1.676851 -3.272443 3.832978 0
M  V30 37 H 1.923477 -1.698476 4.637674 0
M  V30 38 H 1.190625 -1.733142 2.954052 0
M  V30 39 H 6.391091 -2.806329 2.877076 0
M  V30 40 H 6.680878 -0.950606 0.701322 0
M  V30 41 H 5.465641 0.660132 -0.710228 0
M  V30 42 H 4.306320 2.693364 -0.945252 0
M  V30 43 H 0.671823 3.637134 -2.633885 0
M  V30 44 H -2.015212 0.802125 -0.581268 0
M  V30 45 H -2.659407 1.345594 -2.123688 0
M  V30 46 H -1.540682 -0.469413 -3.344808 0
M  V30 47 H -0.928404 -2.403816 -2.117360 0
M  V30 48 H -0.699246 -1.555349 -0.706067 0
M  V30 49 H -3.082446 -2.245265 -2.401402 0
M  V30 50 H -3.812002 -0.605859 -2.626604 0
M  V30 51 H -2.508176 -3.152230 -0.353994 0
M  V30 52 H -4.160512 -1.662949 3.222811 0
M  V30 53 H -4.426546 0.599399 -0.444938 0
M  V30 54 H 1.046480 0.057443 -0.350749 0
M  V30 55 H 1.956738 -0.270167 1.473799 0
M  V30 END ATOM
M  V30 BEGIN BOND
M  V30 1 1 1 2
M  V30 2 2 2 3
M  V30 3 1 3 4
M  V30 4 1 4 5
M  V30 5 2 5 6
M  V30 6 1 6 7
M  V30 7 2 7 8
M  V30 8 1 8 9
M  V30 9 2 9 10
M  V30 10 1 10 11
M  V30 11 2 11 12
M  V30 12 1 12 13
M  V30 13 1 13 14
M  V30 14 1 14 15
M  V30 15 1 15 16
M  V30 16 1 16 17
M  V30 17 1 16 18
M  V30 18 1 18 19
M  V30 19 2 19 20
M  V30 20 1 20 21
M  V30 21 1 21 22
M  V30 22 1 22 23
M  V30 23 1 22 24
M  V30 24 1 22 25
M  V30 25 2 21 26
M  V30 26 1 26 27
M  V30 27 1 27 28
M  V30 28 1 28 29
M  V30 29 1 28 30
M  V30 30 1 28 31
M  V30 31 2 27 32
M  V30 32 2 13 33
M  V30 33 1 8 34
M  V30 34 2 34 35
M  V30 35 1 35 2
M  V30 36 1 35 5
M  V30 37 1 33 9
M  V30 38 1 32 19
M  V30 39 1 1 36
M  V30 40 1 1 37
M  V30 41 1 1 38
M  V30 42 1 4 39
M  V30 43 1 6 40
M  V30 44 1 7 41
M  V30 45 1 10 42
M  V30 46 1 12 43
M  V30 47 1 15 44
M  V30 48 1 15 45
M  V30 49 1 16 46 CFG=3
M  V30 50 1 17 47
M  V30 51 1 17 48
M  V30 52 1 18 49
M  V30 53 1 18 50
M  V30 54 1 20 51
M  V30 55 1 26 52
M  V30 56 1 32 53
M  V30 57 1 33 54
M  V30 58 1 34 55
M  V30 END BOND
M  V30 END CTAB
M  END
>  <Dataset>  (429) 
ChEMBL_Kinases

>  <Ligand_Instance>  (429) 
nan

>  <PDB_ID>  (429) 
nan

>  <Standardized_SMILES>  (429) 
Cc1n[nH]c2ccc(-c3cncc(OC[C@@H](N)Cc4cc(C(F)(F)F)cc(C(F)(F)F)c4)c3)cc12

>  <Name>  (429) 
nan

>  <Pocket>  (429) 
nan

>  <ATP_Site>  (429) 
nan

>  <Peripheral>  (429) 
nan

>  <Num_H_Atoms_ProtBoundConf>  (429) 
nan

>  <Num_Resolved_Atoms>  (429) 
nan

>  <Num_Not_Resolved_Atoms>  (429) 
nan

$$$$
CHEMBL226625
     RDKit          3D

  0  0  0  0  0  0  0  0  0  0999 V3000
M  V30 BEGIN CTAB
M  V30 COUNTS 52 55 0 0 0
M  V30 BEGIN ATOM
M  V30 1 C -6.572352 -0.974739 -3.410821 0
M  V30 2 C -5.647979 -2.016898 -2.880007 0
M  V30 3 N -5.638414 -3.295901 -3.307010 0
M  V30 4 N -4.710111 -3.976094 -2.648921 0
M  V30 5 C -4.115798 -3.123109 -1.788285 0
M  V30 6 C -3.096192 -3.301050 -0.871619 0
M  V30 7 C -2.673509 -2.233072 -0.102402 0
M  V30 8 C -3.239630 -0.972051 -0.215162 0
M  V30 9 C -2.800187 0.164624 0.593112 0
M  V30 10 C -3.573324 1.219563 1.024224 0
M  V30 11 N -3.031201 2.214709 1.774546 0
M  V30 12 C -1.697222 2.141996 2.090573 0
M  V30 13 C -0.853719 1.086605 1.677740 0
M  V30 14 O 0.344668 1.415847 2.202583 0
M  V30 15 C 1.601958 0.920181 2.224122 0
M  V30 16 C 2.400530 0.785540 0.985523 0 CFG=1
M  V30 17 N 3.710966 0.212137 1.349852 0
M  V30 18 C 1.871935 0.008503 -0.144090 0
M  V30 19 C 2.855247 -0.001166 -1.293604 0
M  V30 20 C 3.825923 -0.956752 -1.455888 0
M  V30 21 C 4.716699 -0.960140 -2.499416 0
M  V30 22 C 4.651351 0.039468 -3.446536 0
M  V30 23 C 3.690641 1.005515 -3.306769 0
M  V30 24 C 3.651606 2.078211 -4.359557 0
M  V30 25 F 4.654606 3.014101 -4.084585 0
M  V30 26 F 2.410541 2.693216 -4.281260 0
M  V30 27 F 3.889992 1.514529 -5.597496 0
M  V30 28 C 2.796116 1.007850 -2.257685 0
M  V30 29 C -1.465385 0.118318 0.925708 0
M  V30 30 C -4.270752 -0.776937 -1.136936 0
M  V30 31 C -4.680336 -1.853880 -1.896695 0
M  V30 32 H -7.592317 -1.187667 -3.001374 0
M  V30 33 H -6.588981 -0.939642 -4.517634 0
M  V30 34 H -6.262789 0.028865 -3.028665 0
M  V30 35 H -4.442606 -4.995879 -2.739901 0
M  V30 36 H -2.614015 -4.262633 -0.737122 0
M  V30 37 H -1.874441 -2.395941 0.607914 0
M  V30 38 H -4.600564 1.140832 0.699040 0
M  V30 39 H -1.534446 3.055004 2.688546 0
M  V30 40 H 1.708955 -0.054201 2.791975 0
M  V30 41 H 2.220577 1.615130 2.892950 0
M  V30 42 H 2.689791 1.814126 0.588155 0
M  V30 43 H 3.567556 -0.816139 1.444298 0
M  V30 44 H 4.342661 0.375934 0.542887 0
M  V30 45 H 1.671289 -1.053383 0.100200 0
M  V30 46 H 0.948473 0.417164 -0.605204 0
M  V30 47 H 3.902377 -1.753600 -0.731096 0
M  V30 48 H 5.461485 -1.737032 -2.579105 0
M  V30 49 H 5.339248 0.063628 -4.280125 0
M  V30 50 H 2.044876 1.805621 -2.191595 0
M  V30 51 H -0.756698 -0.628435 0.678632 0
M  V30 52 H -4.759409 0.176814 -1.280120 0
M  V30 END ATOM
M  V30 BEGIN BOND
M  V30 1 1 1 2
M  V30 2 2 2 3
M  V30 3 1 3 4
M  V30 4 1 4 5
M  V30 5 2 5 6
M  V30 6 1 6 7
M  V30 7 2 7 8
M  V30 8 1 8 9
M  V30 9 2 9 10
M  V30 10 1 10 11
M  V30 11 2 11 12
M  V30 12 1 12 13
M  V30 13 1 13 14
M  V30 14 1 14 15
M  V30 15 1 15 16
M  V30 16 1 16 17
M  V30 17 1 16 18
M  V30 18 1 18 19
M  V30 19 2 19 20
M  V30 20 1 20 21
M  V30 21 2 21 22
M  V30 22 1 22 23
M  V30 23 1 23 24
M  V30 24 1 24 25
M  V30 25 1 24 26
M  V30 26 1 24 27
M  V30 27 2 23 28
M  V30 28 2 13 29
M  V30 29 1 8 30
M  V30 30 2 30 31
M  V30 31 1 31 2
M  V30 32 1 31 5
M  V30 33 1 29 9
M  V30 34 1 28 19
M  V30 35 1 1 32
M  V30 36 1 1 33
M  V30 37 1 1 34
M  V30 38 1 4 35
M  V30 39 1 6 36
M  V30 40 1 7 37
M  V30 41 1 10 38
M  V30 42 1 12 39
M  V30 43 1 15 40
M  V30 44 1 15 41
M  V30 45 1 16 42 CFG=3
M  V30 46 1 17 43
M  V30 47 1 17 44
M  V30 48 1 18 45
M  V30 49 1 18 46
M  V30 50 1 20 47
M  V30 51 1 21 48
M  V30 52 1 22 49
M  V30 53 1 28 50
M  V30 54 1 29 51
M  V30 55 1 30 52
M  V30 END BOND
M  V30 END CTAB
M  END
>  <Dataset>  (430) 
ChEMBL_Kinases

>  <Ligand_Instance>  (430) 
nan

>  <PDB_ID>  (430) 
nan

>  <Standardized_SMILES>  (430) 
Cc1n[nH]c2ccc(-c3cncc(OC[C@@H](N)Cc4cccc(C(F)(F)F)c4)c3)cc12

>  <Name>  (430) 
nan

>  <Pocket>  (430) 
nan

>  <ATP_Site>  (430) 
nan

>  <Peripheral>  (430) 
nan

>  <Num_H_Atoms_ProtBoundConf>  (430) 
nan

>  <Num_Resolved_Atoms>  (430) 
nan

>  <Num_Not_Resolved_Atoms>  (430) 
nan

$$$$
CHEMBL223312
     RDKit          3D

  0  0  0  0  0  0  0  0  0  0999 V3000
M  V30 BEGIN CTAB
M  V30 COUNTS 55 58 0 0 0
M  V30 BEGIN ATOM
M  V30 1 N 5.692172 4.331971 5.085415 0
M  V30 2 C 5.498573 3.566841 4.232730 0
M  V30 3 C 5.267410 2.620363 3.179043 0
M  V30 4 N 6.054848 2.493594 2.097249 0
M  V30 5 C 5.783635 1.571656 1.123838 0
M  V30 6 C 4.688319 0.798843 1.306256 0
M  V30 7 N 3.902200 0.912145 2.369737 0
M  V30 8 C 4.160834 1.812744 3.325634 0
M  V30 9 O 3.254077 1.867407 4.437234 0
M  V30 10 C 1.956206 1.327817 4.089383 0
M  V30 11 C 1.410809 2.185781 2.962473 0
M  V30 12 C 0.273631 1.444932 2.323842 0
M  V30 13 C -0.283875 2.172173 1.102920 0
M  V30 14 C -1.100396 1.058319 0.370001 0
M  V30 15 O -0.088664 0.115797 0.087826 0
M  V30 16 C -0.159596 -1.086565 -0.538892 0
M  V30 17 C -1.411900 -1.629953 -0.713812 0
M  V30 18 C -1.487569 -2.849859 -1.347725 0
M  V30 19 O -2.767593 -3.371359 -1.508611 0
M  V30 20 C -3.932387 -2.739945 -1.073663 0
M  V30 21 C -5.160175 -3.487658 -1.357616 0
M  V30 22 C -5.903053 -3.365032 -2.501686 0
M  V30 23 C -7.051732 -4.108986 -2.692143 0
M  V30 24 N -7.462351 -4.974830 -1.745798 0
M  V30 25 C -6.732500 -5.099413 -0.614832 0
M  V30 26 C -5.567422 -4.375385 -0.370086 0
M  V30 27 C -0.417942 -3.561430 -1.815830 0
M  V30 28 Cl -0.707726 -5.098740 -2.597350 0
M  V30 29 C 0.821551 -2.965361 -1.612379 0
M  V30 30 C 0.950106 -1.718597 -0.968994 0
M  V30 31 N 2.313580 -1.437942 -0.940252 0
M  V30 32 C 3.378068 -0.775041 -0.349493 0
M  V30 33 O 2.462984 -0.352776 0.393434 0
M  V30 34 N 4.466706 -0.112440 0.235336 0
M  V30 35 H 6.456017 1.513322 0.268115 0
M  V30 36 H 1.298725 1.363792 4.956862 0
M  V30 37 H 2.147282 0.285415 3.772052 0
M  V30 38 H 2.183474 2.413978 2.222312 0
M  V30 39 H 1.057327 3.121566 3.461456 0
M  V30 40 H -0.611826 1.430467 3.041475 0
M  V30 41 H 0.524761 0.422229 2.035661 0
M  V30 42 H -0.958918 2.973177 1.386368 0
M  V30 43 H 0.521666 2.432573 0.393343 0
M  V30 44 H -1.809327 0.629852 1.071119 0
M  V30 45 H -1.515962 1.484628 -0.559156 0
M  V30 46 H -2.289714 -1.115518 -0.366415 0
M  V30 47 H -4.046106 -1.710170 -1.502212 0
M  V30 48 H -3.818777 -2.563426 0.026317 0
M  V30 49 H -5.510743 -2.654191 -3.209086 0
M  V30 50 H -7.613337 -3.986582 -3.607359 0
M  V30 51 H -7.076405 -5.805024 0.144887 0
M  V30 52 H -5.012642 -4.505419 0.549123 0
M  V30 53 H 1.617882 -3.614980 -2.024466 0
M  V30 54 H 3.063784 -1.764659 -1.551133 0
M  V30 55 H 5.237089 -0.461038 -0.375206 0
M  V30 END ATOM
M  V30 BEGIN BOND
M  V30 1 3 1 2
M  V30 2 1 2 3
M  V30 3 2 3 4
M  V30 4 1 4 5
M  V30 5 2 5 6
M  V30 6 1 6 7
M  V30 7 2 7 8
M  V30 8 1 8 9
M  V30 9 1 9 10
M  V30 10 1 10 11
M  V30 11 1 11 12
M  V30 12 1 12 13
M  V30 13 1 13 14
M  V30 14 1 14 15
M  V30 15 1 15 16
M  V30 16 2 16 17
M  V30 17 1 17 18
M  V30 18 1 18 19
M  V30 19 1 19 20
M  V30 20 1 20 21
M  V30 21 2 21 22
M  V30 22 1 22 23
M  V30 23 2 23 24
M  V30 24 1 24 25
M  V30 25 2 25 26
M  V30 26 2 18 27
M  V30 27 1 27 28
M  V30 28 1 27 29
M  V30 29 2 29 30
M  V30 30 1 30 31
M  V30 31 1 31 32
M  V30 32 2 32 33
M  V30 33 1 32 34
M  V30 34 1 8 3
M  V30 35 1 30 16
M  V30 36 1 34 6
M  V30 37 1 26 21
M  V30 38 1 5 35
M  V30 39 1 10 36
M  V30 40 1 10 37
M  V30 41 1 11 38
M  V30 42 1 11 39
M  V30 43 1 12 40
M  V30 44 1 12 41
M  V30 45 1 13 42
M  V30 46 1 13 43
M  V30 47 1 14 44
M  V30 48 1 14 45
M  V30 49 1 17 46
M  V30 50 1 20 47
M  V30 51 1 20 48
M  V30 52 1 22 49
M  V30 53 1 23 50
M  V30 54 1 25 51
M  V30 55 1 26 52
M  V30 56 1 29 53
M  V30 57 1 31 54
M  V30 58 1 34 55
M  V30 END BOND
M  V30 END CTAB
M  END
>  <Dataset>  (431) 
ChEMBL_Kinases

>  <Ligand_Instance>  (431) 
nan

>  <PDB_ID>  (431) 
nan

>  <Standardized_SMILES>  (431) 
N#Cc1ncc2nc1OCCCCCOc1cc(OCc3ccncc3)c(Cl)cc1NC(=O)N2

>  <Name>  (431) 
nan

>  <Pocket>  (431) 
nan

>  <ATP_Site>  (431) 
nan

>  <Peripheral>  (431) 
nan

>  <Num_H_Atoms_ProtBoundConf>  (431) 
nan

>  <Num_Resolved_Atoms>  (431) 
nan

>  <Num_Not_Resolved_Atoms>  (431) 
nan

$$$$
CHEMBL226345
     RDKit          3D

  0  0  0  0  0  0  0  0  0  0999 V3000
M  V30 BEGIN CTAB
M  V30 COUNTS 15 16 0 0 0
M  V30 BEGIN ATOM
M  V30 1 N -0.098674 -0.411781 -0.763102 0
M  V30 2 C 0.947938 -0.268746 0.176210 0
M  V30 3 N 2.221889 -0.666421 -0.014396 0
M  V30 4 C 3.140144 -0.479657 0.952784 0
M  V30 5 N 2.890363 0.087684 2.131969 0
M  V30 6 C 1.638837 0.524128 2.426020 0
M  V30 7 N 1.049921 1.121826 3.479853 0
M  V30 8 C -0.239314 1.302290 3.154872 0
M  V30 9 N -0.507879 0.837435 1.914769 0
M  V30 10 C 0.624137 0.334186 1.395610 0
M  V30 11 H -0.021448 0.104074 -1.687252 0
M  V30 12 H -0.928300 -1.014154 -0.546298 0
M  V30 13 H 2.440280 -1.109248 -0.921189 0
M  V30 14 H 4.152682 -0.815877 0.754335 0
M  V30 15 H -1.019816 1.753100 3.755135 0
M  V30 END ATOM
M  V30 BEGIN BOND
M  V30 1 1 1 2
M  V30 2 1 2 3
M  V30 3 1 3 4
M  V30 4 2 4 5
M  V30 5 1 5 6
M  V30 6 2 6 7
M  V30 7 1 7 8
M  V30 8 2 8 9
M  V30 9 1 9 10
M  V30 10 2 10 2
M  V30 11 1 10 6
M  V30 12 1 1 11
M  V30 13 1 1 12
M  V30 14 1 3 13
M  V30 15 1 4 14
M  V30 16 1 8 15
M  V30 END BOND
M  V30 END CTAB
M  END
>  <Dataset>  (432) 
ChEMBL_Kinases

>  <Ligand_Instance>  (432) 
nan

>  <PDB_ID>  (432) 
nan

>  <Standardized_SMILES>  (432) 
Nc1[nH]cnc2ncnc1-2

>  <Name>  (432) 
ADENINE

>  <Pocket>  (432) 
nan

>  <ATP_Site>  (432) 
nan

>  <Peripheral>  (432) 
nan

>  <Num_H_Atoms_ProtBoundConf>  (432) 
nan

>  <Num_Resolved_Atoms>  (432) 
nan

>  <Num_Not_Resolved_Atoms>  (432) 
nan

$$$$
CHEMBL226350
     RDKit          3D

  0  0  0  0  0  0  0  0  0  0999 V3000
M  V30 BEGIN CTAB
M  V30 COUNTS 43 47 0 0 0
M  V30 BEGIN ATOM
M  V30 1 O -1.833482 -4.521924 -4.382704 0
M  V30 2 C -1.506336 -4.876939 -3.198155 0
M  V30 3 N -1.534867 -6.201538 -2.677881 0
M  V30 4 C -1.771476 -6.325068 -1.251647 0
M  V30 5 C -0.737809 -5.505591 -0.511172 0
M  V30 6 C -0.707903 -4.112009 -1.057730 0
M  V30 7 N -0.343211 -2.980311 -0.439562 0
M  V30 8 C -0.441473 -1.911605 -1.237702 0
M  V30 9 C -0.143916 -0.506190 -0.955734 0
M  V30 10 C -0.312971 0.478595 -1.936638 0
M  V30 11 C 0.000879 1.764536 -1.549104 0
M  V30 12 N 0.443824 2.116266 -0.328823 0
M  V30 13 C 0.614972 1.170115 0.640780 0
M  V30 14 C 1.095964 1.551896 1.965623 0
M  V30 15 C 1.302621 0.678498 3.013200 0
M  V30 16 C 1.759328 1.087927 4.249068 0
M  V30 17 C 2.031829 2.419335 4.484926 0
M  V30 18 C 2.483187 2.725345 5.751828 0
M  V30 19 C 2.750909 4.080250 5.961955 0
M  V30 20 C 2.579431 5.038477 4.984948 0
M  V30 21 C 2.122508 4.624081 3.750689 0
M  V30 22 C 1.828136 3.298297 3.443982 0
M  V30 23 C 1.373439 2.879457 2.218772 0
M  V30 24 C 0.313773 -0.114079 0.292048 0
M  V30 25 C -0.899372 -2.373861 -2.454573 0
M  V30 26 C -1.069176 -3.739716 -2.356659 0
M  V30 27 H -1.376953 -6.934821 -3.413342 0
M  V30 28 H -1.691917 -7.370246 -0.914193 0
M  V30 29 H -2.757657 -5.882000 -0.966658 0
M  V30 30 H -1.070382 -5.460114 0.566037 0
M  V30 31 H 0.275493 -5.929877 -0.594647 0
M  V30 32 H -0.019442 -2.891810 0.530565 0
M  V30 33 H -0.666580 0.223172 -2.922905 0
M  V30 34 H -0.131140 2.535849 -2.316006 0
M  V30 35 H 1.095493 -0.365307 2.848741 0
M  V30 36 H 1.899412 0.329612 5.035758 0
M  V30 37 H 2.612912 1.967794 6.505955 0
M  V30 38 H 3.106821 4.355191 6.945483 0
M  V30 39 H 2.785620 6.087044 5.144520 0
M  V30 40 H 1.979559 5.371531 2.960120 0
M  V30 41 H 1.230434 3.592536 1.443667 0
M  V30 42 H 0.425430 -0.895264 0.999906 0
M  V30 43 H -1.120941 -1.856914 -3.383944 0
M  V30 END ATOM
M  V30 BEGIN BOND
M  V30 1 2 1 2
M  V30 2 1 2 3
M  V30 3 1 3 4
M  V30 4 1 4 5
M  V30 5 1 5 6
M  V30 6 1 6 7
M  V30 7 1 7 8
M  V30 8 1 8 9
M  V30 9 2 9 10
M  V30 10 1 10 11
M  V30 11 2 11 12
M  V30 12 1 12 13
M  V30 13 1 13 14
M  V30 14 2 14 15
M  V30 15 1 15 16
M  V30 16 2 16 17
M  V30 17 1 17 18
M  V30 18 2 18 19
M  V30 19 1 19 20
M  V30 20 2 20 21
M  V30 21 1 21 22
M  V30 22 2 22 23
M  V30 23 2 13 24
M  V30 24 2 8 25
M  V30 25 1 25 26
M  V30 26 1 26 2
M  V30 27 2 26 6
M  V30 28 1 24 9
M  V30 29 1 23 14
M  V30 30 1 22 17
M  V30 31 1 3 27
M  V30 32 1 4 28
M  V30 33 1 4 29
M  V30 34 1 5 30
M  V30 35 1 5 31
M  V30 36 1 7 32
M  V30 37 1 10 33
M  V30 38 1 11 34
M  V30 39 1 15 35
M  V30 40 1 16 36
M  V30 41 1 18 37
M  V30 42 1 19 38
M  V30 43 1 20 39
M  V30 44 1 21 40
M  V30 45 1 23 41
M  V30 46 1 24 42
M  V30 47 1 25 43
M  V30 END BOND
M  V30 END CTAB
M  END
>  <Dataset>  (433) 
ChEMBL_Kinases

>  <Ligand_Instance>  (433) 
nan

>  <PDB_ID>  (433) 
nan

>  <Standardized_SMILES>  (433) 
O=C1NCCc2[nH]c(-c3ccnc(-c4ccc5ccccc5c4)c3)cc21

>  <Name>  (433) 
nan

>  <Pocket>  (433) 
nan

>  <ATP_Site>  (433) 
nan

>  <Peripheral>  (433) 
nan

>  <Num_H_Atoms_ProtBoundConf>  (433) 
nan

>  <Num_Resolved_Atoms>  (433) 
nan

>  <Num_Not_Resolved_Atoms>  (433) 
nan

$$$$
CHEMBL226351
     RDKit          3D

  0  0  0  0  0  0  0  0  0  0999 V3000
M  V30 BEGIN CTAB
M  V30 COUNTS 40 44 0 0 0
M  V30 BEGIN ATOM
M  V30 1 O 1.791291 -5.022606 2.006290 0
M  V30 2 C 2.648499 -4.653708 1.168042 0
M  V30 3 N 3.747249 -5.488277 0.779537 0
M  V30 4 C 4.276993 -5.242625 -0.555764 0
M  V30 5 C 4.593427 -3.784039 -0.751020 0
M  V30 6 C 3.435653 -2.926714 -0.330052 0
M  V30 7 N 3.145995 -1.674619 -0.769094 0
M  V30 8 C 2.026516 -1.250825 -0.149462 0
M  V30 9 C 1.396681 0.049279 -0.357830 0
M  V30 10 C 1.977843 0.922266 -1.252977 0
M  V30 11 C 1.378898 2.150004 -1.446542 0
M  V30 12 N 0.260012 2.462431 -0.768809 0
M  V30 13 C -0.285487 1.609535 0.088967 0
M  V30 14 C -1.518676 2.024758 0.798786 0
M  V30 15 C -2.250759 1.369337 1.693396 0
M  V30 16 C -3.368595 1.943450 2.233092 0
M  V30 17 C -4.263714 1.456474 3.161972 0
M  V30 18 C -5.320570 2.200069 3.566873 0
M  V30 19 C -5.611004 3.470644 3.118718 0
M  V30 20 C -4.758481 4.020368 2.188958 0
M  V30 21 C -3.675265 3.199417 1.804816 0
M  V30 22 S -2.315471 3.615567 0.563537 0
M  V30 23 C 0.253955 0.366559 0.335285 0
M  V30 24 C 1.610243 -2.261164 0.693681 0
M  V30 25 C 2.478373 -3.322197 0.597407 0
M  V30 26 H 4.079288 -6.197667 1.472044 0
M  V30 27 H 3.461110 -5.492979 -1.283687 0
M  V30 28 H 5.172972 -5.831983 -0.767519 0
M  V30 29 H 5.518823 -3.546146 -0.216290 0
M  V30 30 H 4.754862 -3.652149 -1.857687 0
M  V30 31 H 3.703944 -1.117540 -1.480995 0
M  V30 32 H 2.874770 0.721764 -1.822466 0
M  V30 33 H 1.808452 2.872834 -2.148868 0
M  V30 34 H -1.914850 0.356750 1.971982 0
M  V30 35 H -4.149644 0.471650 3.592872 0
M  V30 36 H -6.021589 1.784780 4.312126 0
M  V30 37 H -6.434334 4.103879 3.405845 0
M  V30 38 H -4.830532 4.994518 1.732050 0
M  V30 39 H -0.220601 -0.282625 1.032820 0
M  V30 40 H 0.747200 -2.266912 1.345791 0
M  V30 END ATOM
M  V30 BEGIN BOND
M  V30 1 2 1 2
M  V30 2 1 2 3
M  V30 3 1 3 4
M  V30 4 1 4 5
M  V30 5 1 5 6
M  V30 6 1 6 7
M  V30 7 1 7 8
M  V30 8 1 8 9
M  V30 9 2 9 10
M  V30 10 1 10 11
M  V30 11 2 11 12
M  V30 12 1 12 13
M  V30 13 1 13 14
M  V30 14 2 14 15
M  V30 15 1 15 16
M  V30 16 2 16 17
M  V30 17 1 17 18
M  V30 18 2 18 19
M  V30 19 1 19 20
M  V30 20 2 20 21
M  V30 21 1 21 22
M  V30 22 2 13 23
M  V30 23 2 8 24
M  V30 24 1 24 25
M  V30 25 1 25 2
M  V30 26 2 25 6
M  V30 27 1 23 9
M  V30 28 1 22 14
M  V30 29 1 21 16
M  V30 30 1 3 26
M  V30 31 1 4 27
M  V30 32 1 4 28
M  V30 33 1 5 29
M  V30 34 1 5 30
M  V30 35 1 7 31
M  V30 36 1 10 32
M  V30 37 1 11 33
M  V30 38 1 15 34
M  V30 39 1 17 35
M  V30 40 1 18 36
M  V30 41 1 19 37
M  V30 42 1 20 38
M  V30 43 1 23 39
M  V30 44 1 24 40
M  V30 END BOND
M  V30 END CTAB
M  END
>  <Dataset>  (434) 
ChEMBL_Kinases

>  <Ligand_Instance>  (434) 
nan

>  <PDB_ID>  (434) 
nan

>  <Standardized_SMILES>  (434) 
O=C1NCCc2[nH]c(-c3ccnc(-c4cc5ccccc5s4)c3)cc21

>  <Name>  (434) 
nan

>  <Pocket>  (434) 
nan

>  <ATP_Site>  (434) 
nan

>  <Peripheral>  (434) 
nan

>  <Num_H_Atoms_ProtBoundConf>  (434) 
nan

>  <Num_Resolved_Atoms>  (434) 
nan

>  <Num_Not_Resolved_Atoms>  (434) 
nan

$$$$
CHEMBL226369
     RDKit          3D

  0  0  0  0  0  0  0  0  0  0999 V3000
M  V30 BEGIN CTAB
M  V30 COUNTS 40 43 0 0 0
M  V30 BEGIN ATOM
M  V30 1 O 2.035811 -4.868433 -3.477731 0
M  V30 2 C 2.201916 -4.842622 -2.231685 0
M  V30 3 N 2.843447 -5.832979 -1.433893 0
M  V30 4 C 2.657400 -5.891180 -0.001258 0
M  V30 5 C 2.481980 -4.581374 0.671261 0
M  V30 6 C 1.817477 -3.564077 -0.186631 0
M  V30 7 N 1.273618 -2.420056 0.258329 0
M  V30 8 C 0.771919 -1.766000 -0.809130 0
M  V30 9 C 0.070115 -0.461038 -0.865743 0
M  V30 10 C -0.394235 0.085863 -2.069070 0
M  V30 11 C -1.033034 1.307448 -1.996134 0
M  V30 12 N -1.221848 1.975554 -0.843651 0
M  V30 13 C -0.788553 1.481534 0.339272 0
M  V30 14 C -1.001889 2.219814 1.580423 0
M  V30 15 C -0.596462 1.795524 2.827016 0
M  V30 16 C -0.845940 2.569400 3.948846 0
M  V30 17 C -1.501911 3.778054 3.855312 0
M  V30 18 C -1.762125 4.597690 5.071219 0
M  V30 19 F -0.587551 4.661384 5.789607 0
M  V30 20 F -2.698837 3.955732 5.882076 0
M  V30 21 F -2.154168 5.865565 4.730079 0
M  V30 22 C -1.922079 4.233148 2.620030 0
M  V30 23 C -1.654471 3.433682 1.529585 0
M  V30 24 C -0.156572 0.276451 0.279876 0
M  V30 25 C 1.007220 -2.516840 -1.944060 0
M  V30 26 C 1.669480 -3.657542 -1.556359 0
M  V30 27 H 3.449828 -6.502826 -1.962414 0
M  V30 28 H 3.566656 -6.439836 0.380548 0
M  V30 29 H 1.792360 -6.550556 0.260928 0
M  V30 30 H 3.483070 -4.244941 1.033201 0
M  V30 31 H 1.894775 -4.748379 1.620452 0
M  V30 32 H 1.206548 -2.029287 1.232849 0
M  V30 33 H -0.232100 -0.468147 -2.986224 0
M  V30 34 H -1.388804 1.722299 -2.933426 0
M  V30 35 H -0.090242 0.864656 2.906115 0
M  V30 36 H -0.525635 2.231647 4.924349 0
M  V30 37 H -2.433308 5.160375 2.492802 0
M  V30 38 H -1.987491 3.795791 0.555730 0
M  V30 39 H 0.210626 -0.171066 1.176069 0
M  V30 40 H 0.746488 -2.302880 -2.962737 0
M  V30 END ATOM
M  V30 BEGIN BOND
M  V30 1 2 1 2
M  V30 2 1 2 3
M  V30 3 1 3 4
M  V30 4 1 4 5
M  V30 5 1 5 6
M  V30 6 1 6 7
M  V30 7 1 7 8
M  V30 8 1 8 9
M  V30 9 2 9 10
M  V30 10 1 10 11
M  V30 11 2 11 12
M  V30 12 1 12 13
M  V30 13 1 13 14
M  V30 14 2 14 15
M  V30 15 1 15 16
M  V30 16 2 16 17
M  V30 17 1 17 18
M  V30 18 1 18 19
M  V30 19 1 18 20
M  V30 20 1 18 21
M  V30 21 1 17 22
M  V30 22 2 22 23
M  V30 23 2 13 24
M  V30 24 2 8 25
M  V30 25 1 25 26
M  V30 26 1 26 2
M  V30 27 2 26 6
M  V30 28 1 24 9
M  V30 29 1 23 14
M  V30 30 1 3 27
M  V30 31 1 4 28
M  V30 32 1 4 29
M  V30 33 1 5 30
M  V30 34 1 5 31
M  V30 35 1 7 32
M  V30 36 1 10 33
M  V30 37 1 11 34
M  V30 38 1 15 35
M  V30 39 1 16 36
M  V30 40 1 22 37
M  V30 41 1 23 38
M  V30 42 1 24 39
M  V30 43 1 25 40
M  V30 END BOND
M  V30 END CTAB
M  END
>  <Dataset>  (435) 
ChEMBL_Kinases

>  <Ligand_Instance>  (435) 
nan

>  <PDB_ID>  (435) 
nan

>  <Standardized_SMILES>  (435) 
O=C1NCCc2[nH]c(-c3ccnc(-c4ccc(C(F)(F)F)cc4)c3)cc21

>  <Name>  (435) 
nan

>  <Pocket>  (435) 
nan

>  <ATP_Site>  (435) 
nan

>  <Peripheral>  (435) 
nan

>  <Num_H_Atoms_ProtBoundConf>  (435) 
nan

>  <Num_Resolved_Atoms>  (435) 
nan

>  <Num_Not_Resolved_Atoms>  (435) 
nan

$$$$
CHEMBL226381
     RDKit          3D

  0  0  0  0  0  0  0  0  0  0999 V3000
M  V30 BEGIN CTAB
M  V30 COUNTS 49 52 0 0 0
M  V30 BEGIN ATOM
M  V30 1 C 1.097115 -5.700738 -0.297084 0
M  V30 2 C 2.503754 -5.238320 -0.558579 0
M  V30 3 N 3.675200 -5.893135 -0.454741 0
M  V30 4 N 4.659741 -5.051740 -0.797879 0
M  V30 5 C 4.117288 -3.856873 -1.121716 0
M  V30 6 C 4.621103 -2.642680 -1.539648 0
M  V30 7 N 3.848241 -1.573507 -1.805192 0 CHG=1 VAL=4
M  V30 8 O 4.409955 -0.389081 -2.218793 0 CHG=-1 VAL=1
M  V30 9 C 2.491322 -1.622238 -1.675825 0
M  V30 10 C 1.619352 -0.475396 -1.956994 0
M  V30 11 C 1.697696 0.364444 -3.046265 0
M  V30 12 N 0.795141 1.386068 -3.141672 0
M  V30 13 C -0.145556 1.532445 -2.154765 0
M  V30 14 C -0.263661 0.698046 -1.022156 0
M  V30 15 O -1.316782 1.223785 -0.347248 0
M  V30 16 C -1.844913 0.785569 0.859583 0
M  V30 17 C -0.855708 0.916148 1.962949 0 CFG=1
M  V30 18 N -0.442161 2.306173 2.139655 0
M  V30 19 C -1.381428 0.419961 3.292729 0
M  V30 20 C -2.574531 1.127683 3.763657 0
M  V30 21 C -2.582808 2.260282 4.557747 0
M  V30 22 C -3.793973 2.826847 4.929320 0
M  V30 23 C -5.006187 2.304657 4.537350 0
M  V30 24 C -5.024169 1.161934 3.735602 0
M  V30 25 C -3.795894 0.609590 3.374367 0
M  V30 26 C 0.666359 -0.309209 -0.979065 0
M  V30 27 C 1.983671 -2.832120 -1.258907 0
M  V30 28 C 2.747975 -3.946076 -0.978790 0
M  V30 29 H 0.696687 -5.263885 0.647403 0
M  V30 30 H 1.029970 -6.803136 -0.245411 0
M  V30 31 H 0.420439 -5.320340 -1.099125 0
M  V30 32 H 5.681966 -5.271744 -0.815940 0
M  V30 33 H 5.702901 -2.548328 -1.659942 0
M  V30 34 H 2.486527 0.135486 -3.747723 0
M  V30 35 H -0.710079 2.416598 -2.504442 0
M  V30 36 H -2.145447 -0.303057 0.821297 0
M  V30 37 H -2.805018 1.311270 1.084182 0
M  V30 38 H 0.046726 0.346590 1.751901 0
M  V30 39 H -0.406130 2.814050 1.218088 0
M  V30 40 H 0.510687 2.320471 2.584948 0
M  V30 41 H -0.540724 0.562940 4.015904 0
M  V30 42 H -1.563574 -0.676103 3.233162 0
M  V30 43 H -1.617164 2.650275 4.851763 0
M  V30 44 H -3.733587 3.716391 5.554421 0
M  V30 45 H -5.934436 2.764501 4.840101 0
M  V30 46 H -5.960314 0.729684 3.412586 0
M  V30 47 H -3.876418 -0.274337 2.752786 0
M  V30 48 H 0.498876 -0.900365 -0.103099 0
M  V30 49 H 0.904869 -2.906934 -1.144901 0
M  V30 END ATOM
M  V30 BEGIN BOND
M  V30 1 1 1 2
M  V30 2 2 2 3
M  V30 3 1 3 4
M  V30 4 1 4 5
M  V30 5 2 5 6
M  V30 6 1 6 7
M  V30 7 1 7 8
M  V30 8 2 7 9
M  V30 9 1 9 10
M  V30 10 2 10 11
M  V30 11 1 11 12
M  V30 12 2 12 13
M  V30 13 1 13 14
M  V30 14 1 14 15
M  V30 15 1 15 16
M  V30 16 1 16 17
M  V30 17 1 17 18
M  V30 18 1 17 19
M  V30 19 1 19 20
M  V30 20 2 20 21
M  V30 21 1 21 22
M  V30 22 2 22 23
M  V30 23 1 23 24
M  V30 24 2 24 25
M  V30 25 2 14 26
M  V30 26 1 9 27
M  V30 27 2 27 28
M  V30 28 1 28 2
M  V30 29 1 28 5
M  V30 30 1 26 10
M  V30 31 1 25 20
M  V30 32 1 1 29
M  V30 33 1 1 30
M  V30 34 1 1 31
M  V30 35 1 4 32
M  V30 36 1 6 33
M  V30 37 1 11 34
M  V30 38 1 13 35
M  V30 39 1 16 36
M  V30 40 1 16 37
M  V30 41 1 17 38 CFG=3
M  V30 42 1 18 39
M  V30 43 1 18 40
M  V30 44 1 19 41
M  V30 45 1 19 42
M  V30 46 1 21 43
M  V30 47 1 22 44
M  V30 48 1 23 45
M  V30 49 1 24 46
M  V30 50 1 25 47
M  V30 51 1 26 48
M  V30 52 1 27 49
M  V30 END BOND
M  V30 END CTAB
M  END
>  <Dataset>  (436) 
ChEMBL_Kinases

>  <Ligand_Instance>  (436) 
nan

>  <PDB_ID>  (436) 
nan

>  <Standardized_SMILES>  (436) 
Cc1n[nH]c2c[n+]([O-])c(-c3cncc(OC[C@@H](N)Cc4ccccc4)c3)cc12

>  <Name>  (436) 
nan

>  <Pocket>  (436) 
nan

>  <ATP_Site>  (436) 
nan

>  <Peripheral>  (436) 
nan

>  <Num_H_Atoms_ProtBoundConf>  (436) 
nan

>  <Num_Resolved_Atoms>  (436) 
nan

>  <Num_Not_Resolved_Atoms>  (436) 
nan

$$$$
CHEMBL226382
     RDKit          3D

  0  0  0  0  0  0  0  0  0  0999 V3000
M  V30 BEGIN CTAB
M  V30 COUNTS 49 52 0 0 0
M  V30 BEGIN ATOM
M  V30 1 C 1.440137 -5.721253 1.829724 0
M  V30 2 C 1.608357 -4.554731 1.273364 0
M  V30 3 C 2.613779 -4.377577 0.232297 0
M  V30 4 N 3.449945 -5.305113 -0.272170 0
M  V30 5 N 4.229995 -4.758938 -1.217293 0
M  V30 6 C 3.932256 -3.450877 -1.366378 0
M  V30 7 C 4.380243 -2.410105 -2.153609 0
M  V30 8 N 3.837702 -1.161676 -2.043670 0
M  V30 9 C 2.851191 -0.921766 -1.161261 0
M  V30 10 C 2.332685 0.439814 -1.112819 0
M  V30 11 C 2.877183 1.381158 -1.960851 0
M  V30 12 N 2.439693 2.674903 -1.968672 0
M  V30 13 C 1.452436 3.062506 -1.135153 0
M  V30 14 C 0.860159 2.161986 -0.254201 0
M  V30 15 O -0.157170 2.530917 0.614957 0
M  V30 16 C -0.774891 1.657240 1.511717 0
M  V30 17 C -1.839571 2.416856 2.295806 0 CFG=1
M  V30 18 N -2.817565 2.944534 1.365352 0
M  V30 19 C -2.506124 1.516650 3.314853 0
M  V30 20 C -3.167311 0.359156 2.694466 0
M  V30 21 C -4.498571 0.502143 2.316480 0
M  V30 22 C -5.224258 -0.510563 1.726332 0
M  V30 23 C -4.579342 -1.730657 1.504149 0
M  V30 24 C -3.250944 -1.893094 1.874364 0
M  V30 25 C -2.545290 -0.858297 2.465845 0
M  V30 26 C 1.326493 0.876871 -0.277440 0
M  V30 27 C 2.374183 -1.933768 -0.355372 0
M  V30 28 C 2.920319 -3.219787 -0.456185 0
M  V30 29 H 2.032567 -6.570103 1.536733 0
M  V30 30 H 0.696663 -5.866280 2.604271 0
M  V30 31 H 1.016340 -3.697383 1.563093 0
M  V30 32 H 4.975692 -5.263207 -1.775739 0
M  V30 33 H 5.172248 -2.597039 -2.863943 0
M  V30 34 H 3.682092 1.146171 -2.667655 0
M  V30 35 H 1.078696 4.097379 -1.118182 0
M  V30 36 H -1.273870 0.798700 1.035240 0
M  V30 37 H -0.032848 1.237272 2.230408 0
M  V30 38 H -1.408133 3.280384 2.841211 0
M  V30 39 H -3.412768 3.621415 1.880497 0
M  V30 40 H -2.307732 3.495627 0.638022 0
M  V30 41 H -1.730709 1.215654 4.047324 0
M  V30 42 H -3.237308 2.148717 3.857262 0
M  V30 43 H -5.023947 1.444090 2.479169 0
M  V30 44 H -6.267583 -0.386152 1.434453 0
M  V30 45 H -5.152225 -2.536484 1.036028 0
M  V30 46 H -2.743369 -2.853554 1.699427 0
M  V30 47 H -1.503858 -0.972596 2.760679 0
M  V30 48 H 0.885768 0.173521 0.389271 0
M  V30 49 H 1.581466 -1.740115 0.353401 0
M  V30 END ATOM
M  V30 BEGIN BOND
M  V30 1 2 1 2
M  V30 2 1 2 3
M  V30 3 2 3 4
M  V30 4 1 4 5
M  V30 5 1 5 6
M  V30 6 2 6 7
M  V30 7 1 7 8
M  V30 8 2 8 9
M  V30 9 1 9 10
M  V30 10 2 10 11
M  V30 11 1 11 12
M  V30 12 2 12 13
M  V30 13 1 13 14
M  V30 14 1 14 15
M  V30 15 1 15 16
M  V30 16 1 16 17
M  V30 17 1 17 18
M  V30 18 1 17 19
M  V30 19 1 19 20
M  V30 20 2 20 21
M  V30 21 1 21 22
M  V30 22 2 22 23
M  V30 23 1 23 24
M  V30 24 2 24 25
M  V30 25 2 14 26
M  V30 26 1 9 27
M  V30 27 2 27 28
M  V30 28 1 28 3
M  V30 29 1 28 6
M  V30 30 1 26 10
M  V30 31 1 25 20
M  V30 32 1 1 29
M  V30 33 1 1 30
M  V30 34 1 2 31
M  V30 35 1 5 32
M  V30 36 1 7 33
M  V30 37 1 11 34
M  V30 38 1 13 35
M  V30 39 1 16 36
M  V30 40 1 16 37
M  V30 41 1 17 38 CFG=1
M  V30 42 1 18 39
M  V30 43 1 18 40
M  V30 44 1 19 41
M  V30 45 1 19 42
M  V30 46 1 21 43
M  V30 47 1 22 44
M  V30 48 1 23 45
M  V30 49 1 24 46
M  V30 50 1 25 47
M  V30 51 1 26 48
M  V30 52 1 27 49
M  V30 END BOND
M  V30 END CTAB
M  END
>  <Dataset>  (437) 
ChEMBL_Kinases

>  <Ligand_Instance>  (437) 
nan

>  <PDB_ID>  (437) 
nan

>  <Standardized_SMILES>  (437) 
C=Cc1n[nH]c2cnc(-c3cncc(OC[C@@H](N)Cc4ccccc4)c3)cc12

>  <Name>  (437) 
nan

>  <Pocket>  (437) 
nan

>  <ATP_Site>  (437) 
nan

>  <Peripheral>  (437) 
nan

>  <Num_H_Atoms_ProtBoundConf>  (437) 
nan

>  <Num_Resolved_Atoms>  (437) 
nan

>  <Num_Not_Resolved_Atoms>  (437) 
nan

$$$$
CHEMBL226383
     RDKit          3D

  0  0  0  0  0  0  0  0  0  0999 V3000
M  V30 BEGIN CTAB
M  V30 COUNTS 55 59 0 0 0
M  V30 BEGIN ATOM
M  V30 1 N 0.735874 -5.495484 -0.895046 0
M  V30 2 C -0.511597 -4.887124 -0.499092 0 CFG=2
M  V30 3 C -0.702756 -4.856788 0.981760 0
M  V30 4 O 0.248255 -4.163036 1.702490 0
M  V30 5 C 0.645016 -2.874596 1.703224 0
M  V30 6 C 1.660873 -2.755640 2.667191 0
M  V30 7 N 2.294907 -1.590032 2.943035 0
M  V30 8 C 1.977955 -0.443631 2.287373 0
M  V30 9 C 0.989488 -0.552376 1.348045 0
M  V30 10 C 0.532128 0.565172 0.596718 0
M  V30 11 C 1.094683 1.848926 0.794501 0
M  V30 12 C 0.719619 3.013293 0.093561 0
M  V30 13 C 1.108776 4.371110 0.097170 0
M  V30 14 C 2.140576 4.909606 0.968282 0
M  V30 15 C 2.336321 4.718357 2.340317 0
M  V30 16 C 3.415187 5.340007 2.955922 0
M  V30 17 C 4.295714 6.138719 2.253725 0
M  V30 18 C 4.094783 6.318745 0.912089 0
M  V30 19 C 3.029760 5.709838 0.282370 0
M  V30 20 N 0.377675 5.042056 -0.820131 0
M  V30 21 N -0.451311 4.136265 -1.390038 0
M  V30 22 C -0.297091 2.868629 -0.877697 0
M  V30 23 C -0.901090 1.591614 -1.120611 0
M  V30 24 N -0.182907 1.024423 -0.245170 0
M  V30 25 C 0.325351 -1.713745 1.041465 0
M  V30 26 C -1.629146 -5.668754 -1.184314 0
M  V30 27 C -2.956600 -5.124477 -0.833791 0
M  V30 28 C -3.580188 -5.645613 0.308600 0
M  V30 29 C -4.820503 -5.260506 0.797450 0
M  V30 30 C -5.470722 -4.285243 0.083105 0
M  V30 31 C -4.922570 -3.728767 -1.044357 0
M  V30 32 C -3.688008 -4.151941 -1.481620 0
M  V30 33 H 0.658263 -6.526339 -1.043958 0
M  V30 34 H 1.544735 -5.237609 -0.288511 0
M  V30 35 H -0.503813 -3.854511 -0.887964 0
M  V30 36 H -1.692543 -4.336514 1.196382 0
M  V30 37 H -0.742380 -5.893103 1.416568 0
M  V30 38 H 2.093086 -3.521482 3.319629 0
M  V30 39 H 2.483582 0.462437 2.511364 0
M  V30 40 H 1.902783 2.087385 1.528331 0
M  V30 41 H 1.585058 4.083164 2.774521 0
M  V30 42 H 3.412989 5.081598 4.012536 0
M  V30 43 H 5.080356 6.544329 2.887618 0
M  V30 44 H 4.831029 6.957366 0.447224 0
M  V30 45 H 3.013058 5.956388 -0.784369 0
M  V30 46 H -1.132014 4.410863 -2.146088 0
M  V30 47 H -1.652008 1.550805 -1.861204 0
M  V30 48 H -0.447882 -1.872489 0.336384 0
M  V30 49 H -1.597250 -6.731730 -0.898753 0
M  V30 50 H -1.459195 -5.613569 -2.278008 0
M  V30 51 H -3.051828 -6.424454 0.869553 0
M  V30 52 H -5.190676 -5.738619 1.694507 0
M  V30 53 H -6.437005 -4.004009 0.491471 0
M  V30 54 H -5.459940 -2.964451 -1.590315 0
M  V30 55 H -3.201774 -3.755400 -2.366195 0
M  V30 END ATOM
M  V30 BEGIN BOND
M  V30 1 1 1 2
M  V30 2 1 2 3
M  V30 3 1 3 4
M  V30 4 1 4 5
M  V30 5 2 5 6
M  V30 6 1 6 7
M  V30 7 2 7 8
M  V30 8 1 8 9
M  V30 9 1 9 10
M  V30 10 2 10 11
M  V30 11 1 11 12
M  V30 12 1 12 13
M  V30 13 1 13 14
M  V30 14 2 14 15
M  V30 15 1 15 16
M  V30 16 2 16 17
M  V30 17 1 17 18
M  V30 18 2 18 19
M  V30 19 2 13 20
M  V30 20 1 20 21
M  V30 21 1 21 22
M  V30 22 1 22 23
M  V30 23 2 23 24
M  V30 24 2 9 25
M  V30 25 1 2 26
M  V30 26 1 26 27
M  V30 27 2 27 28
M  V30 28 1 28 29
M  V30 29 2 29 30
M  V30 30 1 30 31
M  V30 31 2 31 32
M  V30 32 1 25 5
M  V30 33 1 32 27
M  V30 34 1 24 10
M  V30 35 2 22 12
M  V30 36 1 19 14
M  V30 37 1 1 33
M  V30 38 1 1 34
M  V30 39 1 2 35 CFG=3
M  V30 40 1 3 36
M  V30 41 1 3 37
M  V30 42 1 6 38
M  V30 43 1 8 39
M  V30 44 1 11 40
M  V30 45 1 15 41
M  V30 46 1 16 42
M  V30 47 1 17 43
M  V30 48 1 18 44
M  V30 49 1 19 45
M  V30 50 1 21 46
M  V30 51 1 23 47
M  V30 52 1 25 48
M  V30 53 1 26 49
M  V30 54 1 26 50
M  V30 55 1 28 51
M  V30 56 1 29 52
M  V30 57 1 30 53
M  V30 58 1 31 54
M  V30 59 1 32 55
M  V30 END BOND
M  V30 END CTAB
M  END
>  <Dataset>  (438) 
ChEMBL_Kinases

>  <Ligand_Instance>  (438) 
nan

>  <PDB_ID>  (438) 
nan

>  <Standardized_SMILES>  (438) 
N[C@H](COc1cncc(-c2cc3c(-c4ccccc4)n[nH]c3cn2)c1)Cc1ccccc1

>  <Name>  (438) 
nan

>  <Pocket>  (438) 
nan

>  <ATP_Site>  (438) 
nan

>  <Peripheral>  (438) 
nan

>  <Num_H_Atoms_ProtBoundConf>  (438) 
nan

>  <Num_Resolved_Atoms>  (438) 
nan

>  <Num_Not_Resolved_Atoms>  (438) 
nan

$$$$
CHEMBL226577
     RDKit          3D

  0  0  0  0  0  0  0  0  0  0999 V3000
M  V30 BEGIN CTAB
M  V30 COUNTS 53 56 0 0 0
M  V30 BEGIN ATOM
M  V30 1 C 4.692395 4.632519 -0.959666 0
M  V30 2 O 3.994686 3.403453 -0.739616 0
M  V30 3 C 4.629803 2.198222 -0.622654 0
M  V30 4 C 6.003594 2.105809 -0.709514 0
M  V30 5 C 6.724541 0.922264 -0.601690 0
M  V30 6 C 6.018327 -0.258118 -0.391219 0
M  V30 7 F 6.651669 -1.447638 -0.275380 0
M  V30 8 C 4.650867 -0.146265 -0.307335 0
M  V30 9 C 3.910737 1.016141 -0.410728 0
M  V30 10 C 2.422689 1.063739 -0.309946 0
M  V30 11 C 1.989316 1.565450 1.016081 0 CFG=2
M  V30 12 N 2.468082 0.694514 2.105533 0
M  V30 13 C 0.573845 1.968803 1.188684 0
M  V30 14 O -0.412113 1.048157 1.248785 0
M  V30 15 C -0.920480 0.131677 0.408807 0
M  V30 16 C -0.766187 -0.343398 -0.867702 0
M  V30 17 N -1.475188 -1.329360 -1.434999 0
M  V30 18 C -2.453496 -1.959272 -0.738305 0
M  V30 19 C -2.710411 -1.566184 0.576761 0
M  V30 20 C -3.776854 -2.300809 1.244110 0
M  V30 21 C -4.601291 -1.748879 2.214448 0
M  V30 22 C -5.618492 -2.451142 2.853127 0
M  V30 23 C -5.811864 -3.781352 2.491872 0
M  V30 24 N -6.698213 -4.718556 2.917708 0
M  V30 25 N -6.444980 -5.829329 2.239775 0
M  V30 26 C -5.424034 -5.661741 1.381401 0
M  V30 27 C -4.884223 -6.708504 0.470279 0
M  V30 28 C -5.006443 -4.349392 1.532105 0
M  V30 29 C -4.014644 -3.620497 0.926882 0
M  V30 30 C -1.938100 -0.527771 1.124078 0
M  V30 31 H 5.650362 4.689439 -0.423819 0
M  V30 32 H 4.045149 5.449571 -0.609396 0
M  V30 33 H 4.886757 4.706627 -2.062505 0
M  V30 34 H 6.654038 2.979719 -0.874461 0
M  V30 35 H 7.793814 0.874087 -0.671780 0
M  V30 36 H 4.061639 -1.059674 -0.141090 0
M  V30 37 H 1.966251 1.543413 -1.169071 0
M  V30 38 H 2.118821 -0.026327 -0.354033 0
M  V30 39 H 2.588827 2.525215 1.205346 0
M  V30 40 H 2.378098 1.274859 2.993129 0
M  V30 41 H 1.791352 -0.099520 2.193790 0
M  V30 42 H 0.531927 2.593401 2.127140 0
M  V30 43 H 0.361555 2.704471 0.345514 0
M  V30 44 H -0.000161 0.189646 -1.387065 0
M  V30 45 H -2.946232 -2.731434 -1.310225 0
M  V30 46 H -4.423792 -0.698935 2.477062 0
M  V30 47 H -6.237947 -1.972390 3.608241 0
M  V30 48 H -7.435916 -4.613001 3.629965 0
M  V30 49 H -4.793202 -7.698509 0.961554 0
M  V30 50 H -3.912900 -6.400418 0.032321 0
M  V30 51 H -5.576639 -6.797373 -0.402324 0
M  V30 52 H -3.389373 -4.067388 0.180013 0
M  V30 53 H -2.299905 -0.382000 2.147617 0
M  V30 END ATOM
M  V30 BEGIN BOND
M  V30 1 1 1 2
M  V30 2 1 2 3
M  V30 3 2 3 4
M  V30 4 1 4 5
M  V30 5 2 5 6
M  V30 6 1 6 7
M  V30 7 1 6 8
M  V30 8 2 8 9
M  V30 9 1 9 10
M  V30 10 1 10 11
M  V30 11 1 11 12
M  V30 12 1 11 13
M  V30 13 1 13 14
M  V30 14 1 14 15
M  V30 15 2 15 16
M  V30 16 1 16 17
M  V30 17 2 17 18
M  V30 18 1 18 19
M  V30 19 1 19 20
M  V30 20 2 20 21
M  V30 21 1 21 22
M  V30 22 2 22 23
M  V30 23 1 23 24
M  V30 24 1 24 25
M  V30 25 2 25 26
M  V30 26 1 26 27
M  V30 27 1 26 28
M  V30 28 2 28 29
M  V30 29 2 19 30
M  V30 30 1 9 3
M  V30 31 1 30 15
M  V30 32 1 29 20
M  V30 33 1 28 23
M  V30 34 1 1 31
M  V30 35 1 1 32
M  V30 36 1 1 33
M  V30 37 1 4 34
M  V30 38 1 5 35
M  V30 39 1 8 36
M  V30 40 1 10 37
M  V30 41 1 10 38
M  V30 42 1 11 39 CFG=1
M  V30 43 1 12 40
M  V30 44 1 12 41
M  V30 45 1 13 42
M  V30 46 1 13 43
M  V30 47 1 16 44
M  V30 48 1 18 45
M  V30 49 1 21 46
M  V30 50 1 22 47
M  V30 51 1 24 48
M  V30 52 1 27 49
M  V30 53 1 27 50
M  V30 54 1 27 51
M  V30 55 1 29 52
M  V30 56 1 30 53
M  V30 END BOND
M  V30 END CTAB
M  END
>  <Dataset>  (439) 
ChEMBL_Kinases

>  <Ligand_Instance>  (439) 
nan

>  <PDB_ID>  (439) 
nan

>  <Standardized_SMILES>  (439) 
COc1ccc(F)cc1C[C@H](N)COc1cncc(-c2ccc3[nH]nc(C)c3c2)c1

>  <Name>  (439) 
nan

>  <Pocket>  (439) 
nan

>  <ATP_Site>  (439) 
nan

>  <Peripheral>  (439) 
nan

>  <Num_H_Atoms_ProtBoundConf>  (439) 
nan

>  <Num_Resolved_Atoms>  (439) 
nan

>  <Num_Not_Resolved_Atoms>  (439) 
nan

$$$$
CHEMBL226420
     RDKit          3D

  0  0  0  0  0  0  0  0  0  0999 V3000
M  V30 BEGIN CTAB
M  V30 COUNTS 37 40 0 0 0
M  V30 BEGIN ATOM
M  V30 1 O 0.691383 -3.548464 4.151112 0
M  V30 2 C 1.719768 -3.591041 3.392203 0
M  V30 3 N 2.833917 -4.464234 3.637403 0
M  V30 4 C 3.514711 -4.877565 2.405200 0
M  V30 5 C 4.001613 -3.650385 1.662742 0
M  V30 6 C 2.863647 -2.733858 1.380658 0
M  V30 7 N 2.661140 -1.837956 0.384799 0
M  V30 8 C 1.461728 -1.260612 0.588970 0
M  V30 9 C 0.897161 -0.233979 -0.289067 0
M  V30 10 C 1.619707 0.176429 -1.390317 0
M  V30 11 C 1.002284 1.146221 -2.153271 0
M  V30 12 N -0.196346 1.681753 -1.896017 0
M  V30 13 C -0.913561 1.287839 -0.820274 0
M  V30 14 C -2.224221 1.864562 -0.527667 0
M  V30 15 C -3.034331 1.533865 0.539950 0
M  V30 16 C -4.252589 2.112858 0.756469 0
M  V30 17 C -4.711781 3.071886 -0.117916 0
M  V30 18 C -3.953050 3.451089 -1.207485 0
M  V30 19 Cl -4.550103 4.670340 -2.308615 0
M  V30 20 C -2.719936 2.829362 -1.380608 0
M  V30 21 C -0.337158 0.324918 -0.033729 0
M  V30 22 C 0.857505 -1.768668 1.722784 0
M  V30 23 C 1.762521 -2.703398 2.212787 0
M  V30 24 H 3.018734 -4.692781 4.640158 0
M  V30 25 H 2.821902 -5.455355 1.774662 0
M  V30 26 H 4.381423 -5.514584 2.649877 0
M  V30 27 H 4.490170 -3.981585 0.734429 0
M  V30 28 H 4.721377 -3.143320 2.364981 0
M  V30 29 H 3.362630 -1.679455 -0.374885 0
M  V30 30 H 2.591529 -0.240075 -1.621743 0
M  V30 31 H 1.541498 1.498266 -3.034173 0
M  V30 32 H -2.659345 0.779865 1.216359 0
M  V30 33 H -4.869576 1.835808 1.602077 0
M  V30 34 H -5.673000 3.519415 0.064924 0
M  V30 35 H -2.183839 3.182945 -2.260983 0
M  V30 36 H -0.834130 -0.046827 0.839162 0
M  V30 37 H -0.105733 -1.499705 2.138016 0
M  V30 END ATOM
M  V30 BEGIN BOND
M  V30 1 2 1 2
M  V30 2 1 2 3
M  V30 3 1 3 4
M  V30 4 1 4 5
M  V30 5 1 5 6
M  V30 6 1 6 7
M  V30 7 1 7 8
M  V30 8 1 8 9
M  V30 9 2 9 10
M  V30 10 1 10 11
M  V30 11 2 11 12
M  V30 12 1 12 13
M  V30 13 1 13 14
M  V30 14 2 14 15
M  V30 15 1 15 16
M  V30 16 2 16 17
M  V30 17 1 17 18
M  V30 18 1 18 19
M  V30 19 2 18 20
M  V30 20 2 13 21
M  V30 21 2 8 22
M  V30 22 1 22 23
M  V30 23 1 23 2
M  V30 24 2 23 6
M  V30 25 1 21 9
M  V30 26 1 20 14
M  V30 27 1 3 24
M  V30 28 1 4 25
M  V30 29 1 4 26
M  V30 30 1 5 27
M  V30 31 1 5 28
M  V30 32 1 7 29
M  V30 33 1 10 30
M  V30 34 1 11 31
M  V30 35 1 15 32
M  V30 36 1 16 33
M  V30 37 1 17 34
M  V30 38 1 20 35
M  V30 39 1 21 36
M  V30 40 1 22 37
M  V30 END BOND
M  V30 END CTAB
M  END
>  <Dataset>  (440) 
ChEMBL_Kinases

>  <Ligand_Instance>  (440) 
nan

>  <PDB_ID>  (440) 
nan

>  <Standardized_SMILES>  (440) 
O=C1NCCc2[nH]c(-c3ccnc(-c4cccc(Cl)c4)c3)cc21

>  <Name>  (440) 
nan

>  <Pocket>  (440) 
nan

>  <ATP_Site>  (440) 
nan

>  <Peripheral>  (440) 
nan

>  <Num_H_Atoms_ProtBoundConf>  (440) 
nan

>  <Num_Resolved_Atoms>  (440) 
nan

>  <Num_Not_Resolved_Atoms>  (440) 
nan

$$$$
CHEMBL226424
     RDKit          3D

  0  0  0  0  0  0  0  0  0  0999 V3000
M  V30 BEGIN CTAB
M  V30 COUNTS 42 45 0 0 0
M  V30 BEGIN ATOM
M  V30 1 C -1.558940 -7.890226 2.365559 0
M  V30 2 C -0.562334 -7.037044 1.678541 0
M  V30 3 O 0.415154 -7.602731 1.088674 0
M  V30 4 C -0.698491 -5.585219 1.678500 0
M  V30 5 C -1.736336 -4.899067 2.299651 0
M  V30 6 C -1.774534 -3.501163 2.240344 0
M  V30 7 C -0.800573 -2.785316 1.576033 0
M  V30 8 C -0.933004 -1.332792 1.573603 0
M  V30 9 C -0.062997 -0.461311 0.966352 0
M  V30 10 C -0.238022 0.906245 0.996223 0
M  V30 11 C 0.734744 1.764506 0.324201 0
M  V30 12 C 1.849998 1.363332 -0.363415 0
M  V30 13 C 2.451406 2.519654 -0.816307 0
M  V30 14 C 1.737205 3.622748 -0.426571 0
M  V30 15 N 0.694014 3.108017 0.269841 0
M  V30 16 C 2.075378 5.038523 -0.727137 0
M  V30 17 C 3.558181 5.152235 -0.907451 0
M  V30 18 N 3.969537 4.160082 -1.882831 0
M  V30 19 C 3.662218 2.798556 -1.605455 0
M  V30 20 O 4.394763 1.837890 -2.015463 0
M  V30 21 C -1.316210 1.466208 1.650679 0
M  V30 22 C -2.170630 0.563570 2.249850 0
M  V30 23 N -1.985073 -0.789012 2.212361 0
M  V30 24 C 0.239220 -3.438953 0.951692 0
M  V30 25 C 0.245551 -4.816258 1.030099 0
M  V30 26 H -1.111025 -8.883949 2.645280 0
M  V30 27 H -2.409385 -8.120301 1.678098 0
M  V30 28 H -1.980507 -7.397500 3.263204 0
M  V30 29 H -2.484876 -5.466565 2.811250 0
M  V30 30 H -2.623942 -3.040806 2.754770 0
M  V30 31 H 0.778737 -0.860329 0.453143 0
M  V30 32 H 2.217544 0.353792 -0.537559 0
M  V30 33 H -0.064804 3.693202 0.719028 0
M  V30 34 H 1.610219 5.302439 -1.699926 0
M  V30 35 H 1.698900 5.706571 0.080105 0
M  V30 36 H 3.871701 6.172544 -1.209473 0
M  V30 37 H 4.124354 4.925985 0.028671 0
M  V30 38 H 4.483289 4.359843 -2.792023 0
M  V30 39 H -1.487475 2.531777 1.696221 0
M  V30 40 H -3.040787 0.943657 2.782335 0
M  V30 41 H 1.002403 -2.885435 0.431589 0
M  V30 42 H 1.090319 -5.289946 0.519429 0
M  V30 END ATOM
M  V30 BEGIN BOND
M  V30 1 1 1 2
M  V30 2 2 2 3
M  V30 3 1 2 4
M  V30 4 2 4 5
M  V30 5 1 5 6
M  V30 6 2 6 7
M  V30 7 1 7 8
M  V30 8 2 8 9
M  V30 9 1 9 10
M  V30 10 1 10 11
M  V30 11 2 11 12
M  V30 12 1 12 13
M  V30 13 2 13 14
M  V30 14 1 14 15
M  V30 15 1 14 16
M  V30 16 1 16 17
M  V30 17 1 17 18
M  V30 18 1 18 19
M  V30 19 2 19 20
M  V30 20 2 10 21
M  V30 21 1 21 22
M  V30 22 2 22 23
M  V30 23 1 7 24
M  V30 24 2 24 25
M  V30 25 1 25 4
M  V30 26 1 23 8
M  V30 27 1 15 11
M  V30 28 1 19 13
M  V30 29 1 1 26
M  V30 30 1 1 27
M  V30 31 1 1 28
M  V30 32 1 5 29
M  V30 33 1 6 30
M  V30 34 1 9 31
M  V30 35 1 12 32
M  V30 36 1 15 33
M  V30 37 1 16 34
M  V30 38 1 16 35
M  V30 39 1 17 36
M  V30 40 1 17 37
M  V30 41 1 18 38
M  V30 42 1 21 39
M  V30 43 1 22 40
M  V30 44 1 24 41
M  V30 45 1 25 42
M  V30 END BOND
M  V30 END CTAB
M  END
>  <Dataset>  (441) 
ChEMBL_Kinases

>  <Ligand_Instance>  (441) 
nan

>  <PDB_ID>  (441) 
nan

>  <Standardized_SMILES>  (441) 
CC(=O)c1ccc(-c2cc(-c3cc4c([nH]3)CCNC4=O)ccn2)cc1

>  <Name>  (441) 
nan

>  <Pocket>  (441) 
nan

>  <ATP_Site>  (441) 
nan

>  <Peripheral>  (441) 
nan

>  <Num_H_Atoms_ProtBoundConf>  (441) 
nan

>  <Num_Resolved_Atoms>  (441) 
nan

>  <Num_Not_Resolved_Atoms>  (441) 
nan

$$$$
CHEMBL226470
     RDKit          3D

  0  0  0  0  0  0  0  0  0  0999 V3000
M  V30 BEGIN CTAB
M  V30 COUNTS 37 40 0 0 0
M  V30 BEGIN ATOM
M  V30 1 O 0.532497 -4.085514 3.612461 0
M  V30 2 C 1.536431 -4.043431 2.821774 0
M  V30 3 N 2.599851 -5.016193 2.904066 0
M  V30 4 C 3.227110 -5.310675 1.609496 0
M  V30 5 C 3.843911 -4.042712 1.091357 0
M  V30 6 C 2.782598 -3.017438 0.959889 0
M  V30 7 N 2.576642 -1.951138 0.150120 0
M  V30 8 C 1.425817 -1.316056 0.438618 0
M  V30 9 C 0.917480 -0.130622 -0.252190 0
M  V30 10 C 1.651530 0.408179 -1.289791 0
M  V30 11 C 1.090382 1.533494 -1.886609 0
M  V30 12 N -0.091347 2.068766 -1.484564 0
M  V30 13 C -0.802221 1.542136 -0.475346 0
M  V30 14 C -2.061720 2.180892 -0.108600 0
M  V30 15 C -2.441761 3.288668 -0.825386 0
M  V30 16 C -3.650090 3.897631 -0.470093 0
M  V30 17 C -4.448084 3.430963 0.550207 0
M  V30 18 Cl -5.960695 4.217418 0.973124 0
M  V30 19 C -4.062412 2.307739 1.276741 0
M  V30 20 C -2.867250 1.727469 0.905374 0
M  V30 21 C -0.282788 0.429456 0.141320 0
M  V30 22 C 0.811256 -1.968330 1.489142 0
M  V30 23 C 1.672380 -3.003050 1.779189 0
M  V30 24 H 2.805262 -5.402410 3.873567 0
M  V30 25 H 2.498200 -5.692723 0.876261 0
M  V30 26 H 4.003516 -6.080328 1.836215 0
M  V30 27 H 4.411749 -4.188835 0.172212 0
M  V30 28 H 4.505125 -3.670348 1.927841 0
M  V30 29 H 3.251667 -1.666721 -0.613107 0
M  V30 30 H 2.593659 0.013155 -1.639007 0
M  V30 31 H 1.636434 2.001261 -2.719026 0
M  V30 32 H -1.873865 3.714204 -1.635963 0
M  V30 33 H -4.034481 4.773889 -0.974260 0
M  V30 34 H -4.681717 1.937912 2.075483 0
M  V30 35 H -2.583322 0.859325 1.477529 0
M  V30 36 H -0.818976 -0.011139 0.941774 0
M  V30 37 H -0.115120 -1.691318 1.933154 0
M  V30 END ATOM
M  V30 BEGIN BOND
M  V30 1 2 1 2
M  V30 2 1 2 3
M  V30 3 1 3 4
M  V30 4 1 4 5
M  V30 5 1 5 6
M  V30 6 1 6 7
M  V30 7 1 7 8
M  V30 8 1 8 9
M  V30 9 2 9 10
M  V30 10 1 10 11
M  V30 11 2 11 12
M  V30 12 1 12 13
M  V30 13 1 13 14
M  V30 14 2 14 15
M  V30 15 1 15 16
M  V30 16 2 16 17
M  V30 17 1 17 18
M  V30 18 1 17 19
M  V30 19 2 19 20
M  V30 20 2 13 21
M  V30 21 2 8 22
M  V30 22 1 22 23
M  V30 23 1 23 2
M  V30 24 2 23 6
M  V30 25 1 21 9
M  V30 26 1 20 14
M  V30 27 1 3 24
M  V30 28 1 4 25
M  V30 29 1 4 26
M  V30 30 1 5 27
M  V30 31 1 5 28
M  V30 32 1 7 29
M  V30 33 1 10 30
M  V30 34 1 11 31
M  V30 35 1 15 32
M  V30 36 1 16 33
M  V30 37 1 19 34
M  V30 38 1 20 35
M  V30 39 1 21 36
M  V30 40 1 22 37
M  V30 END BOND
M  V30 END CTAB
M  END
>  <Dataset>  (442) 
ChEMBL_Kinases

>  <Ligand_Instance>  (442) 
nan

>  <PDB_ID>  (442) 
nan

>  <Standardized_SMILES>  (442) 
O=C1NCCc2[nH]c(-c3ccnc(-c4ccc(Cl)cc4)c3)cc21

>  <Name>  (442) 
nan

>  <Pocket>  (442) 
nan

>  <ATP_Site>  (442) 
nan

>  <Peripheral>  (442) 
nan

>  <Num_H_Atoms_ProtBoundConf>  (442) 
nan

>  <Num_Resolved_Atoms>  (442) 
nan

>  <Num_Not_Resolved_Atoms>  (442) 
nan

$$$$
CHEMBL226472
     RDKit          3D

  0  0  0  0  0  0  0  0  0  0999 V3000
M  V30 BEGIN CTAB
M  V30 COUNTS 37 40 0 0 0
M  V30 BEGIN ATOM
M  V30 1 O -0.052491 -4.373170 3.268160 0
M  V30 2 C 1.101279 -4.140415 2.787814 0
M  V30 3 N 2.168927 -5.058269 3.104329 0
M  V30 4 C 3.223813 -5.183956 2.093519 0
M  V30 5 C 3.827526 -3.840735 1.820781 0
M  V30 6 C 2.760590 -2.878891 1.474636 0
M  V30 7 N 2.712142 -1.739579 0.723279 0
M  V30 8 C 1.477267 -1.203728 0.710326 0
M  V30 9 C 1.083831 0.012647 0.003896 0
M  V30 10 C 2.017409 0.714321 -0.730160 0
M  V30 11 C 1.520750 1.837823 -1.345242 0
M  V30 12 N 0.245449 2.281840 -1.284754 0
M  V30 13 C -0.651550 1.598285 -0.573156 0
M  V30 14 C -2.023429 2.095846 -0.521600 0
M  V30 15 C -2.308651 3.251940 -1.218222 0
M  V30 16 C -3.604060 3.733687 -1.177128 0
M  V30 17 C -4.647676 3.146135 -0.488336 0
M  V30 18 C -4.330704 1.984406 0.203118 0
M  V30 19 F -5.289330 1.323981 0.916932 0
M  V30 20 C -3.048052 1.489781 0.174266 0
M  V30 21 C -0.217497 0.459275 0.069960 0
M  V30 22 C 0.647469 -1.996809 1.475886 0
M  V30 23 C 1.466284 -3.016603 1.930622 0
M  V30 24 H 2.169324 -5.590671 4.005914 0
M  V30 25 H 2.819388 -5.701019 1.219270 0
M  V30 26 H 4.022240 -5.828162 2.560885 0
M  V30 27 H 4.548254 -3.924611 0.985797 0
M  V30 28 H 4.380732 -3.553103 2.748033 0
M  V30 29 H 3.598345 -1.401223 0.247228 0
M  V30 30 H 3.049660 0.418570 -0.821844 0
M  V30 31 H 2.174501 2.476700 -1.958367 0
M  V30 32 H -1.591487 3.837742 -1.813898 0
M  V30 33 H -3.849879 4.648871 -1.723006 0
M  V30 34 H -5.639190 3.536644 -0.471495 0
M  V30 35 H -2.833957 0.583327 0.723127 0
M  V30 36 H -0.923644 -0.114129 0.653835 0
M  V30 37 H -0.405935 -1.843172 1.668567 0
M  V30 END ATOM
M  V30 BEGIN BOND
M  V30 1 2 1 2
M  V30 2 1 2 3
M  V30 3 1 3 4
M  V30 4 1 4 5
M  V30 5 1 5 6
M  V30 6 1 6 7
M  V30 7 1 7 8
M  V30 8 1 8 9
M  V30 9 2 9 10
M  V30 10 1 10 11
M  V30 11 2 11 12
M  V30 12 1 12 13
M  V30 13 1 13 14
M  V30 14 2 14 15
M  V30 15 1 15 16
M  V30 16 2 16 17
M  V30 17 1 17 18
M  V30 18 1 18 19
M  V30 19 2 18 20
M  V30 20 2 13 21
M  V30 21 2 8 22
M  V30 22 1 22 23
M  V30 23 1 23 2
M  V30 24 2 23 6
M  V30 25 1 21 9
M  V30 26 1 20 14
M  V30 27 1 3 24
M  V30 28 1 4 25
M  V30 29 1 4 26
M  V30 30 1 5 27
M  V30 31 1 5 28
M  V30 32 1 7 29
M  V30 33 1 10 30
M  V30 34 1 11 31
M  V30 35 1 15 32
M  V30 36 1 16 33
M  V30 37 1 17 34
M  V30 38 1 20 35
M  V30 39 1 21 36
M  V30 40 1 22 37
M  V30 END BOND
M  V30 END CTAB
M  END
>  <Dataset>  (443) 
ChEMBL_Kinases

>  <Ligand_Instance>  (443) 
nan

>  <PDB_ID>  (443) 
nan

>  <Standardized_SMILES>  (443) 
O=C1NCCc2[nH]c(-c3ccnc(-c4cccc(F)c4)c3)cc21

>  <Name>  (443) 
nan

>  <Pocket>  (443) 
nan

>  <ATP_Site>  (443) 
nan

>  <Peripheral>  (443) 
nan

>  <Num_H_Atoms_ProtBoundConf>  (443) 
nan

>  <Num_Resolved_Atoms>  (443) 
nan

>  <Num_Not_Resolved_Atoms>  (443) 
nan

$$$$
CHEMBL226474
     RDKit          3D

  0  0  0  0  0  0  0  0  0  0999 V3000
M  V30 BEGIN CTAB
M  V30 COUNTS 41 44 0 0 0
M  V30 BEGIN ATOM
M  V30 1 C -0.884816 -6.839181 4.106596 0
M  V30 2 O -1.283739 -5.703055 4.879965 0
M  V30 3 C -1.110570 -4.430436 4.350499 0
M  V30 4 C -1.474518 -3.282019 5.043784 0
M  V30 5 C -1.297658 -2.004646 4.505484 0
M  V30 6 C -0.757908 -1.844876 3.272905 0
M  V30 7 C -0.585286 -0.499208 2.736669 0
M  V30 8 C -0.051342 -0.216942 1.503735 0
M  V30 9 C 0.078019 1.086694 1.069494 0
M  V30 10 C 0.652158 1.343555 -0.251186 0
M  V30 11 C 1.099301 0.392780 -1.153557 0
M  V30 12 C 1.545691 1.099598 -2.236011 0
M  V30 13 C 1.396350 2.457842 -2.048869 0
M  V30 14 N 0.851303 2.541423 -0.830923 0
M  V30 15 C 1.788438 3.486460 -3.046750 0
M  V30 16 C 2.935609 2.943256 -3.871361 0
M  V30 17 N 2.498073 1.681229 -4.438916 0
M  V30 18 C 2.137284 0.649330 -3.516113 0
M  V30 19 O 2.321809 -0.584709 -3.796649 0
M  V30 20 C -0.316685 2.161779 1.840060 0
M  V30 21 C -0.846744 1.794706 3.073558 0
M  V30 22 N -0.984750 0.515647 3.524561 0
M  V30 23 C -0.402755 -2.995715 2.599687 0
M  V30 24 C -0.558551 -4.264575 3.089631 0
M  V30 25 H -1.245364 -7.745611 4.630573 0
M  V30 26 H -1.348249 -6.744982 3.088031 0
M  V30 27 H 0.211608 -6.848285 3.938087 0
M  V30 28 H -1.907210 -3.405695 6.031417 0
M  V30 29 H -1.613983 -1.179221 5.127003 0
M  V30 30 H 0.264384 -1.018980 0.881005 0
M  V30 31 H 1.094205 -0.686707 -1.023685 0
M  V30 32 H 0.590000 3.432719 -0.340391 0
M  V30 33 H 2.034426 4.455581 -2.574786 0
M  V30 34 H 0.924214 3.561024 -3.742047 0
M  V30 35 H 3.248776 3.657974 -4.663089 0
M  V30 36 H 3.788687 2.763778 -3.171362 0
M  V30 37 H 2.421833 1.454330 -5.474691 0
M  V30 38 H -0.240274 3.182173 1.556095 0
M  V30 39 H -1.190598 2.564011 3.763202 0
M  V30 40 H 0.031344 -2.908624 1.612916 0
M  V30 41 H -0.259674 -5.118470 2.510511 0
M  V30 END ATOM
M  V30 BEGIN BOND
M  V30 1 1 1 2
M  V30 2 1 2 3
M  V30 3 2 3 4
M  V30 4 1 4 5
M  V30 5 2 5 6
M  V30 6 1 6 7
M  V30 7 2 7 8
M  V30 8 1 8 9
M  V30 9 1 9 10
M  V30 10 2 10 11
M  V30 11 1 11 12
M  V30 12 2 12 13
M  V30 13 1 13 14
M  V30 14 1 13 15
M  V30 15 1 15 16
M  V30 16 1 16 17
M  V30 17 1 17 18
M  V30 18 2 18 19
M  V30 19 2 9 20
M  V30 20 1 20 21
M  V30 21 2 21 22
M  V30 22 1 6 23
M  V30 23 2 23 24
M  V30 24 1 24 3
M  V30 25 1 22 7
M  V30 26 1 14 10
M  V30 27 1 18 12
M  V30 28 1 1 25
M  V30 29 1 1 26
M  V30 30 1 1 27
M  V30 31 1 4 28
M  V30 32 1 5 29
M  V30 33 1 8 30
M  V30 34 1 11 31
M  V30 35 1 14 32
M  V30 36 1 15 33
M  V30 37 1 15 34
M  V30 38 1 16 35
M  V30 39 1 16 36
M  V30 40 1 17 37
M  V30 41 1 20 38
M  V30 42 1 21 39
M  V30 43 1 23 40
M  V30 44 1 24 41
M  V30 END BOND
M  V30 END CTAB
M  END
>  <Dataset>  (444) 
ChEMBL_Kinases

>  <Ligand_Instance>  (444) 
nan

>  <PDB_ID>  (444) 
nan

>  <Standardized_SMILES>  (444) 
COc1ccc(-c2cc(-c3cc4c([nH]3)CCNC4=O)ccn2)cc1

>  <Name>  (444) 
nan

>  <Pocket>  (444) 
nan

>  <ATP_Site>  (444) 
nan

>  <Peripheral>  (444) 
nan

>  <Num_H_Atoms_ProtBoundConf>  (444) 
nan

>  <Num_Resolved_Atoms>  (444) 
nan

>  <Num_Not_Resolved_Atoms>  (444) 
nan

$$$$
CHEMBL226475
     RDKit          3D

  0  0  0  0  0  0  0  0  0  0999 V3000
M  V30 BEGIN CTAB
M  V30 COUNTS 39 42 0 0 0
M  V30 BEGIN ATOM
M  V30 1 N -0.518647 -6.236857 4.916519 0
M  V30 2 C -0.083280 -5.286059 3.929279 0
M  V30 3 C 1.009443 -5.601069 3.118422 0
M  V30 4 C 1.427538 -4.672360 2.160700 0
M  V30 5 C 0.763279 -3.471179 2.030546 0
M  V30 6 C 1.238946 -2.534348 1.014835 0
M  V30 7 C 0.690896 -1.310028 0.763518 0
M  V30 8 C 1.166182 -0.450272 -0.204274 0
M  V30 9 C 0.529004 0.847519 -0.418892 0
M  V30 10 C -0.556828 1.329872 0.282549 0
M  V30 11 C -0.844797 2.572119 -0.219087 0
M  V30 12 C 0.079177 2.836485 -1.232403 0
M  V30 13 N 0.897644 1.763815 -1.323545 0
M  V30 14 C -0.009998 4.136802 -1.952763 0
M  V30 15 C -0.557111 5.236905 -1.064230 0
M  V30 16 N -1.894372 4.808695 -0.633576 0
M  V30 17 C -1.877190 3.579068 0.109440 0
M  V30 18 O -2.710454 3.311945 1.041003 0
M  V30 19 C 2.251340 -0.822157 -0.973098 0
M  V30 20 C 2.779503 -2.075858 -0.685352 0
M  V30 21 N 2.296517 -2.903011 0.269401 0
M  V30 22 C -0.311355 -3.201458 2.852705 0
M  V30 23 C -0.768717 -4.087674 3.820328 0
M  V30 24 H -0.001359 -5.866217 5.758136 0
M  V30 25 H -1.166152 -7.038025 4.758077 0
M  V30 26 H 1.478893 -6.556009 3.275845 0
M  V30 27 H 2.285274 -4.958491 1.548202 0
M  V30 28 H -0.144019 -0.990744 1.334574 0
M  V30 29 H -1.106927 0.841528 1.090081 0
M  V30 30 H 1.694695 1.680601 -2.005588 0
M  V30 31 H 0.947469 4.422557 -2.423741 0
M  V30 32 H -0.791831 4.000890 -2.753571 0
M  V30 33 H -0.678350 6.129459 -1.716581 0
M  V30 34 H 0.091845 5.454254 -0.191696 0
M  V30 35 H -2.860485 5.230552 -0.765602 0
M  V30 36 H 2.672271 -0.196065 -1.746686 0
M  V30 37 H 3.626850 -2.454202 -1.231413 0
M  V30 38 H -0.842284 -2.264792 2.763112 0
M  V30 39 H -1.615650 -3.846996 4.450938 0
M  V30 END ATOM
M  V30 BEGIN BOND
M  V30 1 1 1 2
M  V30 2 2 2 3
M  V30 3 1 3 4
M  V30 4 2 4 5
M  V30 5 1 5 6
M  V30 6 2 6 7
M  V30 7 1 7 8
M  V30 8 1 8 9
M  V30 9 2 9 10
M  V30 10 1 10 11
M  V30 11 2 11 12
M  V30 12 1 12 13
M  V30 13 1 12 14
M  V30 14 1 14 15
M  V30 15 1 15 16
M  V30 16 1 16 17
M  V30 17 2 17 18
M  V30 18 2 8 19
M  V30 19 1 19 20
M  V30 20 2 20 21
M  V30 21 1 5 22
M  V30 22 2 22 23
M  V30 23 1 23 2
M  V30 24 1 21 6
M  V30 25 1 13 9
M  V30 26 1 17 11
M  V30 27 1 1 24
M  V30 28 1 1 25
M  V30 29 1 3 26
M  V30 30 1 4 27
M  V30 31 1 7 28
M  V30 32 1 10 29
M  V30 33 1 13 30
M  V30 34 1 14 31
M  V30 35 1 14 32
M  V30 36 1 15 33
M  V30 37 1 15 34
M  V30 38 1 16 35
M  V30 39 1 19 36
M  V30 40 1 20 37
M  V30 41 1 22 38
M  V30 42 1 23 39
M  V30 END BOND
M  V30 END CTAB
M  END
>  <Dataset>  (445) 
ChEMBL_Kinases

>  <Ligand_Instance>  (445) 
nan

>  <PDB_ID>  (445) 
nan

>  <Standardized_SMILES>  (445) 
Nc1ccc(-c2cc(-c3cc4c([nH]3)CCNC4=O)ccn2)cc1

>  <Name>  (445) 
nan

>  <Pocket>  (445) 
nan

>  <ATP_Site>  (445) 
nan

>  <Peripheral>  (445) 
nan

>  <Num_H_Atoms_ProtBoundConf>  (445) 
nan

>  <Num_Resolved_Atoms>  (445) 
nan

>  <Num_Not_Resolved_Atoms>  (445) 
nan

$$$$
CHEMBL226512
     RDKit          3D

  0  0  0  0  0  0  0  0  0  0999 V3000
M  V30 BEGIN CTAB
M  V30 COUNTS 44 46 0 0 0
M  V30 BEGIN ATOM
M  V30 1 C -0.778013 -7.398195 1.947953 0
M  V30 2 O -1.138293 -6.872941 0.668632 0
M  V30 3 C -0.943182 -5.517957 0.427714 0
M  V30 4 C -0.413650 -4.685485 1.394251 0
M  V30 5 C -0.239393 -3.344286 1.104422 0
M  V30 6 C -0.597056 -2.868001 -0.139957 0
M  V30 7 C -0.391229 -1.444192 -0.391112 0
M  V30 8 C -0.688170 -0.793460 -1.569822 0
M  V30 9 C -0.468737 0.558055 -1.742811 0
M  V30 10 O -0.753424 1.119150 -2.837136 0
M  V30 11 C 0.064941 1.308773 -0.718445 0
M  V30 12 C 0.310856 2.656963 -0.817505 0
M  V30 13 O 0.007935 3.307395 -2.012328 0
M  V30 14 C 0.851788 3.289364 0.293996 0
M  V30 15 O 1.096266 4.651911 0.182819 0
M  V30 16 C 2.372896 5.041366 -0.296265 0
M  V30 17 C 1.135188 2.599119 1.458400 0
M  V30 18 O 1.669696 3.261295 2.535460 0
M  V30 19 C 0.770714 3.828111 3.488693 0
M  V30 20 C 0.873159 1.252813 1.512535 0
M  V30 21 O 1.161859 0.559845 2.692901 0
M  V30 22 C 2.441562 -0.018483 2.853798 0
M  V30 23 C 0.331926 0.585410 0.420148 0
M  V30 24 O 0.115517 -0.700061 0.563733 0
M  V30 25 C -1.123791 -3.722834 -1.086140 0
M  V30 26 C -1.320741 -5.081162 -0.848297 0
M  V30 27 H 0.291327 -7.256973 2.184139 0
M  V30 28 H -0.996317 -8.466207 2.007845 0
M  V30 29 H -1.341067 -6.849782 2.753469 0
M  V30 30 H -0.157899 -5.135874 2.346580 0
M  V30 31 H 0.174206 -2.711007 1.868976 0
M  V30 32 H -1.104311 -1.372065 -2.372458 0
M  V30 33 H -0.810015 3.919488 -2.034242 0
M  V30 34 H 3.094722 4.830823 0.521197 0
M  V30 35 H 2.402449 6.112960 -0.588095 0
M  V30 36 H 2.664466 4.439443 -1.190419 0
M  V30 37 H 0.438242 3.052221 4.236638 0
M  V30 38 H 1.280277 4.605923 4.073497 0
M  V30 39 H -0.133562 4.176746 2.981185 0
M  V30 40 H 2.368260 -0.943328 3.471701 0
M  V30 41 H 2.849495 -0.218293 1.843027 0
M  V30 42 H 3.167252 0.688808 3.332954 0
M  V30 43 H -1.405536 -3.359079 -2.059858 0
M  V30 44 H -1.732727 -5.757137 -1.584183 0
M  V30 END ATOM
M  V30 BEGIN BOND
M  V30 1 1 1 2
M  V30 2 1 2 3
M  V30 3 2 3 4
M  V30 4 1 4 5
M  V30 5 2 5 6
M  V30 6 1 6 7
M  V30 7 2 7 8
M  V30 8 1 8 9
M  V30 9 2 9 10
M  V30 10 1 9 11
M  V30 11 2 11 12
M  V30 12 1 12 13
M  V30 13 1 12 14
M  V30 14 1 14 15
M  V30 15 1 15 16
M  V30 16 2 14 17
M  V30 17 1 17 18
M  V30 18 1 18 19
M  V30 19 1 17 20
M  V30 20 1 20 21
M  V30 21 1 21 22
M  V30 22 2 20 23
M  V30 23 1 23 24
M  V30 24 1 6 25
M  V30 25 2 25 26
M  V30 26 1 26 3
M  V30 27 1 24 7
M  V30 28 1 23 11
M  V30 29 1 1 27
M  V30 30 1 1 28
M  V30 31 1 1 29
M  V30 32 1 4 30
M  V30 33 1 5 31
M  V30 34 1 8 32
M  V30 35 1 13 33
M  V30 36 1 16 34
M  V30 37 1 16 35
M  V30 38 1 16 36
M  V30 39 1 19 37
M  V30 40 1 19 38
M  V30 41 1 19 39
M  V30 42 1 22 40
M  V30 43 1 22 41
M  V30 44 1 22 42
M  V30 45 1 25 43
M  V30 46 1 26 44
M  V30 END BOND
M  V30 END CTAB
M  END
>  <Dataset>  (446) 
ChEMBL_Kinases

>  <Ligand_Instance>  (446) 
nan

>  <PDB_ID>  (446) 
nan

>  <Standardized_SMILES>  (446) 
COc1ccc(-c2cc(=O)c3c(O)c(OC)c(OC)c(OC)c3o2)cc1

>  <Name>  (446) 
GARDENIN B

>  <Pocket>  (446) 
nan

>  <ATP_Site>  (446) 
nan

>  <Peripheral>  (446) 
nan

>  <Num_H_Atoms_ProtBoundConf>  (446) 
nan

>  <Num_Resolved_Atoms>  (446) 
nan

>  <Num_Not_Resolved_Atoms>  (446) 
nan

$$$$
CHEMBL226529
     RDKit          3D

  0  0  0  0  0  0  0  0  0  0999 V3000
M  V30 BEGIN CTAB
M  V30 COUNTS 53 56 0 0 0
M  V30 BEGIN ATOM
M  V30 1 C 4.655015 0.784526 5.635014 0
M  V30 2 C 4.200790 -0.441958 4.950837 0
M  V30 3 N 4.422174 -1.713818 5.284927 0
M  V30 4 N 3.810656 -2.464109 4.362915 0
M  V30 5 C 3.196468 -1.700133 3.436800 0
M  V30 6 C 2.460180 -2.101397 2.326097 0
M  V30 7 C 1.924673 -1.109581 1.518465 0
M  V30 8 C 2.153245 0.205801 1.863096 0
M  V30 9 C 1.646448 1.346933 1.097931 0
M  V30 10 C 2.255226 2.593914 0.971007 0
M  V30 11 N 1.633045 3.526539 0.219020 0
M  V30 12 C 0.461560 3.261677 -0.389710 0
M  V30 13 C -0.199818 2.041795 -0.305666 0
M  V30 14 O -1.406057 1.852734 -0.965642 0
M  V30 15 C -2.004734 0.558595 -0.816836 0
M  V30 16 C -3.283895 0.442748 -1.549427 0 CFG=1
M  V30 17 N -3.133288 0.662711 -2.976962 0
M  V30 18 C -3.950450 -0.878991 -1.257072 0
M  V30 19 C -3.150761 -2.041122 -1.638875 0
M  V30 20 C -3.467082 -2.517739 -2.916961 0
M  V30 21 C -2.824368 -3.563855 -3.540053 0
M  V30 22 C -1.795404 -4.210547 -2.894010 0
M  V30 23 C -1.465339 -3.760928 -1.633690 0
M  V30 24 C -2.126276 -2.711866 -1.033381 0
M  V30 25 O -1.723645 -2.349625 0.228760 0
M  V30 26 C -2.189576 -2.935692 1.409456 0
M  V30 27 F -1.896026 -4.296161 1.461550 0
M  V30 28 F -1.567260 -2.370791 2.501289 0
M  V30 29 F -3.559237 -2.847564 1.463172 0
M  V30 30 C 0.443854 1.082607 0.470201 0
M  V30 31 C 2.887322 0.584799 2.970133 0
M  V30 32 C 3.434596 -0.389982 3.795827 0
M  V30 33 H 5.001575 1.555801 4.929498 0
M  V30 34 H 5.573584 0.502300 6.223705 0
M  V30 35 H 3.916332 1.199217 6.344560 0
M  V30 36 H 3.889438 -3.505434 4.480096 0
M  V30 37 H 2.306040 -3.145190 2.093052 0
M  V30 38 H 1.340620 -1.325277 0.638188 0
M  V30 39 H 3.193561 2.701660 1.500057 0
M  V30 40 H 0.021592 4.058695 -0.976600 0
M  V30 41 H -2.161229 0.319090 0.243833 0
M  V30 42 H -1.275188 -0.132425 -1.242713 0
M  V30 43 H -3.980519 1.244827 -1.190010 0
M  V30 44 H -2.647189 1.596814 -3.062607 0
M  V30 45 H -4.081204 0.780473 -3.378685 0
M  V30 46 H -4.979738 -0.925764 -1.684515 0
M  V30 47 H -4.104059 -0.896377 -0.151167 0
M  V30 48 H -4.261619 -2.101785 -3.548681 0
M  V30 49 H -3.067381 -3.930430 -4.523281 0
M  V30 50 H -1.275901 -5.032717 -3.361802 0
M  V30 51 H -0.659835 -4.252262 -1.106376 0
M  V30 52 H -0.087373 0.128357 0.528732 0
M  V30 53 H 3.082521 1.606921 3.264106 0
M  V30 END ATOM
M  V30 BEGIN BOND
M  V30 1 1 1 2
M  V30 2 2 2 3
M  V30 3 1 3 4
M  V30 4 1 4 5
M  V30 5 2 5 6
M  V30 6 1 6 7
M  V30 7 2 7 8
M  V30 8 1 8 9
M  V30 9 2 9 10
M  V30 10 1 10 11
M  V30 11 2 11 12
M  V30 12 1 12 13
M  V30 13 1 13 14
M  V30 14 1 14 15
M  V30 15 1 15 16
M  V30 16 1 16 17
M  V30 17 1 16 18
M  V30 18 1 18 19
M  V30 19 2 19 20
M  V30 20 1 20 21
M  V30 21 2 21 22
M  V30 22 1 22 23
M  V30 23 2 23 24
M  V30 24 1 24 25
M  V30 25 1 25 26
M  V30 26 1 26 27
M  V30 27 1 26 28
M  V30 28 1 26 29
M  V30 29 2 13 30
M  V30 30 1 8 31
M  V30 31 2 31 32
M  V30 32 1 32 2
M  V30 33 1 32 5
M  V30 34 1 30 9
M  V30 35 1 24 19
M  V30 36 1 1 33
M  V30 37 1 1 34
M  V30 38 1 1 35
M  V30 39 1 4 36
M  V30 40 1 6 37
M  V30 41 1 7 38
M  V30 42 1 10 39
M  V30 43 1 12 40
M  V30 44 1 15 41
M  V30 45 1 15 42
M  V30 46 1 16 43 CFG=1
M  V30 47 1 17 44
M  V30 48 1 17 45
M  V30 49 1 18 46
M  V30 50 1 18 47
M  V30 51 1 20 48
M  V30 52 1 21 49
M  V30 53 1 22 50
M  V30 54 1 23 51
M  V30 55 1 30 52
M  V30 56 1 31 53
M  V30 END BOND
M  V30 END CTAB
M  END
>  <Dataset>  (447) 
ChEMBL_Kinases

>  <Ligand_Instance>  (447) 
nan

>  <PDB_ID>  (447) 
nan

>  <Standardized_SMILES>  (447) 
Cc1n[nH]c2ccc(-c3cncc(OC[C@@H](N)Cc4ccccc4OC(F)(F)F)c3)cc12

>  <Name>  (447) 
nan

>  <Pocket>  (447) 
nan

>  <ATP_Site>  (447) 
nan

>  <Peripheral>  (447) 
nan

>  <Num_H_Atoms_ProtBoundConf>  (447) 
nan

>  <Num_Resolved_Atoms>  (447) 
nan

>  <Num_Not_Resolved_Atoms>  (447) 
nan

$$$$
CHEMBL226405
     RDKit          3D

  0  0  0  0  0  0  0  0  0  0999 V3000
M  V30 BEGIN CTAB
M  V30 COUNTS 38 41 0 0 0
M  V30 BEGIN ATOM
M  V30 1 O 1.354147 -3.686243 4.002570 0
M  V30 2 C 1.462497 -4.127650 2.830130 0
M  V30 3 N 1.888071 -5.476424 2.555850 0
M  V30 4 C 1.385913 -6.071824 1.332460 0
M  V30 5 C 1.739995 -5.230779 0.135112 0
M  V30 6 C 1.300699 -3.839911 0.402638 0
M  V30 7 N 0.960161 -2.858359 -0.477083 0
M  V30 8 C 0.624440 -1.756085 0.169919 0
M  V30 9 C 0.208956 -0.519515 -0.464709 0
M  V30 10 C 0.144282 -0.440340 -1.839181 0
M  V30 11 C -0.260737 0.775009 -2.345771 0
M  V30 12 N -0.572131 1.814527 -1.551729 0
M  V30 13 C -0.526960 1.792426 -0.217933 0
M  V30 14 C -0.893549 2.996573 0.496114 0
M  V30 15 C -1.267703 4.094681 -0.248592 0
M  V30 16 C -1.634840 5.288914 0.334763 0
M  V30 17 C -1.647593 5.450155 1.703343 0
M  V30 18 C -1.278645 4.370784 2.476571 0
M  V30 19 C -0.919585 3.198049 1.852300 0
M  V30 20 O -0.564429 2.167579 2.692946 0
M  V30 21 C -0.124074 0.583108 0.281754 0
M  V30 22 C 0.739725 -1.994514 1.523658 0
M  V30 23 C 1.159758 -3.289487 1.660509 0
M  V30 24 H 2.532352 -5.929916 3.264286 0
M  V30 25 H 0.287459 -6.139908 1.425543 0
M  V30 26 H 1.849091 -7.084070 1.278959 0
M  V30 27 H 2.859140 -5.220968 0.070390 0
M  V30 28 H 1.273919 -5.656887 -0.763788 0
M  V30 29 H 0.967266 -2.973236 -1.520653 0
M  V30 30 H 0.385673 -1.249934 -2.497165 0
M  V30 31 H -0.343177 0.936681 -3.413841 0
M  V30 32 H -1.295463 4.083257 -1.349721 0
M  V30 33 H -1.922460 6.129563 -0.276907 0
M  V30 34 H -1.930197 6.372816 2.190634 0
M  V30 35 H -1.279788 4.469934 3.552820 0
M  V30 36 H 0.327304 2.039433 3.132544 0
M  V30 37 H -0.057201 0.469131 1.341440 0
M  V30 38 H 0.542404 -1.307702 2.342002 0
M  V30 END ATOM
M  V30 BEGIN BOND
M  V30 1 2 1 2
M  V30 2 1 2 3
M  V30 3 1 3 4
M  V30 4 1 4 5
M  V30 5 1 5 6
M  V30 6 1 6 7
M  V30 7 1 7 8
M  V30 8 1 8 9
M  V30 9 2 9 10
M  V30 10 1 10 11
M  V30 11 2 11 12
M  V30 12 1 12 13
M  V30 13 1 13 14
M  V30 14 2 14 15
M  V30 15 1 15 16
M  V30 16 2 16 17
M  V30 17 1 17 18
M  V30 18 2 18 19
M  V30 19 1 19 20
M  V30 20 2 13 21
M  V30 21 2 8 22
M  V30 22 1 22 23
M  V30 23 1 23 2
M  V30 24 2 23 6
M  V30 25 1 21 9
M  V30 26 1 19 14
M  V30 27 1 3 24
M  V30 28 1 4 25
M  V30 29 1 4 26
M  V30 30 1 5 27
M  V30 31 1 5 28
M  V30 32 1 7 29
M  V30 33 1 10 30
M  V30 34 1 11 31
M  V30 35 1 15 32
M  V30 36 1 16 33
M  V30 37 1 17 34
M  V30 38 1 18 35
M  V30 39 1 20 36
M  V30 40 1 21 37
M  V30 41 1 22 38
M  V30 END BOND
M  V30 END CTAB
M  END
>  <Dataset>  (448) 
ChEMBL_Kinases

>  <Ligand_Instance>  (448) 
nan

>  <PDB_ID>  (448) 
nan

>  <Standardized_SMILES>  (448) 
O=C1NCCc2[nH]c(-c3ccnc(-c4ccccc4O)c3)cc21

>  <Name>  (448) 
nan

>  <Pocket>  (448) 
nan

>  <ATP_Site>  (448) 
nan

>  <Peripheral>  (448) 
nan

>  <Num_H_Atoms_ProtBoundConf>  (448) 
nan

>  <Num_Resolved_Atoms>  (448) 
nan

>  <Num_Not_Resolved_Atoms>  (448) 
nan

$$$$
CHEMBL228649
     RDKit          3D

  0  0  0  0  0  0  0  0  0  0999 V3000
M  V30 BEGIN CTAB
M  V30 COUNTS 38 40 0 0 0
M  V30 BEGIN ATOM
M  V30 1 C 2.069919 -3.012591 1.614868 0
M  V30 2 C 2.638866 -2.436804 0.360102 0
M  V30 3 C 3.844181 -2.864727 -0.157809 0
M  V30 4 C 4.739020 -3.884283 0.368855 0
M  V30 5 O 4.449019 -4.499776 1.427680 0
M  V30 6 O 5.926616 -4.164605 -0.326805 0
M  V30 7 C 4.002313 -2.100815 -1.282654 0
M  V30 8 N 2.948652 -1.277645 -1.409379 0
M  V30 9 C 2.070055 -1.429529 -0.432225 0
M  V30 10 C 0.780534 -0.845254 -0.095088 0
M  V30 11 C 0.500109 0.429247 -0.009851 0
M  V30 12 C 1.387125 1.566208 -0.220175 0
M  V30 13 O 2.599717 1.419581 -0.512842 0
M  V30 14 N 0.568144 2.709134 -0.017129 0
M  V30 15 C -0.761897 2.323075 0.304168 0
M  V30 16 C -1.828034 3.159331 0.564564 0
M  V30 17 C -3.041670 2.566207 0.854405 0
M  V30 18 C -3.095173 1.189343 0.861511 0
M  V30 19 N -4.313038 0.492379 1.147448 0
M  V30 20 C -4.222712 0.333224 2.583509 0
M  V30 21 N -5.095673 -0.275087 3.537925 0
M  V30 22 O -3.278597 0.729696 3.356396 0
M  V30 23 C -2.032422 0.324772 0.602062 0
M  V30 24 C -0.830326 0.947518 0.314775 0
M  V30 25 H 2.797341 -2.820898 2.457448 0
M  V30 26 H 1.100967 -2.552539 1.831219 0
M  V30 27 H 1.963655 -4.106170 1.542232 0
M  V30 28 H 6.681230 -4.685362 0.109099 0
M  V30 29 H 4.859445 -2.158087 -1.971451 0
M  V30 30 H 2.844621 -0.613997 -2.198274 0
M  V30 31 H -0.015906 -1.583260 0.100256 0
M  V30 32 H 0.969248 3.663610 -0.109450 0
M  V30 33 H -1.734264 4.230810 0.547061 0
M  V30 34 H -3.917403 3.155938 1.065944 0
M  V30 35 H -5.209274 0.045406 0.956923 0
M  V30 36 H -5.163683 -1.302820 3.401918 0
M  V30 37 H -5.621713 0.243064 4.299456 0
M  V30 38 H -2.104272 -0.735426 0.615489 0
M  V30 END ATOM
M  V30 BEGIN BOND
M  V30 1 1 1 2
M  V30 2 1 2 3
M  V30 3 1 3 4
M  V30 4 2 4 5
M  V30 5 1 4 6
M  V30 6 2 3 7
M  V30 7 1 7 8
M  V30 8 1 8 9
M  V30 9 1 9 10
M  V30 10 2 10 11
M  V30 11 1 11 12
M  V30 12 2 12 13
M  V30 13 1 12 14
M  V30 14 1 14 15
M  V30 15 2 15 16
M  V30 16 1 16 17
M  V30 17 2 17 18
M  V30 18 1 18 19
M  V30 19 1 19 20
M  V30 20 1 20 21
M  V30 21 2 20 22
M  V30 22 1 18 23
M  V30 23 2 23 24
M  V30 24 2 9 2
M  V30 25 1 24 11
M  V30 26 1 24 15
M  V30 27 1 1 25
M  V30 28 1 1 26
M  V30 29 1 1 27
M  V30 30 1 6 28
M  V30 31 1 7 29
M  V30 32 1 8 30
M  V30 33 1 10 31
M  V30 34 1 14 32
M  V30 35 1 16 33
M  V30 36 1 17 34
M  V30 37 1 19 35
M  V30 38 1 21 36
M  V30 39 1 21 37
M  V30 40 1 23 38
M  V30 END BOND
M  V30 END CTAB
M  END
>  <Dataset>  (449) 
ChEMBL_Kinases

>  <Ligand_Instance>  (449) 
nan

>  <PDB_ID>  (449) 
nan

>  <Standardized_SMILES>  (449) 
Cc1c(C(=O)O)c[nH]c1/C=C1\C(=O)Nc2ccc(NC(N)=O)cc21

>  <Name>  (449) 
nan

>  <Pocket>  (449) 
nan

>  <ATP_Site>  (449) 
nan

>  <Peripheral>  (449) 
nan

>  <Num_H_Atoms_ProtBoundConf>  (449) 
nan

>  <Num_Resolved_Atoms>  (449) 
nan

>  <Num_Not_Resolved_Atoms>  (449) 
nan

$$$$
CHEMBL228648
     RDKit          3D

  0  0  0  0  0  0  0  0  0  0999 V3000
M  V30 BEGIN CTAB
M  V30 COUNTS 35 37 0 0 0
M  V30 BEGIN ATOM
M  V30 1 N 4.616233 -4.631921 0.355784 0
M  V30 2 C 3.818933 -3.673500 1.072218 0
M  V30 3 O 3.323245 -4.715562 1.556726 0
M  V30 4 N 4.060709 -2.299015 0.814315 0
M  V30 5 C 3.267359 -1.350580 1.522709 0
M  V30 6 C 3.615093 -0.810164 2.750230 0
M  V30 7 C 2.733246 0.114675 3.321351 0
M  V30 8 C 1.566609 0.465301 2.674150 0
M  V30 9 C 1.261883 -0.097029 1.455578 0
M  V30 10 C 2.100635 -1.025760 0.834925 0
M  V30 11 C -0.014390 0.466730 1.031073 0
M  V30 12 C -0.736732 0.233826 -0.031660 0
M  V30 13 C -2.003991 0.786025 -0.473582 0
M  V30 14 C -3.050083 -0.018027 -0.896043 0
M  V30 15 C -4.063378 0.831222 -1.263993 0
M  V30 16 C -5.374551 0.444938 -1.767043 0
M  V30 17 O -6.342300 1.153304 -2.134255 0
M  V30 18 O -5.686384 -0.920104 -1.892246 0
M  V30 19 C -3.656906 2.135273 -1.075669 0
M  V30 20 N -2.390003 2.045703 -0.591065 0
M  V30 21 C -0.470381 1.396181 2.047413 0
M  V30 22 O -1.503801 2.085739 2.083257 0
M  V30 23 N 0.529825 1.382417 3.065176 0
M  V30 24 H 4.643195 -4.455856 -0.662542 0
M  V30 25 H 5.188895 -5.329306 -0.115481 0
M  V30 26 H 4.802172 -2.059494 0.124645 0
M  V30 27 H 4.557985 -1.130974 3.210488 0
M  V30 28 H 3.017412 0.526890 4.277641 0
M  V30 29 H 1.812207 -1.429429 -0.111558 0
M  V30 30 H -0.298120 -0.520199 -0.713207 0
M  V30 31 H -3.135135 -1.108157 -0.955391 0
M  V30 32 H -6.625401 -1.281825 -1.748902 0
M  V30 33 H -4.252668 3.019883 -1.282472 0
M  V30 34 H -1.890390 2.932263 -0.391539 0
M  V30 35 H 0.473140 1.965079 3.938255 0
M  V30 END ATOM
M  V30 BEGIN BOND
M  V30 1 1 1 2
M  V30 2 2 2 3
M  V30 3 1 2 4
M  V30 4 1 4 5
M  V30 5 2 5 6
M  V30 6 1 6 7
M  V30 7 2 7 8
M  V30 8 1 8 9
M  V30 9 2 9 10
M  V30 10 1 9 11
M  V30 11 2 11 12
M  V30 12 1 12 13
M  V30 13 2 13 14
M  V30 14 1 14 15
M  V30 15 1 15 16
M  V30 16 2 16 17
M  V30 17 1 16 18
M  V30 18 2 15 19
M  V30 19 1 19 20
M  V30 20 1 11 21
M  V30 21 2 21 22
M  V30 22 1 21 23
M  V30 23 1 10 5
M  V30 24 1 20 13
M  V30 25 1 23 8
M  V30 26 1 1 24
M  V30 27 1 1 25
M  V30 28 1 4 26
M  V30 29 1 6 27
M  V30 30 1 7 28
M  V30 31 1 10 29
M  V30 32 1 12 30
M  V30 33 1 14 31
M  V30 34 1 18 32
M  V30 35 1 19 33
M  V30 36 1 20 34
M  V30 37 1 23 35
M  V30 END BOND
M  V30 END CTAB
M  END
>  <Dataset>  (450) 
ChEMBL_Kinases

>  <Ligand_Instance>  (450) 
nan

>  <PDB_ID>  (450) 
nan

>  <Standardized_SMILES>  (450) 
NC(=O)Nc1ccc2c(c1)/C(=C/c1cc(C(=O)O)c[nH]1)C(=O)N2

>  <Name>  (450) 
nan

>  <Pocket>  (450) 
nan

>  <ATP_Site>  (450) 
nan

>  <Peripheral>  (450) 
nan

>  <Num_H_Atoms_ProtBoundConf>  (450) 
nan

>  <Num_Resolved_Atoms>  (450) 
nan

>  <Num_Not_Resolved_Atoms>  (450) 
nan

$$$$
CHEMBL228547
     RDKit          3D

  0  0  0  0  0  0  0  0  0  0999 V3000
M  V30 BEGIN CTAB
M  V30 COUNTS 46 49 0 0 0
M  V30 BEGIN ATOM
M  V30 1 N 3.896249 -7.118048 -1.424738 0
M  V30 2 C 2.964304 -6.165600 -1.932513 0
M  V30 3 O 1.928951 -6.872199 -1.839980 0
M  V30 4 N 3.365668 -4.857566 -2.352988 0
M  V30 5 C 2.311296 -4.032494 -2.832170 0
M  V30 6 C 1.856957 -3.919686 -4.126912 0
M  V30 7 C 0.821415 -3.086449 -4.490217 0
M  V30 8 C 0.215612 -2.329128 -3.488221 0
M  V30 9 C 0.672801 -2.439272 -2.170145 0
M  V30 10 C 1.715053 -3.286209 -1.843811 0
M  V30 11 C -0.140719 -1.539672 -1.361566 0
M  V30 12 C -0.062343 -1.285772 -0.067906 0
M  V30 13 C -0.879455 -0.389962 0.732845 0
M  V30 14 C -0.196589 0.486823 1.578970 0
M  V30 15 C -1.090813 1.263040 2.298850 0
M  V30 16 C -0.778746 2.296791 3.280373 0
M  V30 17 C 0.377953 3.022198 3.088335 0
M  V30 18 C 0.787980 4.023733 3.941833 0
M  V30 19 C -0.021616 4.283990 5.025902 0
M  V30 20 C -1.185822 3.588693 5.261867 0
M  V30 21 C -2.060479 3.838824 6.399266 0
M  V30 22 N -1.787619 4.841317 7.370285 0
M  V30 23 O -3.125334 3.230765 6.663605 0
M  V30 24 C -1.556982 2.589853 4.375950 0
M  V30 25 C -2.335851 0.846301 1.879676 0
M  V30 26 N -2.173384 -0.120770 0.964502 0
M  V30 27 C -1.091942 -0.891153 -2.227665 0
M  V30 28 O -1.965377 -0.052715 -1.942053 0
M  V30 29 N -0.870209 -1.379607 -3.538129 0
M  V30 30 H 4.293946 -8.047343 -1.701874 0
M  V30 31 H 4.373140 -6.911978 -0.508463 0
M  V30 32 H 4.389101 -4.682231 -2.250642 0
M  V30 33 H 2.373568 -4.538348 -4.854889 0
M  V30 34 H 0.508266 -3.038350 -5.523338 0
M  V30 35 H 2.004735 -3.304345 -0.781416 0
M  V30 36 H 0.746212 -1.858260 0.425331 0
M  V30 37 H 0.881449 0.637707 1.742337 0
M  V30 38 H 1.009117 2.801440 2.219647 0
M  V30 39 H 1.697565 4.598827 3.797659 0
M  V30 40 H 0.219933 5.066280 5.762053 0
M  V30 41 H -0.929607 4.436288 7.837005 0
M  V30 42 H -2.187120 5.767846 7.689481 0
M  V30 43 H -2.468294 2.024954 4.533514 0
M  V30 44 H -3.300355 1.205721 2.204646 0
M  V30 45 H -2.908679 -0.656007 0.459552 0
M  V30 46 H -1.405640 -1.094695 -4.385946 0
M  V30 END ATOM
M  V30 BEGIN BOND
M  V30 1 1 1 2
M  V30 2 2 2 3
M  V30 3 1 2 4
M  V30 4 1 4 5
M  V30 5 2 5 6
M  V30 6 1 6 7
M  V30 7 2 7 8
M  V30 8 1 8 9
M  V30 9 2 9 10
M  V30 10 1 9 11
M  V30 11 2 11 12
M  V30 12 1 12 13
M  V30 13 2 13 14
M  V30 14 1 14 15
M  V30 15 1 15 16
M  V30 16 2 16 17
M  V30 17 1 17 18
M  V30 18 2 18 19
M  V30 19 1 19 20
M  V30 20 1 20 21
M  V30 21 1 21 22
M  V30 22 2 21 23
M  V30 23 2 20 24
M  V30 24 2 15 25
M  V30 25 1 25 26
M  V30 26 1 11 27
M  V30 27 2 27 28
M  V30 28 1 27 29
M  V30 29 1 10 5
M  V30 30 1 26 13
M  V30 31 1 29 8
M  V30 32 1 24 16
M  V30 33 1 1 30
M  V30 34 1 1 31
M  V30 35 1 4 32
M  V30 36 1 6 33
M  V30 37 1 7 34
M  V30 38 1 10 35
M  V30 39 1 12 36
M  V30 40 1 14 37
M  V30 41 1 17 38
M  V30 42 1 18 39
M  V30 43 1 19 40
M  V30 44 1 22 41
M  V30 45 1 22 42
M  V30 46 1 24 43
M  V30 47 1 25 44
M  V30 48 1 26 45
M  V30 49 1 29 46
M  V30 END BOND
M  V30 END CTAB
M  END
>  <Dataset>  (451) 
ChEMBL_Kinases

>  <Ligand_Instance>  (451) 
nan

>  <PDB_ID>  (451) 
nan

>  <Standardized_SMILES>  (451) 
NC(=O)Nc1ccc2c(c1)/C(=C/c1cc(-c3cccc(C(N)=O)c3)c[nH]1)C(=O)N2

>  <Name>  (451) 
nan

>  <Pocket>  (451) 
nan

>  <ATP_Site>  (451) 
nan

>  <Peripheral>  (451) 
nan

>  <Num_H_Atoms_ProtBoundConf>  (451) 
nan

>  <Num_Resolved_Atoms>  (451) 
nan

>  <Num_Not_Resolved_Atoms>  (451) 
nan

$$$$
CHEMBL228545
     RDKit          3D

  0  0  0  0  0  0  0  0  0  0999 V3000
M  V30 BEGIN CTAB
M  V30 COUNTS 45 48 0 0 0
M  V30 BEGIN ATOM
M  V30 1 C 2.564262 -6.142216 0.140930 0
M  V30 2 C 2.642684 -5.241095 -1.052906 0
M  V30 3 C 3.017815 -5.664430 -2.328044 0
M  V30 4 C 3.064316 -4.763459 -3.380790 0
M  V30 5 C 2.737748 -3.427763 -3.178556 0
M  V30 6 C 2.364445 -2.983987 -1.930693 0
M  V30 7 C 2.004827 -1.588060 -1.639774 0
M  V30 8 C 2.448044 -0.411041 -2.181653 0
M  V30 9 N 1.805984 0.594626 -1.568905 0
M  V30 10 C 0.950356 0.168356 -0.638298 0
M  V30 11 C 0.044326 0.789021 0.310329 0
M  V30 12 C 0.260630 1.770192 1.165712 0
M  V30 13 C 1.520619 2.444178 1.325250 0
M  V30 14 O 2.556067 2.195186 0.700460 0
M  V30 15 N 1.290538 3.420359 2.332865 0
M  V30 16 C -0.061723 3.328589 2.758569 0
M  V30 17 C -0.794974 4.025562 3.696351 0
M  V30 18 C -2.123638 3.769246 3.959199 0
M  V30 19 C -2.765833 2.771737 3.260286 0
M  V30 20 N -4.121873 2.314082 3.350499 0
M  V30 21 C -4.229272 1.264884 4.294654 0
M  V30 22 N -5.377939 0.528751 4.690454 0
M  V30 23 O -3.138047 0.932928 4.872472 0
M  V30 24 C -2.060609 2.049604 2.309764 0
M  V30 25 C -0.731830 2.346101 2.085021 0
M  V30 26 C 1.074542 -1.225176 -0.681416 0
M  V30 27 C 2.330180 -3.908235 -0.910475 0
M  V30 28 H 3.459412 -5.925687 0.776103 0
M  V30 29 H 2.565770 -7.165363 -0.237670 0
M  V30 30 H 1.660160 -5.988994 0.742380 0
M  V30 31 H 3.254991 -6.725517 -2.387565 0
M  V30 32 H 3.355424 -5.132159 -4.335917 0
M  V30 33 H 2.764205 -2.712200 -3.974759 0
M  V30 34 H 3.182168 -0.345026 -2.959528 0
M  V30 35 H 1.956278 1.573026 -1.808108 0
M  V30 36 H -0.979145 0.373093 0.308010 0
M  V30 37 H 2.038906 4.069245 2.662156 0
M  V30 38 H -0.333723 4.830274 4.280774 0
M  V30 39 H -2.758289 4.257665 4.662736 0
M  V30 40 H -5.017358 2.575241 2.888159 0
M  V30 41 H -5.344052 -0.528676 4.573457 0
M  V30 42 H -6.344475 0.385524 5.069773 0
M  V30 43 H -2.471939 1.232933 1.693437 0
M  V30 44 H 0.533446 -1.952539 -0.066097 0
M  V30 45 H 2.035410 -3.551777 0.071501 0
M  V30 END ATOM
M  V30 BEGIN BOND
M  V30 1 1 1 2
M  V30 2 2 2 3
M  V30 3 1 3 4
M  V30 4 2 4 5
M  V30 5 1 5 6
M  V30 6 1 6 7
M  V30 7 2 7 8
M  V30 8 1 8 9
M  V30 9 1 9 10
M  V30 10 1 10 11
M  V30 11 2 11 12
M  V30 12 1 12 13
M  V30 13 2 13 14
M  V30 14 1 13 15
M  V30 15 1 15 16
M  V30 16 2 16 17
M  V30 17 1 17 18
M  V30 18 2 18 19
M  V30 19 1 19 20
M  V30 20 1 20 21
M  V30 21 1 21 22
M  V30 22 2 21 23
M  V30 23 1 19 24
M  V30 24 2 24 25
M  V30 25 2 10 26
M  V30 26 2 6 27
M  V30 27 1 27 2
M  V30 28 1 26 7
M  V30 29 1 25 12
M  V30 30 1 25 16
M  V30 31 1 1 28
M  V30 32 1 1 29
M  V30 33 1 1 30
M  V30 34 1 3 31
M  V30 35 1 4 32
M  V30 36 1 5 33
M  V30 37 1 8 34
M  V30 38 1 9 35
M  V30 39 1 11 36
M  V30 40 1 15 37
M  V30 41 1 17 38
M  V30 42 1 18 39
M  V30 43 1 20 40
M  V30 44 1 22 41
M  V30 45 1 22 42
M  V30 46 1 24 43
M  V30 47 1 26 44
M  V30 48 1 27 45
M  V30 END BOND
M  V30 END CTAB
M  END
>  <Dataset>  (452) 
ChEMBL_Kinases

>  <Ligand_Instance>  (452) 
nan

>  <PDB_ID>  (452) 
nan

>  <Standardized_SMILES>  (452) 
Cc1cccc(-c2c[nH]c(/C=C3\C(=O)Nc4ccc(NC(N)=O)cc43)c2)c1

>  <Name>  (452) 
nan

>  <Pocket>  (452) 
nan

>  <ATP_Site>  (452) 
nan

>  <Peripheral>  (452) 
nan

>  <Num_H_Atoms_ProtBoundConf>  (452) 
nan

>  <Num_Resolved_Atoms>  (452) 
nan

>  <Num_Not_Resolved_Atoms>  (452) 
nan

$$$$
CHEMBL228224
     RDKit          3D

  0  0  0  0  0  0  0  0  0  0999 V3000
M  V30 BEGIN CTAB
M  V30 COUNTS 30 31 0 0 0
M  V30 BEGIN ATOM
M  V30 1 C 1.899538 -1.144526 4.411222 0
M  V30 2 C 0.561839 -1.778816 4.281224 0
M  V30 3 N -0.163017 -2.507919 5.161103 0
M  V30 4 N -1.304170 -2.857776 4.578690 0
M  V30 5 C -1.324388 -2.353944 3.310778 0
M  V30 6 C -0.143694 -1.667027 3.112152 0
M  V30 7 C 0.078020 -1.028974 1.819613 0
M  V30 8 C -0.946306 -0.290004 1.223778 0
M  V30 9 C -0.866131 0.360597 0.008434 0
M  V30 10 C 0.334928 0.264892 -0.665930 0
M  V30 11 C 0.474921 0.946507 -1.978619 0
M  V30 12 C 0.062045 0.020995 -3.120122 0
M  V30 13 N 0.185797 0.649328 -4.399702 0
M  V30 14 C 1.397641 -0.459046 -0.123884 0
M  V30 15 C 1.252332 -1.086655 1.096320 0
M  V30 16 H 2.173880 -1.241429 5.501792 0
M  V30 17 H 1.884291 -0.045589 4.225096 0
M  V30 18 H 2.687724 -1.677361 3.838526 0
M  V30 19 H -1.978098 -3.432134 5.141477 0
M  V30 20 H -2.225828 -2.590605 2.752817 0
M  V30 21 H -1.896488 -0.213496 1.755861 0
M  V30 22 H -1.726883 0.907453 -0.360251 0
M  V30 23 H -0.101231 1.877737 -2.063528 0
M  V30 24 H 1.536488 1.184216 -2.146083 0
M  V30 25 H -0.993023 -0.310793 -2.954869 0
M  V30 26 H 0.695791 -0.890896 -3.122694 0
M  V30 27 H 0.744976 1.533641 -4.387782 0
M  V30 28 H 0.486290 -0.010662 -5.163684 0
M  V30 29 H 2.343739 -0.527248 -0.667899 0
M  V30 30 H 2.071890 -1.647608 1.519069 0
M  V30 END ATOM
M  V30 BEGIN BOND
M  V30 1 1 1 2
M  V30 2 2 2 3
M  V30 3 1 3 4
M  V30 4 1 4 5
M  V30 5 2 5 6
M  V30 6 1 6 7
M  V30 7 2 7 8
M  V30 8 1 8 9
M  V30 9 2 9 10
M  V30 10 1 10 11
M  V30 11 1 11 12
M  V30 12 1 12 13
M  V30 13 1 10 14
M  V30 14 2 14 15
M  V30 15 1 6 2
M  V30 16 1 15 7
M  V30 17 1 1 16
M  V30 18 1 1 17
M  V30 19 1 1 18
M  V30 20 1 4 19
M  V30 21 1 5 20
M  V30 22 1 8 21
M  V30 23 1 9 22
M  V30 24 1 11 23
M  V30 25 1 11 24
M  V30 26 1 12 25
M  V30 27 1 12 26
M  V30 28 1 13 27
M  V30 29 1 13 28
M  V30 30 1 14 29
M  V30 31 1 15 30
M  V30 END BOND
M  V30 END CTAB
M  END
>  <Dataset>  (453) 
ChEMBL_Kinases

>  <Ligand_Instance>  (453) 
nan

>  <PDB_ID>  (453) 
nan

>  <Standardized_SMILES>  (453) 
Cc1n[nH]cc1-c1ccc(CCN)cc1

>  <Name>  (453) 
nan

>  <Pocket>  (453) 
nan

>  <ATP_Site>  (453) 
nan

>  <Peripheral>  (453) 
nan

>  <Num_H_Atoms_ProtBoundConf>  (453) 
nan

>  <Num_Resolved_Atoms>  (453) 
nan

>  <Num_Not_Resolved_Atoms>  (453) 
nan

$$$$
CHEMBL22818
     RDKit          3D

  0  0  0  0  0  0  0  0  0  0999 V3000
M  V30 BEGIN CTAB
M  V30 COUNTS 36 39 0 0 0
M  V30 BEGIN ATOM
M  V30 1 O 2.390711 -2.619227 3.836176 0
M  V30 2 C 2.038604 -1.291930 3.672908 0
M  V30 3 C 1.309493 -1.005694 2.393834 0
M  V30 4 N 1.601669 -1.505762 1.180005 0
M  V30 5 C 0.744129 -1.039947 0.254351 0
M  V30 6 C 0.760294 -1.367377 -1.156385 0
M  V30 7 C 0.586041 -2.683873 -1.562505 0
M  V30 8 C 0.599060 -3.017605 -2.918307 0
M  V30 9 C 0.790123 -2.002842 -3.848415 0
M  V30 10 F 0.796082 -2.372416 -5.160614 0
M  V30 11 C 0.961168 -0.701916 -3.421700 0
M  V30 12 C 0.950609 -0.356879 -2.083589 0
M  V30 13 C -0.132047 -0.206976 0.907956 0
M  V30 14 C -1.249756 0.544079 0.346930 0
M  V30 15 C -1.179357 1.933788 0.465080 0
M  V30 16 C -2.229215 2.665550 -0.059935 0
M  V30 17 N -3.320802 2.132976 -0.680374 0
M  V30 18 C -3.363406 0.773259 -0.781803 0
M  V30 19 C -2.349802 -0.019833 -0.279909 0
M  V30 20 N 0.240711 -0.213128 2.189829 0
M  V30 21 C 1.472218 -0.577685 4.881172 0
M  V30 22 C 2.835678 -0.228260 4.319231 0
M  V30 23 H 1.539704 -3.151978 3.860982 0
M  V30 24 H 0.434633 -3.494592 -0.846177 0
M  V30 25 H 0.463826 -4.046960 -3.257307 0
M  V30 26 H 1.105093 0.040053 -4.194903 0
M  V30 27 H 1.088494 0.677442 -1.783551 0
M  V30 28 H -0.374120 2.499138 0.932665 0
M  V30 29 H -2.240540 3.749272 -0.003603 0
M  V30 30 H -4.223463 0.294080 -1.274107 0
M  V30 31 H -2.371005 -1.103677 -0.353866 0
M  V30 32 H -0.252157 0.338129 2.928121 0
M  V30 33 H 1.431779 -1.130773 5.848102 0
M  V30 34 H 0.684439 0.187195 4.734946 0
M  V30 35 H 2.956575 0.742685 3.792953 0
M  V30 36 H 3.718200 -0.565189 4.916792 0
M  V30 END ATOM
M  V30 BEGIN BOND
M  V30 1 1 1 2
M  V30 2 1 2 3
M  V30 3 2 3 4
M  V30 4 1 4 5
M  V30 5 1 5 6
M  V30 6 2 6 7
M  V30 7 1 7 8
M  V30 8 2 8 9
M  V30 9 1 9 10
M  V30 10 1 9 11
M  V30 11 2 11 12
M  V30 12 2 5 13
M  V30 13 1 13 14
M  V30 14 2 14 15
M  V30 15 1 15 16
M  V30 16 2 16 17
M  V30 17 1 17 18
M  V30 18 2 18 19
M  V30 19 1 13 20
M  V30 20 1 2 21
M  V30 21 1 21 22
M  V30 22 1 22 2
M  V30 23 1 20 3
M  V30 24 1 12 6
M  V30 25 1 19 14
M  V30 26 1 1 23
M  V30 27 1 7 24
M  V30 28 1 8 25
M  V30 29 1 11 26
M  V30 30 1 12 27
M  V30 31 1 15 28
M  V30 32 1 16 29
M  V30 33 1 18 30
M  V30 34 1 19 31
M  V30 35 1 20 32
M  V30 36 1 21 33
M  V30 37 1 21 34
M  V30 38 1 22 35
M  V30 39 1 22 36
M  V30 END BOND
M  V30 END CTAB
M  END
>  <Dataset>  (454) 
ChEMBL_Kinases

>  <Ligand_Instance>  (454) 
nan

>  <PDB_ID>  (454) 
nan

>  <Standardized_SMILES>  (454) 
OC1(c2nc(-c3ccc(F)cc3)c(-c3ccncc3)[nH]2)CC1

>  <Name>  (454) 
nan

>  <Pocket>  (454) 
nan

>  <ATP_Site>  (454) 
nan

>  <Peripheral>  (454) 
nan

>  <Num_H_Atoms_ProtBoundConf>  (454) 
nan

>  <Num_Resolved_Atoms>  (454) 
nan

>  <Num_Not_Resolved_Atoms>  (454) 
nan

$$$$
CHEMBL228133
     RDKit          3D

  0  0  0  0  0  0  0  0  0  0999 V3000
M  V30 BEGIN CTAB
M  V30 COUNTS 48 52 0 0 0
M  V30 BEGIN ATOM
M  V30 1 Cl -3.762350 -4.360376 4.670534 0
M  V30 2 C -2.543437 -3.755783 3.583683 0
M  V30 3 C -1.491386 -2.984365 4.034437 0
M  V30 4 C -0.563632 -2.538039 3.132227 0
M  V30 5 C -0.578405 -2.791707 1.776039 0
M  V30 6 C 0.438315 -2.289473 0.826565 0
M  V30 7 C 0.156708 -0.894785 0.388064 0
M  V30 8 C 0.184180 0.186196 1.246324 0
M  V30 9 C -0.074518 1.488869 0.857665 0
M  V30 10 C -0.380113 1.752420 -0.456750 0
M  V30 11 C -0.647523 3.136687 -0.832029 0
M  V30 12 N -1.703794 3.401148 -1.622781 0
M  V30 13 C -1.986167 4.676859 -1.993647 0
M  V30 14 N -1.210357 5.687595 -1.572418 0
M  V30 15 C -0.139646 5.453405 -0.775382 0
M  V30 16 N 0.811966 6.218118 -0.195611 0
M  V30 17 C 1.656933 5.466253 0.508455 0
M  V30 18 N 1.262064 4.180515 0.396037 0
M  V30 19 C 0.160956 4.162734 -0.389480 0
M  V30 20 C -0.421005 0.716648 -1.350951 0
M  V30 21 C -0.152996 -0.557978 -0.897812 0
M  V30 22 C 1.820510 -2.256163 1.457923 0
M  V30 23 C 2.387784 -3.604304 1.744394 0
M  V30 24 N 1.560835 -4.694914 1.316130 0
M  V30 25 C 1.026353 -4.560886 0.003202 0
M  V30 26 C 0.565354 -3.179810 -0.373894 0
M  V30 27 C -1.658805 -3.571702 1.381886 0
M  V30 28 C -2.624023 -4.050733 2.239695 0
M  V30 29 H -1.440371 -2.760478 5.093019 0
M  V30 30 H 0.224853 -1.948535 3.557669 0
M  V30 31 H 0.417502 0.056607 2.292894 0
M  V30 32 H -0.040797 2.299128 1.562840 0
M  V30 33 H -2.846259 4.858560 -2.632739 0
M  V30 34 H 0.790484 7.258955 -0.348688 0
M  V30 35 H 2.481684 5.930451 1.037001 0
M  V30 36 H -0.663698 0.944147 -2.382486 0
M  V30 37 H -0.207093 -1.311773 -1.672126 0
M  V30 38 H 2.477562 -1.769520 0.695620 0
M  V30 39 H 1.808475 -1.564165 2.314252 0
M  V30 40 H 2.516414 -3.688168 2.846793 0
M  V30 41 H 3.434975 -3.724473 1.342058 0
M  V30 42 H 2.191835 -5.549442 1.317817 0
M  V30 43 H 0.125819 -5.226112 -0.049668 0
M  V30 44 H 1.691826 -4.966041 -0.812593 0
M  V30 45 H 1.317436 -2.746625 -1.064599 0
M  V30 46 H -0.384126 -3.192094 -0.944080 0
M  V30 47 H -1.792339 -3.844086 0.356009 0
M  V30 48 H -3.453955 -4.659978 1.883226 0
M  V30 END ATOM
M  V30 BEGIN BOND
M  V30 1 1 1 2
M  V30 2 2 2 3
M  V30 3 1 3 4
M  V30 4 2 4 5
M  V30 5 1 5 6
M  V30 6 1 6 7
M  V30 7 2 7 8
M  V30 8 1 8 9
M  V30 9 2 9 10
M  V30 10 1 10 11
M  V30 11 2 11 12
M  V30 12 1 12 13
M  V30 13 2 13 14
M  V30 14 1 14 15
M  V30 15 1 15 16
M  V30 16 1 16 17
M  V30 17 2 17 18
M  V30 18 1 18 19
M  V30 19 1 10 20
M  V30 20 2 20 21
M  V30 21 1 6 22
M  V30 22 1 22 23
M  V30 23 1 23 24
M  V30 24 1 24 25
M  V30 25 1 25 26
M  V30 26 1 5 27
M  V30 27 2 27 28
M  V30 28 1 28 2
M  V30 29 1 26 6
M  V30 30 1 21 7
M  V30 31 1 19 11
M  V30 32 2 19 15
M  V30 33 1 3 29
M  V30 34 1 4 30
M  V30 35 1 8 31
M  V30 36 1 9 32
M  V30 37 1 13 33
M  V30 38 1 16 34
M  V30 39 1 17 35
M  V30 40 1 20 36
M  V30 41 1 21 37
M  V30 42 1 22 38
M  V30 43 1 22 39
M  V30 44 1 23 40
M  V30 45 1 23 41
M  V30 46 1 24 42
M  V30 47 1 25 43
M  V30 48 1 25 44
M  V30 49 1 26 45
M  V30 50 1 26 46
M  V30 51 1 27 47
M  V30 52 1 28 48
M  V30 END BOND
M  V30 END CTAB
M  END
>  <Dataset>  (455) 
ChEMBL_Kinases

>  <Ligand_Instance>  (455) 
nan

>  <PDB_ID>  (455) 
nan

>  <Standardized_SMILES>  (455) 
Clc1ccc(C2(c3ccc(-c4ncnc5[nH]cnc45)cc3)CCNCC2)cc1

>  <Name>  (455) 
nan

>  <Pocket>  (455) 
nan

>  <ATP_Site>  (455) 
nan

>  <Peripheral>  (455) 
nan

>  <Num_H_Atoms_ProtBoundConf>  (455) 
nan

>  <Num_Resolved_Atoms>  (455) 
nan

>  <Num_Not_Resolved_Atoms>  (455) 
nan

$$$$
CHEMBL228114
     RDKit          3D

  0  0  0  0  0  0  0  0  0  0999 V3000
M  V30 BEGIN CTAB
M  V30 COUNTS 22 23 0 0 0
M  V30 BEGIN ATOM
M  V30 1 C 0.057587 1.226796 3.349980 0
M  V30 2 C 1.094212 0.341023 2.816258 0
M  V30 3 N 2.122735 -0.106822 3.561975 0
M  V30 4 N 2.900458 -0.884909 2.825536 0
M  V30 5 C 2.400966 -0.965321 1.581903 0
M  V30 6 C 1.254436 -0.194429 1.554458 0
M  V30 7 C 0.356960 0.035425 0.427630 0
M  V30 8 C 0.061899 -1.132231 -0.255555 0
M  V30 9 C -0.770563 -1.126420 -1.352946 0
M  V30 10 C -1.337017 0.056110 -1.803222 0
M  V30 11 C -1.033846 1.206371 -1.113705 0
M  V30 12 C -0.201741 1.218347 -0.012312 0
M  V30 13 H -0.815273 1.366455 2.691174 0
M  V30 14 H 0.509719 2.248537 3.503489 0
M  V30 15 H -0.313467 0.901675 4.348729 0
M  V30 16 H 3.787111 -1.392609 3.108504 0
M  V30 17 H 2.759406 -1.504966 0.706810 0
M  V30 18 H 0.436290 -2.135353 -0.013713 0
M  V30 19 H -1.031995 -2.009061 -1.920107 0
M  V30 20 H -1.996505 0.116711 -2.658529 0
M  V30 21 H -1.439353 2.156787 -1.409931 0
M  V30 22 H 0.084509 2.070303 0.579832 0
M  V30 END ATOM
M  V30 BEGIN BOND
M  V30 1 1 1 2
M  V30 2 2 2 3
M  V30 3 1 3 4
M  V30 4 1 4 5
M  V30 5 2 5 6
M  V30 6 1 6 7
M  V30 7 2 7 8
M  V30 8 1 8 9
M  V30 9 2 9 10
M  V30 10 1 10 11
M  V30 11 2 11 12
M  V30 12 1 6 2
M  V30 13 1 12 7
M  V30 14 1 1 13
M  V30 15 1 1 14
M  V30 16 1 1 15
M  V30 17 1 4 16
M  V30 18 1 5 17
M  V30 19 1 8 18
M  V30 20 1 9 19
M  V30 21 1 10 20
M  V30 22 1 11 21
M  V30 23 1 12 22
M  V30 END BOND
M  V30 END CTAB
M  END
>  <Dataset>  (456) 
ChEMBL_Kinases

>  <Ligand_Instance>  (456) 
nan

>  <PDB_ID>  (456) 
nan

>  <Standardized_SMILES>  (456) 
Cc1n[nH]cc1-c1ccccc1

>  <Name>  (456) 
nan

>  <Pocket>  (456) 
nan

>  <ATP_Site>  (456) 
nan

>  <Peripheral>  (456) 
nan

>  <Num_H_Atoms_ProtBoundConf>  (456) 
nan

>  <Num_Resolved_Atoms>  (456) 
nan

>  <Num_Not_Resolved_Atoms>  (456) 
nan

$$$$
CHEMBL228043
     RDKit          3D

  0  0  0  0  0  0  0  0  0  0999 V3000
M  V30 BEGIN CTAB
M  V30 COUNTS 25 25 0 0 0
M  V30 BEGIN ATOM
M  V30 1 C -0.123866 -4.608054 1.738798 0
M  V30 2 C -0.340252 -3.176687 1.491782 0
M  V30 3 O -1.589055 -2.583809 1.554784 0
M  V30 4 C 0.620352 -2.322993 1.189106 0
M  V30 5 C 1.936014 -2.949013 1.123016 0
M  V30 6 N 3.007069 -3.436445 1.065007 0
M  V30 7 C 0.617017 -0.902223 0.914182 0
M  V30 8 O 1.678650 -0.239062 0.633999 0
M  V30 9 N -0.461777 0.019446 0.889618 0
M  V30 10 C 0.024993 1.315620 0.568836 0
M  V30 11 C 0.085153 1.696914 -0.768181 0
M  V30 12 C 0.543388 2.934623 -1.172888 0
M  V30 13 Br 0.604036 3.405732 -3.029633 0
M  V30 14 C 0.960678 3.835586 -0.214425 0
M  V30 15 C 0.903903 3.465945 1.104886 0
M  V30 16 C 0.447087 2.228665 1.528319 0
M  V30 17 Br 0.363368 1.702803 3.361063 0
M  V30 18 H -0.318206 -5.224822 0.841336 0
M  V30 19 H -0.784238 -5.000549 2.547894 0
M  V30 20 H 0.927792 -4.829473 2.059811 0
M  V30 21 H -1.919834 -2.342867 2.499041 0
M  V30 22 H -1.407428 -0.367062 1.099617 0
M  V30 23 H -0.233409 1.020185 -1.564857 0
M  V30 24 H 1.321662 4.808060 -0.518230 0
M  V30 25 H 1.222348 4.144844 1.887081 0
M  V30 END ATOM
M  V30 BEGIN BOND
M  V30 1 1 1 2
M  V30 2 1 2 3
M  V30 3 2 2 4
M  V30 4 1 4 5
M  V30 5 3 5 6
M  V30 6 1 4 7
M  V30 7 2 7 8
M  V30 8 1 7 9
M  V30 9 1 9 10
M  V30 10 2 10 11
M  V30 11 1 11 12
M  V30 12 1 12 13
M  V30 13 2 12 14
M  V30 14 1 14 15
M  V30 15 2 15 16
M  V30 16 1 16 17
M  V30 17 1 16 10
M  V30 18 1 1 18
M  V30 19 1 1 19
M  V30 20 1 1 20
M  V30 21 1 3 21
M  V30 22 1 9 22
M  V30 23 1 11 23
M  V30 24 1 14 24
M  V30 25 1 15 25
M  V30 END BOND
M  V30 END CTAB
M  END
>  <Dataset>  (457) 
ChEMBL_Kinases

>  <Ligand_Instance>  (457) 
nan

>  <PDB_ID>  (457) 
nan

>  <Standardized_SMILES>  (457) 
C/C(O)=C(\C#N)C(=O)Nc1cc(Br)ccc1Br

>  <Name>  (457) 
nan

>  <Pocket>  (457) 
nan

>  <ATP_Site>  (457) 
nan

>  <Peripheral>  (457) 
nan

>  <Num_H_Atoms_ProtBoundConf>  (457) 
nan

>  <Num_Resolved_Atoms>  (457) 
nan

>  <Num_Not_Resolved_Atoms>  (457) 
nan

$$$$
CHEMBL228042
     RDKit          3D

  0  0  0  0  0  0  0  0  0  0999 V3000
M  V30 BEGIN CTAB
M  V30 COUNTS 41 44 0 0 0
M  V30 BEGIN ATOM
M  V30 1 C 2.299363 -4.618838 -0.448748 0
M  V30 2 N 2.062615 -3.490907 0.426047 0
M  V30 3 C 0.873345 -2.751718 0.030949 0
M  V30 4 C 1.014411 -2.230924 -1.353385 0
M  V30 5 C -0.023602 -2.345099 -2.262599 0
M  V30 6 C -0.038710 -1.912737 -3.571059 0
M  V30 7 C 1.130720 -1.298350 -3.996346 0
M  V30 8 Cl 1.150324 -0.730383 -5.667629 0
M  V30 9 C 2.203207 -1.148916 -3.150834 0
M  V30 10 C 2.153003 -1.605733 -1.848042 0
M  V30 11 C 0.596395 -1.672047 1.004242 0
M  V30 12 C 0.271797 -0.420894 0.508712 0
M  V30 13 C 0.013850 0.584937 1.418446 0
M  V30 14 C 0.089747 0.303340 2.767006 0
M  V30 15 C -0.201028 1.435863 3.637993 0
M  V30 16 N 0.553733 1.733925 4.711697 0
M  V30 17 C 0.278166 2.791633 5.521085 0
M  V30 18 N -0.788848 3.600433 5.270124 0
M  V30 19 C -1.570964 3.355319 4.223158 0
M  V30 20 N -2.665805 3.975596 3.749763 0
M  V30 21 C -3.078130 3.316107 2.651692 0
M  V30 22 N -2.237840 2.286214 2.444632 0
M  V30 23 C -1.288790 2.268988 3.391002 0
M  V30 24 C 0.417593 -0.960630 3.233007 0
M  V30 25 C 0.684332 -2.000300 2.341864 0
M  V30 26 H 1.811421 -5.545971 -0.153306 0
M  V30 27 H 1.962051 -4.343453 -1.460670 0
M  V30 28 H 3.411500 -4.729777 -0.521968 0
M  V30 29 H 2.897489 -2.863618 0.484128 0
M  V30 30 H 0.059437 -3.513440 0.003353 0
M  V30 31 H -0.926419 -2.836583 -1.883036 0
M  V30 32 H -0.892016 -2.051357 -4.184911 0
M  V30 33 H 3.112742 -0.659736 -3.515438 0
M  V30 34 H 2.981818 -1.502319 -1.158567 0
M  V30 35 H 0.232013 -0.276581 -0.568024 0
M  V30 36 H -0.236463 1.549417 0.997535 0
M  V30 37 H 0.931393 2.970192 6.368566 0
M  V30 38 H -3.162084 4.824934 4.120346 0
M  V30 39 H -3.930901 3.526194 2.001764 0
M  V30 40 H 0.462161 -1.123400 4.311114 0
M  V30 41 H 0.939809 -2.985429 2.681422 0
M  V30 END ATOM
M  V30 BEGIN BOND
M  V30 1 1 1 2
M  V30 2 1 2 3
M  V30 3 1 3 4
M  V30 4 2 4 5
M  V30 5 1 5 6
M  V30 6 2 6 7
M  V30 7 1 7 8
M  V30 8 1 7 9
M  V30 9 2 9 10
M  V30 10 1 3 11
M  V30 11 2 11 12
M  V30 12 1 12 13
M  V30 13 2 13 14
M  V30 14 1 14 15
M  V30 15 2 15 16
M  V30 16 1 16 17
M  V30 17 2 17 18
M  V30 18 1 18 19
M  V30 19 1 19 20
M  V30 20 1 20 21
M  V30 21 2 21 22
M  V30 22 1 22 23
M  V30 23 1 14 24
M  V30 24 2 24 25
M  V30 25 1 10 4
M  V30 26 1 25 11
M  V30 27 1 23 15
M  V30 28 2 23 19
M  V30 29 1 1 26
M  V30 30 1 1 27
M  V30 31 1 1 28
M  V30 32 1 2 29
M  V30 33 1 3 30
M  V30 34 1 5 31
M  V30 35 1 6 32
M  V30 36 1 9 33
M  V30 37 1 10 34
M  V30 38 1 12 35
M  V30 39 1 13 36
M  V30 40 1 17 37
M  V30 41 1 20 38
M  V30 42 1 21 39
M  V30 43 1 24 40
M  V30 44 1 25 41
M  V30 END BOND
M  V30 END CTAB
M  END
>  <Dataset>  (458) 
ChEMBL_Kinases

>  <Ligand_Instance>  (458) 
nan

>  <PDB_ID>  (458) 
nan

>  <Standardized_SMILES>  (458) 
CNC(c1ccc(Cl)cc1)c1ccc(-c2ncnc3[nH]cnc23)cc1

>  <Name>  (458) 
nan

>  <Pocket>  (458) 
nan

>  <ATP_Site>  (458) 
nan

>  <Peripheral>  (458) 
nan

>  <Num_H_Atoms_ProtBoundConf>  (458) 
nan

>  <Num_Resolved_Atoms>  (458) 
nan

>  <Num_Not_Resolved_Atoms>  (458) 
nan

$$$$
CHEMBL227998
     RDKit          3D

  0  0  0  0  0  0  0  0  0  0999 V3000
M  V30 BEGIN CTAB
M  V30 COUNTS 31 33 0 0 0
M  V30 BEGIN ATOM
M  V30 1 N -2.891565 -2.988602 1.918747 0
M  V30 2 C -1.951313 -2.370457 2.837815 0
M  V30 3 C -0.549037 -2.889678 2.555337 0
M  V30 4 C -0.132404 -2.572996 1.164691 0
M  V30 5 C -0.345189 -3.389291 0.060781 0
M  V30 6 C 0.062748 -3.043468 -1.201961 0
M  V30 7 C 0.713717 -1.848433 -1.434268 0
M  V30 8 C 0.962967 -0.974812 -0.370031 0
M  V30 9 C 1.636586 0.316035 -0.460031 0
M  V30 10 N 2.784657 0.522035 -1.168058 0
M  V30 11 C 3.392572 1.701422 -1.245212 0
M  V30 12 N 2.839823 2.756604 -0.583186 0
M  V30 13 C 1.714094 2.611922 0.127003 0
M  V30 14 N 0.990982 3.502197 0.856722 0
M  V30 15 C -0.079981 2.864974 1.393378 0
M  V30 16 N -0.025401 1.564603 0.995236 0
M  V30 17 C 1.055690 1.381723 0.223676 0
M  V30 18 C 0.521854 -1.389530 0.882408 0
M  V30 19 H -2.559955 -2.754171 0.936773 0
M  V30 20 H -3.851016 -2.667828 2.092361 0
M  V30 21 H -1.967096 -1.266333 2.779711 0
M  V30 22 H -2.234058 -2.666093 3.852697 0
M  V30 23 H -0.483896 -3.965086 2.719491 0
M  V30 24 H 0.115350 -2.299686 3.236692 0
M  V30 25 H -0.856623 -4.329839 0.238738 0
M  V30 26 H -0.116801 -3.699530 -2.042706 0
M  V30 27 H 1.061380 -1.513845 -2.399973 0
M  V30 28 H 4.297383 1.812179 -1.817583 0
M  V30 29 H 1.220593 4.523097 0.987678 0
M  V30 30 H -0.872080 3.276460 2.035882 0
M  V30 31 H 0.700655 -0.727885 1.742657 0
M  V30 END ATOM
M  V30 BEGIN BOND
M  V30 1 1 1 2
M  V30 2 1 2 3
M  V30 3 1 3 4
M  V30 4 2 4 5
M  V30 5 1 5 6
M  V30 6 2 6 7
M  V30 7 1 7 8
M  V30 8 1 8 9
M  V30 9 2 9 10
M  V30 10 1 10 11
M  V30 11 2 11 12
M  V30 12 1 12 13
M  V30 13 1 13 14
M  V30 14 1 14 15
M  V30 15 2 15 16
M  V30 16 1 16 17
M  V30 17 2 8 18
M  V30 18 1 18 4
M  V30 19 1 17 9
M  V30 20 2 17 13
M  V30 21 1 1 19
M  V30 22 1 1 20
M  V30 23 1 2 21
M  V30 24 1 2 22
M  V30 25 1 3 23
M  V30 26 1 3 24
M  V30 27 1 5 25
M  V30 28 1 6 26
M  V30 29 1 7 27
M  V30 30 1 11 28
M  V30 31 1 14 29
M  V30 32 1 15 30
M  V30 33 1 18 31
M  V30 END BOND
M  V30 END CTAB
M  END
>  <Dataset>  (459) 
ChEMBL_Kinases

>  <Ligand_Instance>  (459) 
nan

>  <PDB_ID>  (459) 
nan

>  <Standardized_SMILES>  (459) 
NCCc1cccc(-c2ncnc3[nH]cnc23)c1

>  <Name>  (459) 
nan

>  <Pocket>  (459) 
nan

>  <ATP_Site>  (459) 
nan

>  <Peripheral>  (459) 
nan

>  <Num_H_Atoms_ProtBoundConf>  (459) 
nan

>  <Num_Resolved_Atoms>  (459) 
nan

>  <Num_Not_Resolved_Atoms>  (459) 
nan

$$$$
CHEMBL227727
     RDKit          3D

  0  0  0  0  0  0  0  0  0  0999 V3000
M  V30 BEGIN CTAB
M  V30 COUNTS 31 33 0 0 0
M  V30 BEGIN ATOM
M  V30 1 N -3.104266 -3.082132 1.679686 0
M  V30 2 C -2.180924 -3.619295 2.660823 0
M  V30 3 C -0.944356 -4.055754 1.934429 0
M  V30 4 C -0.356102 -2.852614 1.243544 0
M  V30 5 C 0.573565 -2.106736 1.978144 0
M  V30 6 C 1.155253 -0.977146 1.390003 0
M  V30 7 C 0.792054 -0.636197 0.103525 0
M  V30 8 C 1.338334 0.513876 -0.589846 0
M  V30 9 N 1.756878 0.430103 -1.885352 0
M  V30 10 C 2.268215 1.511794 -2.530278 0
M  V30 11 N 2.385836 2.720859 -1.918074 0
M  V30 12 C 1.979794 2.833294 -0.636579 0
M  V30 13 N 1.963246 3.857253 0.223032 0
M  V30 14 C 1.445526 3.419350 1.396605 0
M  V30 15 N 1.119097 2.099082 1.309541 0
M  V30 16 C 1.457800 1.750133 0.038477 0
M  V30 17 C -0.123605 -1.365014 -0.629203 0
M  V30 18 C -0.705979 -2.494326 -0.042913 0
M  V30 19 H -2.854543 -2.138095 1.370328 0
M  V30 20 H -4.099452 -3.223466 1.957492 0
M  V30 21 H -1.872245 -2.770566 3.322105 0
M  V30 22 H -2.615674 -4.407264 3.274384 0
M  V30 23 H -1.114008 -4.811108 1.156806 0
M  V30 24 H -0.185022 -4.483548 2.618368 0
M  V30 25 H 0.838349 -2.399653 2.986119 0
M  V30 26 H 1.885589 -0.366972 1.928815 0
M  V30 27 H 2.599084 1.465986 -3.538248 0
M  V30 28 H 2.292978 4.837963 0.031452 0
M  V30 29 H 1.323971 4.073366 2.271584 0
M  V30 30 H -0.425205 -1.112192 -1.649598 0
M  V30 31 H -1.439552 -3.135292 -0.539710 0
M  V30 END ATOM
M  V30 BEGIN BOND
M  V30 1 1 1 2
M  V30 2 1 2 3
M  V30 3 1 3 4
M  V30 4 2 4 5
M  V30 5 1 5 6
M  V30 6 2 6 7
M  V30 7 1 7 8
M  V30 8 2 8 9
M  V30 9 1 9 10
M  V30 10 2 10 11
M  V30 11 1 11 12
M  V30 12 1 12 13
M  V30 13 1 13 14
M  V30 14 2 14 15
M  V30 15 1 15 16
M  V30 16 1 7 17
M  V30 17 2 17 18
M  V30 18 1 18 4
M  V30 19 1 16 8
M  V30 20 2 16 12
M  V30 21 1 1 19
M  V30 22 1 1 20
M  V30 23 1 2 21
M  V30 24 1 2 22
M  V30 25 1 3 23
M  V30 26 1 3 24
M  V30 27 1 5 25
M  V30 28 1 6 26
M  V30 29 1 10 27
M  V30 30 1 13 28
M  V30 31 1 14 29
M  V30 32 1 17 30
M  V30 33 1 18 31
M  V30 END BOND
M  V30 END CTAB
M  END
>  <Dataset>  (460) 
ChEMBL_Kinases

>  <Ligand_Instance>  (460) 
nan

>  <PDB_ID>  (460) 
nan

>  <Standardized_SMILES>  (460) 
NCCc1ccc(-c2ncnc3[nH]cnc23)cc1

>  <Name>  (460) 
nan

>  <Pocket>  (460) 
nan

>  <ATP_Site>  (460) 
nan

>  <Peripheral>  (460) 
nan

>  <Num_H_Atoms_ProtBoundConf>  (460) 
nan

>  <Num_Resolved_Atoms>  (460) 
nan

>  <Num_Not_Resolved_Atoms>  (460) 
nan

$$$$
CHEMBL227725
     RDKit          3D

  0  0  0  0  0  0  0  0  0  0999 V3000
M  V30 BEGIN CTAB
M  V30 COUNTS 42 44 0 0 0
M  V30 BEGIN ATOM
M  V30 1 N 1.825830 -6.921596 1.345030 0
M  V30 2 C 1.929573 -5.758504 0.536114 0
M  V30 3 C 0.984490 -5.381110 -0.396075 0
M  V30 4 C 1.117648 -4.244835 -1.164573 0
M  V30 5 C 2.222812 -3.421191 -1.031450 0
M  V30 6 S 2.506909 -1.956405 -1.945214 0
M  V30 7 O 1.942417 -2.097198 -3.342927 0
M  V30 8 O 3.992220 -1.820815 -2.128012 0
M  V30 9 C 1.831045 -0.561541 -1.138303 0
M  V30 10 C 2.669337 0.082160 -0.257770 0
M  V30 11 C 2.318501 1.192073 0.466696 0
M  V30 12 C 1.018695 1.688799 0.285914 0
M  V30 13 N 0.479652 2.832034 0.924408 0
M  V30 14 C -0.700304 3.641654 1.086203 0
M  V30 15 N -1.742152 3.014765 1.875301 0
M  V30 16 C -2.866574 2.208323 1.583234 0
M  V30 17 O -3.028940 2.003173 0.363624 0
M  V30 18 N -3.733419 1.681185 2.568865 0
M  V30 19 C -3.567483 1.906620 3.960018 0
M  V30 20 O -4.367466 1.413817 4.789867 0
M  V30 21 C -2.429783 2.730056 4.335008 0
M  V30 22 O -2.266781 2.940679 5.557379 0
M  V30 23 C -1.550395 3.260572 3.288212 0
M  V30 24 O -0.611958 3.953270 3.767206 0
M  V30 25 C 0.186403 1.035827 -0.599920 0
M  V30 26 C 0.551088 -0.081702 -1.324009 0
M  V30 27 C 3.159734 -3.829499 -0.081459 0
M  V30 28 C 3.053230 -4.961745 0.702227 0
M  V30 29 H 1.120412 -7.160247 2.094183 0
M  V30 30 H 2.440125 -7.781274 1.353930 0
M  V30 31 H 0.107979 -6.018535 -0.513618 0
M  V30 32 H 0.387252 -3.936803 -1.897399 0
M  V30 33 H 3.683984 -0.223144 -0.051313 0
M  V30 34 H 2.950469 1.705211 1.152728 0
M  V30 35 H 1.262790 3.252687 1.525225 0
M  V30 36 H -1.109463 3.900744 0.060533 0
M  V30 37 H -0.423933 4.614110 1.520751 0
M  V30 38 H -4.514830 1.105863 2.186793 0
M  V30 39 H -0.827427 1.273015 -0.875917 0
M  V30 40 H -0.015550 -0.654607 -2.028350 0
M  V30 41 H 4.049567 -3.218408 0.065138 0
M  V30 42 H 3.829188 -5.200020 1.413439 0
M  V30 END ATOM
M  V30 BEGIN BOND
M  V30 1 1 1 2
M  V30 2 2 2 3
M  V30 3 1 3 4
M  V30 4 2 4 5
M  V30 5 1 5 6
M  V30 6 2 6 7
M  V30 7 2 6 8
M  V30 8 1 6 9
M  V30 9 2 9 10
M  V30 10 1 10 11
M  V30 11 2 11 12
M  V30 12 1 12 13
M  V30 13 1 13 14
M  V30 14 1 14 15
M  V30 15 1 15 16
M  V30 16 2 16 17
M  V30 17 1 16 18
M  V30 18 1 18 19
M  V30 19 2 19 20
M  V30 20 1 19 21
M  V30 21 2 21 22
M  V30 22 1 21 23
M  V30 23 2 23 24
M  V30 24 1 12 25
M  V30 25 2 25 26
M  V30 26 1 5 27
M  V30 27 2 27 28
M  V30 28 1 28 2
M  V30 29 1 26 9
M  V30 30 1 23 15
M  V30 31 1 1 29
M  V30 32 1 1 30
M  V30 33 1 3 31
M  V30 34 1 4 32
M  V30 35 1 10 33
M  V30 36 1 11 34
M  V30 37 1 13 35
M  V30 38 1 14 36
M  V30 39 1 14 37
M  V30 40 1 18 38
M  V30 41 1 25 39
M  V30 42 1 26 40
M  V30 43 1 27 41
M  V30 44 1 28 42
M  V30 END BOND
M  V30 END CTAB
M  END
>  <Dataset>  (461) 
ChEMBL_Kinases

>  <Ligand_Instance>  (461) 
nan

>  <PDB_ID>  (461) 
nan

>  <Standardized_SMILES>  (461) 
Nc1ccc(S(=O)(=O)c2ccc(NCN3C(=O)NC(=O)C(=O)C3=O)cc2)cc1

>  <Name>  (461) 
ALLANTODAPSONE

>  <Pocket>  (461) 
nan

>  <ATP_Site>  (461) 
nan

>  <Peripheral>  (461) 
nan

>  <Num_H_Atoms_ProtBoundConf>  (461) 
nan

>  <Num_Resolved_Atoms>  (461) 
nan

>  <Num_Not_Resolved_Atoms>  (461) 
nan

$$$$
CHEMBL227605
     RDKit          3D

  0  0  0  0  0  0  0  0  0  0999 V3000
M  V30 BEGIN CTAB
M  V30 COUNTS 41 44 0 0 0
M  V30 BEGIN ATOM
M  V30 1 N 2.343898 -3.195196 -0.803390 0
M  V30 2 C 1.552828 -3.359917 0.403894 0
M  V30 3 C 0.208557 -3.951825 0.139603 0
M  V30 4 C -0.632123 -3.142531 -0.772908 0
M  V30 5 C -0.612127 -3.323544 -2.147182 0
M  V30 6 C -1.387878 -2.579243 -3.010617 0
M  V30 7 C -2.205963 -1.626763 -2.475113 0
M  V30 8 C -2.271385 -1.396785 -1.104923 0
M  V30 9 C -1.483025 -2.157261 -0.262696 0
M  V30 10 C 1.514340 -2.055403 1.089071 0
M  V30 11 C 1.268302 -0.912664 0.325184 0
M  V30 12 C 1.237418 0.308706 1.000152 0
M  V30 13 C 1.433303 0.449196 2.359411 0
M  V30 14 C 1.371146 1.795928 2.923025 0
M  V30 15 N 2.267361 2.288554 3.820404 0
M  V30 16 C 2.159455 3.538764 4.305853 0
M  V30 17 N 1.148870 4.372854 3.923734 0
M  V30 18 C 0.254219 3.883931 3.029211 0
M  V30 19 N -0.822848 4.529237 2.511506 0
M  V30 20 C -1.397277 3.631925 1.672752 0
M  V30 21 N -0.719586 2.469469 1.655664 0
M  V30 22 C 0.317854 2.610978 2.500155 0
M  V30 23 C 1.677934 -0.689553 3.117108 0
M  V30 24 C 1.711587 -1.904732 2.464363 0
M  V30 25 H 3.310226 -2.913332 -0.524653 0
M  V30 26 H 2.481400 -4.136059 -1.282040 0
M  V30 27 H 2.101591 -4.078212 1.045010 0
M  V30 28 H -0.280281 -4.122857 1.117549 0
M  V30 29 H 0.378455 -4.946895 -0.320602 0
M  V30 30 H 0.043064 -4.087322 -2.584121 0
M  V30 31 H -1.356010 -2.738196 -4.083128 0
M  V30 32 H -2.845547 -1.000822 -3.080774 0
M  V30 33 H -2.933975 -0.629456 -0.706667 0
M  V30 34 H -1.545892 -1.965717 0.799622 0
M  V30 35 H 1.102422 -0.913197 -0.741190 0
M  V30 36 H 1.043406 1.203895 0.393625 0
M  V30 37 H 2.896865 3.893174 5.021113 0
M  V30 38 H -1.224626 5.482293 2.641218 0
M  V30 39 H -2.279024 3.668488 1.026092 0
M  V30 40 H 1.830379 -0.585683 4.171043 0
M  V30 41 H 1.895523 -2.810279 2.998722 0
M  V30 END ATOM
M  V30 BEGIN BOND
M  V30 1 1 1 2
M  V30 2 1 2 3
M  V30 3 1 3 4
M  V30 4 2 4 5
M  V30 5 1 5 6
M  V30 6 2 6 7
M  V30 7 1 7 8
M  V30 8 2 8 9
M  V30 9 1 2 10
M  V30 10 2 10 11
M  V30 11 1 11 12
M  V30 12 2 12 13
M  V30 13 1 13 14
M  V30 14 2 14 15
M  V30 15 1 15 16
M  V30 16 2 16 17
M  V30 17 1 17 18
M  V30 18 1 18 19
M  V30 19 1 19 20
M  V30 20 2 20 21
M  V30 21 1 21 22
M  V30 22 1 13 23
M  V30 23 2 23 24
M  V30 24 1 9 4
M  V30 25 1 24 10
M  V30 26 1 22 14
M  V30 27 2 22 18
M  V30 28 1 1 25
M  V30 29 1 1 26
M  V30 30 1 2 27
M  V30 31 1 3 28
M  V30 32 1 3 29
M  V30 33 1 5 30
M  V30 34 1 6 31
M  V30 35 1 7 32
M  V30 36 1 8 33
M  V30 37 1 9 34
M  V30 38 1 11 35
M  V30 39 1 12 36
M  V30 40 1 16 37
M  V30 41 1 19 38
M  V30 42 1 20 39
M  V30 43 1 23 40
M  V30 44 1 24 41
M  V30 END BOND
M  V30 END CTAB
M  END
>  <Dataset>  (462) 
ChEMBL_Kinases

>  <Ligand_Instance>  (462) 
nan

>  <PDB_ID>  (462) 
nan

>  <Standardized_SMILES>  (462) 
NC(Cc1ccccc1)c1ccc(-c2ncnc3[nH]cnc23)cc1

>  <Name>  (462) 
nan

>  <Pocket>  (462) 
nan

>  <ATP_Site>  (462) 
nan

>  <Peripheral>  (462) 
nan

>  <Num_H_Atoms_ProtBoundConf>  (462) 
nan

>  <Num_Resolved_Atoms>  (462) 
nan

>  <Num_Not_Resolved_Atoms>  (462) 
nan

$$$$
CHEMBL227491
     RDKit          3D

  0  0  0  0  0  0  0  0  0  0999 V3000
M  V30 BEGIN CTAB
M  V30 COUNTS 27 29 0 0 0
M  V30 BEGIN ATOM
M  V30 1 O 0.346319 -1.353867 -1.308881 0
M  V30 2 C 0.510060 -1.693957 -0.106379 0
M  V30 3 N 0.829982 -2.890484 0.557502 0
M  V30 4 C 0.885513 -2.689876 1.966376 0
M  V30 5 C 1.169962 -3.628921 2.952139 0
M  V30 6 C 1.168631 -3.202737 4.283971 0
M  V30 7 C 0.889178 -1.883383 4.572727 0
M  V30 8 C 0.614225 -0.997996 3.549165 0
M  V30 9 C 0.602528 -1.363371 2.228637 0
M  V30 10 C 0.357746 -0.695221 0.936983 0
M  V30 11 N 0.063311 0.578400 0.872254 0
M  V30 12 C -0.169197 1.196022 -0.408573 0
M  V30 13 C 0.671760 2.107948 -1.045980 0
M  V30 14 C 0.272933 2.589668 -2.275216 0
M  V30 15 C -0.908942 2.197067 -2.868744 0
M  V30 16 C -1.762920 1.283472 -2.242340 0
M  V30 17 C -1.357760 0.806188 -1.013825 0
M  V30 18 H 0.988508 -3.769144 -0.018989 0
M  V30 19 H 1.388792 -4.665489 2.715284 0
M  V30 20 H 1.385081 -3.896896 5.098786 0
M  V30 21 H 0.888271 -1.550283 5.615773 0
M  V30 22 H 0.397603 0.030498 3.791585 0
M  V30 23 H 1.566997 2.348373 -0.501023 0
M  V30 24 H 0.960057 3.296266 -2.731470 0
M  V30 25 H -1.192826 2.596591 -3.838611 0
M  V30 26 H -2.672237 1.005401 -2.739212 0
M  V30 27 H -2.047916 0.101368 -0.563703 0
M  V30 END ATOM
M  V30 BEGIN BOND
M  V30 1 2 1 2
M  V30 2 1 2 3
M  V30 3 1 3 4
M  V30 4 2 4 5
M  V30 5 1 5 6
M  V30 6 2 6 7
M  V30 7 1 7 8
M  V30 8 2 8 9
M  V30 9 1 9 10
M  V30 10 2 10 11
M  V30 11 1 11 12
M  V30 12 2 12 13
M  V30 13 1 13 14
M  V30 14 2 14 15
M  V30 15 1 15 16
M  V30 16 2 16 17
M  V30 17 1 10 2
M  V30 18 1 17 12
M  V30 19 1 9 4
M  V30 20 1 3 18
M  V30 21 1 5 19
M  V30 22 1 6 20
M  V30 23 1 7 21
M  V30 24 1 8 22
M  V30 25 1 13 23
M  V30 26 1 14 24
M  V30 27 1 15 25
M  V30 28 1 16 26
M  V30 29 1 17 27
M  V30 END BOND
M  V30 END CTAB
M  END
>  <Dataset>  (463) 
ChEMBL_Kinases

>  <Ligand_Instance>  (463) 
nan

>  <PDB_ID>  (463) 
nan

>  <Standardized_SMILES>  (463) 
O=C1Nc2ccccc2/C1=N/c1ccccc1

>  <Name>  (463) 
nan

>  <Pocket>  (463) 
nan

>  <ATP_Site>  (463) 
nan

>  <Peripheral>  (463) 
nan

>  <Num_H_Atoms_ProtBoundConf>  (463) 
nan

>  <Num_Resolved_Atoms>  (463) 
nan

>  <Num_Not_Resolved_Atoms>  (463) 
nan

$$$$
CHEMBL226870
     RDKit          3D

  0  0  0  0  0  0  0  0  0  0999 V3000
M  V30 BEGIN CTAB
M  V30 COUNTS 30 31 0 0 0
M  V30 BEGIN ATOM
M  V30 1 N 0.357793 -2.153198 3.032597 0
M  V30 2 C -0.917740 -2.596480 3.549700 0
M  V30 3 C -2.021387 -1.660825 3.228180 0
M  V30 4 C -2.317541 -1.398842 1.808644 0
M  V30 5 C -1.217288 -0.820125 1.005197 0
M  V30 6 C -0.360206 -1.719914 0.364043 0
M  V30 7 C 0.703417 -1.256192 -0.415457 0
M  V30 8 C 0.942092 0.094106 -0.577500 0
M  V30 9 C 2.072156 0.493786 -1.408571 0
M  V30 10 C 2.583668 -0.168685 -2.520317 0
M  V30 11 N 3.633520 0.493876 -3.033558 0
M  V30 12 N 3.817385 1.578395 -2.276684 0
M  V30 13 C 2.895019 1.593606 -1.303116 0
M  V30 14 C 0.093690 0.977487 0.057223 0
M  V30 15 C -0.962231 0.526496 0.831205 0
M  V30 16 H 0.456494 -1.138401 3.260961 0
M  V30 17 H 1.123337 -2.750241 3.418049 0
M  V30 18 H -1.124280 -3.653183 3.262960 0
M  V30 19 H -0.831185 -2.613352 4.671292 0
M  V30 20 H -2.948662 -2.073483 3.720638 0
M  V30 21 H -1.825392 -0.704641 3.797105 0
M  V30 22 H -3.204962 -0.701969 1.796747 0
M  V30 23 H -2.727596 -2.331450 1.345323 0
M  V30 24 H -0.484239 -2.795140 0.444028 0
M  V30 25 H 1.353829 -1.993346 -0.901753 0
M  V30 26 H 2.167411 -1.098599 -2.901293 0
M  V30 27 H 4.567246 2.280809 -2.442697 0
M  V30 28 H 2.748611 2.330772 -0.506523 0
M  V30 29 H 0.266684 2.031831 -0.059330 0
M  V30 30 H -1.636766 1.209759 1.335812 0
M  V30 END ATOM
M  V30 BEGIN BOND
M  V30 1 1 1 2
M  V30 2 1 2 3
M  V30 3 1 3 4
M  V30 4 1 4 5
M  V30 5 2 5 6
M  V30 6 1 6 7
M  V30 7 2 7 8
M  V30 8 1 8 9
M  V30 9 1 9 10
M  V30 10 2 10 11
M  V30 11 1 11 12
M  V30 12 1 12 13
M  V30 13 1 8 14
M  V30 14 2 14 15
M  V30 15 1 15 5
M  V30 16 2 13 9
M  V30 17 1 1 16
M  V30 18 1 1 17
M  V30 19 1 2 18
M  V30 20 1 2 19
M  V30 21 1 3 20
M  V30 22 1 3 21
M  V30 23 1 4 22
M  V30 24 1 4 23
M  V30 25 1 6 24
M  V30 26 1 7 25
M  V30 27 1 10 26
M  V30 28 1 12 27
M  V30 29 1 13 28
M  V30 30 1 14 29
M  V30 31 1 15 30
M  V30 END BOND
M  V30 END CTAB
M  END
>  <Dataset>  (464) 
ChEMBL_Kinases

>  <Ligand_Instance>  (464) 
nan

>  <PDB_ID>  (464) 
nan

>  <Standardized_SMILES>  (464) 
NCCCc1ccc(-c2cn[nH]c2)cc1

>  <Name>  (464) 
nan

>  <Pocket>  (464) 
nan

>  <ATP_Site>  (464) 
nan

>  <Peripheral>  (464) 
nan

>  <Num_H_Atoms_ProtBoundConf>  (464) 
nan

>  <Num_Resolved_Atoms>  (464) 
nan

>  <Num_Not_Resolved_Atoms>  (464) 
nan

$$$$
CHEMBL226898
     RDKit          3D

  0  0  0  0  0  0  0  0  0  0999 V3000
M  V30 BEGIN CTAB
M  V30 COUNTS 51 54 0 0 0
M  V30 BEGIN ATOM
M  V30 1 C 2.401593 -4.285251 1.104070 0
M  V30 2 C 3.473542 -3.908281 0.132063 0
M  V30 3 N 4.391251 -4.689090 -0.469969 0
M  V30 4 N 5.159720 -3.953837 -1.263754 0
M  V30 5 C 4.751720 -2.688666 -1.187533 0
M  V30 6 C 5.107591 -1.463983 -1.739505 0
M  V30 7 N 4.490910 -0.317977 -1.464513 0
M  V30 8 C 3.454103 -0.230180 -0.618709 0
M  V30 9 C 2.856206 1.072854 -0.392179 0
M  V30 10 C 3.338194 2.191471 -1.027274 0
M  V30 11 N 2.748602 3.401467 -0.788171 0
M  V30 12 C 1.688173 3.462289 0.082523 0
M  V30 13 C 1.164995 2.335512 0.753047 0
M  V30 14 O 0.159013 2.837329 1.488887 0
M  V30 15 C -0.780964 2.379080 2.340899 0
M  V30 16 C -1.854101 1.461127 1.909211 0 CFG=1
M  V30 17 N -2.621459 2.187127 0.874606 0
M  V30 18 C -1.506536 0.095414 1.457171 0
M  V30 19 C -2.758487 -0.689399 1.087609 0
M  V30 20 C -3.268808 -0.669822 -0.208770 0
M  V30 21 C -4.409651 -1.404089 -0.481191 0
M  V30 22 C -5.014364 -2.133611 0.522904 0
M  V30 23 C -4.496652 -2.138495 1.787522 0
M  V30 24 C -5.132580 -2.914558 2.873424 0
M  V30 25 F -5.647583 -2.029568 3.822891 0
M  V30 26 F -6.146988 -3.742688 2.389753 0
M  V30 27 F -4.244860 -3.736981 3.525420 0
M  V30 28 C -3.370487 -1.424253 2.092134 0
M  V30 29 C 1.796828 1.147306 0.475350 0
M  V30 30 C 3.065108 -1.418871 -0.046637 0
M  V30 31 C 3.692067 -2.616923 -0.319342 0
M  V30 32 H 2.109501 -5.319431 0.877588 0
M  V30 33 H 1.556445 -3.578612 1.042004 0
M  V30 34 H 2.821764 -4.206206 2.128882 0
M  V30 35 H 5.965586 -4.271785 -1.869089 0
M  V30 36 H 5.948016 -1.452360 -2.442368 0
M  V30 37 H 4.174883 2.040184 -1.693201 0
M  V30 38 H 1.423638 4.535491 0.079345 0
M  V30 39 H -0.235713 1.835189 3.185611 0
M  V30 40 H -1.262154 3.231908 2.935288 0
M  V30 41 H -2.592553 1.332685 2.755597 0
M  V30 42 H -3.395294 2.730851 1.265948 0
M  V30 43 H -1.976220 2.822463 0.369991 0
M  V30 44 H -0.891499 0.174690 0.523776 0
M  V30 45 H -0.993809 -0.459955 2.228152 0
M  V30 46 H -2.765957 -0.084576 -0.971528 0
M  V30 47 H -4.833790 -1.408741 -1.488023 0
M  V30 48 H -5.912452 -2.706997 0.292805 0
M  V30 49 H -2.952540 -1.427144 3.109485 0
M  V30 50 H 1.340746 0.369436 1.039946 0
M  V30 51 H 2.233014 -1.398255 0.642514 0
M  V30 END ATOM
M  V30 BEGIN BOND
M  V30 1 1 1 2
M  V30 2 2 2 3
M  V30 3 1 3 4
M  V30 4 1 4 5
M  V30 5 2 5 6
M  V30 6 1 6 7
M  V30 7 2 7 8
M  V30 8 1 8 9
M  V30 9 2 9 10
M  V30 10 1 10 11
M  V30 11 2 11 12
M  V30 12 1 12 13
M  V30 13 1 13 14
M  V30 14 1 14 15
M  V30 15 1 15 16
M  V30 16 1 16 17
M  V30 17 1 16 18
M  V30 18 1 18 19
M  V30 19 2 19 20
M  V30 20 1 20 21
M  V30 21 2 21 22
M  V30 22 1 22 23
M  V30 23 1 23 24
M  V30 24 1 24 25
M  V30 25 1 24 26
M  V30 26 1 24 27
M  V30 27 2 23 28
M  V30 28 2 13 29
M  V30 29 1 8 30
M  V30 30 2 30 31
M  V30 31 1 31 2
M  V30 32 1 31 5
M  V30 33 1 29 9
M  V30 34 1 28 19
M  V30 35 1 1 32
M  V30 36 1 1 33
M  V30 37 1 1 34
M  V30 38 1 4 35
M  V30 39 1 6 36
M  V30 40 1 10 37
M  V30 41 1 12 38
M  V30 42 1 15 39
M  V30 43 1 15 40
M  V30 44 1 16 41 CFG=1
M  V30 45 1 17 42
M  V30 46 1 17 43
M  V30 47 1 18 44
M  V30 48 1 18 45
M  V30 49 1 20 46
M  V30 50 1 21 47
M  V30 51 1 22 48
M  V30 52 1 28 49
M  V30 53 1 29 50
M  V30 54 1 30 51
M  V30 END BOND
M  V30 END CTAB
M  END
>  <Dataset>  (465) 
ChEMBL_Kinases

>  <Ligand_Instance>  (465) 
nan

>  <PDB_ID>  (465) 
nan

>  <Standardized_SMILES>  (465) 
Cc1n[nH]c2cnc(-c3cncc(OC[C@@H](N)Cc4cccc(C(F)(F)F)c4)c3)cc12

>  <Name>  (465) 
nan

>  <Pocket>  (465) 
nan

>  <ATP_Site>  (465) 
nan

>  <Peripheral>  (465) 
nan

>  <Num_H_Atoms_ProtBoundConf>  (465) 
nan

>  <Num_Resolved_Atoms>  (465) 
nan

>  <Num_Not_Resolved_Atoms>  (465) 
nan

$$$$
CHEMBL226996
     RDKit          3D

  0  0  0  0  0  0  0  0  0  0999 V3000
M  V30 BEGIN CTAB
M  V30 COUNTS 52 55 0 0 0
M  V30 BEGIN ATOM
M  V30 1 C 0.728603 -4.957710 5.331617 0
M  V30 2 C 1.072562 -4.787096 3.881237 0
M  V30 3 C 1.224338 -3.449451 3.542713 0
M  V30 4 C 1.543424 -3.105334 2.243400 0
M  V30 5 C 1.718740 -1.654613 1.829001 0
M  V30 6 C 3.120462 -1.218885 1.994657 0 CFG=2
M  V30 7 N 3.513804 -1.385931 3.414977 0
M  V30 8 C 3.430167 0.220041 1.690975 0
M  V30 9 O 3.173989 0.730130 0.469928 0
M  V30 10 C 2.131258 0.992162 -0.335360 0
M  V30 11 C 2.749917 1.518154 -1.494234 0
M  V30 12 N 2.062460 1.935057 -2.607399 0
M  V30 13 C 0.701003 1.834038 -2.589947 0
M  V30 14 C 0.040156 1.330886 -1.491839 0
M  V30 15 C -1.400969 1.170317 -1.344927 0
M  V30 16 C -1.973080 0.157172 -0.581918 0
M  V30 17 C -3.335099 0.031156 -0.462463 0
M  V30 18 C -4.201548 0.902590 -1.092951 0
M  V30 19 N -5.533078 0.987451 -1.130760 0
M  V30 20 N -5.859916 2.035107 -1.902383 0
M  V30 21 C -4.724611 2.611516 -2.351802 0
M  V30 22 C -4.695013 3.796766 -3.232160 0
M  V30 23 C -3.653205 1.921506 -1.859815 0
M  V30 24 C -2.282288 2.048114 -1.979833 0
M  V30 25 C 0.756273 0.926962 -0.404301 0
M  V30 26 C 1.707643 -4.103310 1.295002 0
M  V30 27 C 1.554364 -5.426484 1.643519 0
M  V30 28 C 1.234142 -5.785266 2.944115 0
M  V30 29 Br 0.989819 -7.567999 3.576482 0
M  V30 30 H 1.499367 -4.439807 5.916541 0
M  V30 31 H -0.250306 -4.431823 5.486169 0
M  V30 32 H 0.582956 -6.026299 5.599563 0
M  V30 33 H 1.115263 -2.606073 4.215758 0
M  V30 34 H 1.039121 -1.065420 2.425815 0
M  V30 35 H 1.370542 -1.584809 0.751679 0
M  V30 36 H 3.770460 -1.919176 1.411113 0
M  V30 37 H 3.467104 -2.393057 3.686209 0
M  V30 38 H 2.879585 -0.806243 4.019806 0
M  V30 39 H 4.539031 0.383433 1.947781 0
M  V30 40 H 2.944001 0.788551 2.544883 0
M  V30 41 H 3.798972 1.709633 -1.780070 0
M  V30 42 H 0.034496 2.121350 -3.389540 0
M  V30 43 H -1.266192 -0.505812 -0.103198 0
M  V30 44 H -3.689554 -0.786342 0.151119 0
M  V30 45 H -6.186653 0.331238 -0.631208 0
M  V30 46 H -5.331212 4.619417 -2.802837 0
M  V30 47 H -3.681253 4.188146 -3.368858 0
M  V30 48 H -5.192890 3.570698 -4.214032 0
M  V30 49 H -1.910919 2.860279 -2.589652 0
M  V30 50 H 0.407302 0.533667 0.516316 0
M  V30 51 H 1.960374 -3.886485 0.252643 0
M  V30 52 H 1.670428 -6.258654 0.942159 0
M  V30 END ATOM
M  V30 BEGIN BOND
M  V30 1 1 1 2
M  V30 2 2 2 3
M  V30 3 1 3 4
M  V30 4 1 4 5
M  V30 5 1 5 6
M  V30 6 1 6 7
M  V30 7 1 6 8
M  V30 8 1 8 9
M  V30 9 1 9 10
M  V30 10 2 10 11
M  V30 11 1 11 12
M  V30 12 2 12 13
M  V30 13 1 13 14
M  V30 14 1 14 15
M  V30 15 2 15 16
M  V30 16 1 16 17
M  V30 17 2 17 18
M  V30 18 1 18 19
M  V30 19 1 19 20
M  V30 20 2 20 21
M  V30 21 1 21 22
M  V30 22 1 21 23
M  V30 23 2 23 24
M  V30 24 2 14 25
M  V30 25 2 4 26
M  V30 26 1 26 27
M  V30 27 2 27 28
M  V30 28 1 28 29
M  V30 29 1 28 2
M  V30 30 1 25 10
M  V30 31 1 24 15
M  V30 32 1 23 18
M  V30 33 1 1 30
M  V30 34 1 1 31
M  V30 35 1 1 32
M  V30 36 1 3 33
M  V30 37 1 5 34
M  V30 38 1 5 35
M  V30 39 1 6 36 CFG=3
M  V30 40 1 7 37
M  V30 41 1 7 38
M  V30 42 1 8 39
M  V30 43 1 8 40
M  V30 44 1 11 41
M  V30 45 1 13 42
M  V30 46 1 16 43
M  V30 47 1 17 44
M  V30 48 1 19 45
M  V30 49 1 22 46
M  V30 50 1 22 47
M  V30 51 1 22 48
M  V30 52 1 24 49
M  V30 53 1 25 50
M  V30 54 1 26 51
M  V30 55 1 27 52
M  V30 END BOND
M  V30 END CTAB
M  END
>  <Dataset>  (466) 
ChEMBL_Kinases

>  <Ligand_Instance>  (466) 
nan

>  <PDB_ID>  (466) 
nan

>  <Standardized_SMILES>  (466) 
Cc1cc(C[C@H](N)COc2cncc(-c3ccc4[nH]nc(C)c4c3)c2)ccc1Br

>  <Name>  (466) 
nan

>  <Pocket>  (466) 
nan

>  <ATP_Site>  (466) 
nan

>  <Peripheral>  (466) 
nan

>  <Num_H_Atoms_ProtBoundConf>  (466) 
nan

>  <Num_Resolved_Atoms>  (466) 
nan

>  <Num_Not_Resolved_Atoms>  (466) 
nan

$$$$
CHEMBL227029
     RDKit          3D

  0  0  0  0  0  0  0  0  0  0999 V3000
M  V30 BEGIN CTAB
M  V30 COUNTS 37 39 0 0 0
M  V30 BEGIN ATOM
M  V30 1 N -1.552502 -2.491569 2.719238 0
M  V30 2 C -1.481683 -3.011257 1.404716 0
M  V30 3 C -0.324440 -2.462525 0.612759 0
M  V30 4 C 0.929502 -2.817311 1.327189 0
M  V30 5 C 1.899609 -3.618692 0.717198 0
M  V30 6 C 3.080237 -3.930631 1.393531 0
M  V30 7 C 3.349289 -3.483551 2.654311 0
M  V30 8 C 2.412619 -2.688824 3.286667 0
M  V30 9 C 1.258023 -2.399321 2.592043 0
M  V30 10 C -0.426546 -1.017601 0.290001 0
M  V30 11 C -1.049555 -0.000230 0.972023 0
M  V30 12 C -1.052004 1.306454 0.537680 0
M  V30 13 C -0.409180 1.661141 -0.637960 0
M  V30 14 C -0.411191 3.043139 -1.099279 0
M  V30 15 C -1.292894 4.100410 -1.013658 0
M  V30 16 N -0.771218 5.177013 -1.633106 0
M  V30 17 N 0.435073 4.851527 -2.125154 0
M  V30 18 C 0.663435 3.557921 -1.806615 0
M  V30 19 C 0.229689 0.672507 -1.356509 0
M  V30 20 C 0.217070 -0.629267 -0.898615 0
M  V30 21 H -1.298444 -3.220122 3.453025 0
M  V30 22 H -2.496947 -2.163047 3.025874 0
M  V30 23 H -1.279932 -4.114121 1.490391 0
M  V30 24 H -2.439028 -2.958255 0.839782 0
M  V30 25 H -0.258137 -3.046474 -0.376803 0
M  V30 26 H 1.737243 -4.000119 -0.284257 0
M  V30 27 H 3.781243 -4.557217 0.851609 0
M  V30 28 H 4.274256 -3.755287 3.125531 0
M  V30 29 H 2.616113 -2.330725 4.282564 0
M  V30 30 H 0.586264 -1.766150 3.151286 0
M  V30 31 H -1.537308 -0.299898 1.872791 0
M  V30 32 H -1.578313 2.037071 1.157472 0
M  V30 33 H -2.244392 3.961892 -0.494080 0
M  V30 34 H 0.945818 5.606537 -2.631615 0
M  V30 35 H 1.616287 3.142661 -2.142186 0
M  V30 36 H 0.711132 0.992011 -2.254656 0
M  V30 37 H 0.758459 -1.304514 -1.560215 0
M  V30 END ATOM
M  V30 BEGIN BOND
M  V30 1 1 1 2
M  V30 2 1 2 3
M  V30 3 1 3 4
M  V30 4 2 4 5
M  V30 5 1 5 6
M  V30 6 2 6 7
M  V30 7 1 7 8
M  V30 8 2 8 9
M  V30 9 1 3 10
M  V30 10 2 10 11
M  V30 11 1 11 12
M  V30 12 2 12 13
M  V30 13 1 13 14
M  V30 14 1 14 15
M  V30 15 2 15 16
M  V30 16 1 16 17
M  V30 17 1 17 18
M  V30 18 1 13 19
M  V30 19 2 19 20
M  V30 20 1 9 4
M  V30 21 1 20 10
M  V30 22 2 18 14
M  V30 23 1 1 21
M  V30 24 1 1 22
M  V30 25 1 2 23
M  V30 26 1 2 24
M  V30 27 1 3 25
M  V30 28 1 5 26
M  V30 29 1 6 27
M  V30 30 1 7 28
M  V30 31 1 8 29
M  V30 32 1 9 30
M  V30 33 1 11 31
M  V30 34 1 12 32
M  V30 35 1 15 33
M  V30 36 1 17 34
M  V30 37 1 18 35
M  V30 38 1 19 36
M  V30 39 1 20 37
M  V30 END BOND
M  V30 END CTAB
M  END
>  <Dataset>  (467) 
ChEMBL_Kinases

>  <Ligand_Instance>  (467) 
nan

>  <PDB_ID>  (467) 
nan

>  <Standardized_SMILES>  (467) 
NCC(c1ccccc1)c1ccc(-c2cn[nH]c2)cc1

>  <Name>  (467) 
nan

>  <Pocket>  (467) 
nan

>  <ATP_Site>  (467) 
nan

>  <Peripheral>  (467) 
nan

>  <Num_H_Atoms_ProtBoundConf>  (467) 
nan

>  <Num_Resolved_Atoms>  (467) 
nan

>  <Num_Not_Resolved_Atoms>  (467) 
nan

$$$$
CHEMBL227050
     RDKit          3D

  0  0  0  0  0  0  0  0  0  0999 V3000
M  V30 BEGIN CTAB
M  V30 COUNTS 52 55 0 0 0
M  V30 BEGIN ATOM
M  V30 1 C -0.768651 -2.418779 3.691976 0
M  V30 2 C 0.595997 -2.184563 3.118370 0
M  V30 3 C 0.856178 -2.483956 1.801585 0
M  V30 4 C 2.125116 -2.266530 1.263393 0
M  V30 5 C 3.156266 -1.743771 2.039337 0
M  V30 6 C 4.452289 -1.548817 1.377177 0
M  V30 7 C 4.622006 -0.154687 0.776248 0 CFG=2
M  V30 8 N 4.518941 0.801783 1.810328 0
M  V30 9 C 3.815374 0.044214 -0.453063 0
M  V30 10 O 2.465874 0.105514 -0.387685 0
M  V30 11 C 1.508594 0.857384 0.151138 0
M  V30 12 C 1.392979 1.987716 0.922918 0
M  V30 13 N 0.221276 2.498028 1.307926 0
M  V30 14 C -0.962574 1.941830 0.968437 0
M  V30 15 C -0.956982 0.801350 0.192855 0
M  V30 16 C -2.271068 0.276012 -0.116757 0
M  V30 17 C -3.288766 0.437934 0.807697 0
M  V30 18 C -4.573295 -0.037648 0.585851 0
M  V30 19 C -4.852435 -0.694765 -0.593348 0
M  V30 20 N -5.980945 -1.261744 -1.092925 0
M  V30 21 N -5.692404 -1.767684 -2.294932 0
M  V30 22 C -4.412662 -1.548050 -2.593381 0
M  V30 23 C -3.763469 -1.980436 -3.858077 0
M  V30 24 C -3.865023 -0.869069 -1.525836 0
M  V30 25 C -2.573372 -0.387973 -1.296731 0
M  V30 26 C 0.279225 0.270513 -0.208376 0
M  V30 27 C 2.901169 -1.442247 3.359124 0
M  V30 28 C 1.633460 -1.668835 3.864193 0
M  V30 29 F 1.369452 -1.376753 5.160935 0
M  V30 30 H -0.973561 -1.590166 4.410930 0
M  V30 31 H -1.503224 -2.314657 2.860809 0
M  V30 32 H -0.858760 -3.394456 4.191337 0
M  V30 33 H 0.024080 -2.888792 1.233311 0
M  V30 34 H 2.171362 -2.552376 0.221181 0
M  V30 35 H 4.625325 -2.298119 0.564444 0
M  V30 36 H 5.236456 -1.753594 2.128514 0
M  V30 37 H 5.714136 -0.135400 0.439823 0
M  V30 38 H 4.619639 1.771596 1.460998 0
M  V30 39 H 3.602271 0.715964 2.284141 0
M  V30 40 H 4.230365 0.901386 -1.069537 0
M  V30 41 H 4.072768 -0.846234 -1.122790 0
M  V30 42 H 2.358087 2.395451 1.156523 0
M  V30 43 H -1.785781 2.507403 1.380113 0
M  V30 44 H -3.107892 0.947860 1.743119 0
M  V30 45 H -5.326245 0.114404 1.336115 0
M  V30 46 H -6.868830 -1.246479 -0.543036 0
M  V30 47 H -2.682873 -1.718138 -3.874089 0
M  V30 48 H -4.242454 -1.438707 -4.702478 0
M  V30 49 H -3.859368 -3.070846 -4.005640 0
M  V30 50 H -1.798638 -0.528434 -2.036301 0
M  V30 51 H 0.067267 -0.620576 -0.807524 0
M  V30 52 H 3.697660 -1.039603 3.955350 0
M  V30 END ATOM
M  V30 BEGIN BOND
M  V30 1 1 1 2
M  V30 2 2 2 3
M  V30 3 1 3 4
M  V30 4 2 4 5
M  V30 5 1 5 6
M  V30 6 1 6 7
M  V30 7 1 7 8
M  V30 8 1 7 9
M  V30 9 1 9 10
M  V30 10 1 10 11
M  V30 11 2 11 12
M  V30 12 1 12 13
M  V30 13 2 13 14
M  V30 14 1 14 15
M  V30 15 1 15 16
M  V30 16 2 16 17
M  V30 17 1 17 18
M  V30 18 2 18 19
M  V30 19 1 19 20
M  V30 20 1 20 21
M  V30 21 2 21 22
M  V30 22 1 22 23
M  V30 23 1 22 24
M  V30 24 2 24 25
M  V30 25 2 15 26
M  V30 26 1 5 27
M  V30 27 2 27 28
M  V30 28 1 28 29
M  V30 29 1 28 2
M  V30 30 1 26 11
M  V30 31 1 25 16
M  V30 32 1 24 19
M  V30 33 1 1 30
M  V30 34 1 1 31
M  V30 35 1 1 32
M  V30 36 1 3 33
M  V30 37 1 4 34
M  V30 38 1 6 35
M  V30 39 1 6 36
M  V30 40 1 7 37 CFG=3
M  V30 41 1 8 38
M  V30 42 1 8 39
M  V30 43 1 9 40
M  V30 44 1 9 41
M  V30 45 1 12 42
M  V30 46 1 14 43
M  V30 47 1 17 44
M  V30 48 1 18 45
M  V30 49 1 20 46
M  V30 50 1 23 47
M  V30 51 1 23 48
M  V30 52 1 23 49
M  V30 53 1 25 50
M  V30 54 1 26 51
M  V30 55 1 27 52
M  V30 END BOND
M  V30 END CTAB
M  END
>  <Dataset>  (468) 
ChEMBL_Kinases

>  <Ligand_Instance>  (468) 
nan

>  <PDB_ID>  (468) 
nan

>  <Standardized_SMILES>  (468) 
Cc1ccc(C[C@H](N)COc2cncc(-c3ccc4[nH]nc(C)c4c3)c2)cc1F

>  <Name>  (468) 
nan

>  <Pocket>  (468) 
nan

>  <ATP_Site>  (468) 
nan

>  <Peripheral>  (468) 
nan

>  <Num_H_Atoms_ProtBoundConf>  (468) 
nan

>  <Num_Resolved_Atoms>  (468) 
nan

>  <Num_Not_Resolved_Atoms>  (468) 
nan

$$$$
CHEMBL227051
     RDKit          3D

  0  0  0  0  0  0  0  0  0  0999 V3000
M  V30 BEGIN CTAB
M  V30 COUNTS 58 61 0 0 0
M  V30 BEGIN ATOM
M  V30 1 C 0.753398 -2.911722 5.164093 0
M  V30 2 C 1.430438 -2.326734 3.986569 0
M  V30 3 C 2.474486 -1.448094 4.185767 0
M  V30 4 C 3.137397 -0.876312 3.095931 0
M  V30 5 C 4.236761 0.022162 3.418275 0
M  V30 6 C 2.768585 -1.171613 1.801385 0
M  V30 7 C 3.414675 -0.585521 0.633804 0
M  V30 8 C 2.954742 0.814230 0.313095 0 CFG=2
M  V30 9 N 3.163985 1.784112 1.330391 0
M  V30 10 C 1.531004 0.857502 -0.178707 0
M  V30 11 O 1.210286 2.136922 -0.719311 0
M  V30 12 C -0.080850 2.369503 -1.231599 0
M  V30 13 C -0.454024 3.571644 -1.763676 0
M  V30 14 N -1.712809 3.723787 -2.237581 0
M  V30 15 C -2.627371 2.716028 -2.203286 0
M  V30 16 C -2.305970 1.478030 -1.676205 0
M  V30 17 C -3.171830 0.330670 -1.576653 0
M  V30 18 C -4.533330 0.463957 -1.387946 0
M  V30 19 C -5.299921 -0.682501 -1.301797 0
M  V30 20 C -4.787768 -1.959817 -1.392909 0
M  V30 21 N -5.323161 -3.176529 -1.338977 0
M  V30 22 N -4.353692 -4.085512 -1.486579 0
M  V30 23 C -3.191597 -3.434160 -1.635575 0
M  V30 24 C -1.884917 -4.077413 -1.824566 0
M  V30 25 C -3.422988 -2.068637 -1.581786 0
M  V30 26 C -2.636254 -0.938200 -1.670974 0
M  V30 27 C -1.015508 1.360299 -1.203394 0
M  V30 28 C 1.728047 -2.047421 1.572794 0
M  V30 29 C 1.159946 -2.510133 0.314972 0
M  V30 30 C 1.080653 -2.607020 2.683896 0
M  V30 31 H -0.135008 -3.503682 4.901468 0
M  V30 32 H 1.453581 -3.591029 5.699089 0
M  V30 33 H 0.426993 -2.054899 5.812483 0
M  V30 34 H 2.760087 -1.219001 5.224579 0
M  V30 35 H 4.818261 -0.483924 4.253270 0
M  V30 36 H 4.996799 0.182569 2.640948 0
M  V30 37 H 3.852780 0.937871 3.882959 0
M  V30 38 H 4.534087 -0.516349 0.747493 0
M  V30 39 H 3.296995 -1.158858 -0.304091 0
M  V30 40 H 3.589396 1.139071 -0.564803 0
M  V30 41 H 4.144816 2.148703 1.275856 0
M  V30 42 H 2.527188 2.579553 1.183401 0
M  V30 43 H 0.792453 0.644944 0.600498 0
M  V30 44 H 1.358822 0.148620 -1.014818 0
M  V30 45 H 0.274434 4.364551 -1.788546 0
M  V30 46 H -3.637507 2.826205 -2.580093 0
M  V30 47 H -4.986491 1.424932 -1.309992 0
M  V30 48 H -6.383882 -0.602623 -1.151408 0
M  V30 49 H -6.332657 -3.357058 -1.203072 0
M  V30 50 H -1.557845 -4.669856 -0.929192 0
M  V30 51 H -1.081399 -3.306072 -1.959114 0
M  V30 52 H -1.879940 -4.744341 -2.686096 0
M  V30 53 H -1.575523 -1.147753 -1.818778 0
M  V30 54 H -0.692564 0.414979 -0.774530 0
M  V30 55 H 1.614668 -2.193074 -0.610959 0
M  V30 56 H 0.108765 -2.089662 0.279675 0
M  V30 57 H 0.974888 -3.616291 0.364047 0
M  V30 58 H 0.239994 -3.316883 2.627541 0
M  V30 END ATOM
M  V30 BEGIN BOND
M  V30 1 1 1 2
M  V30 2 2 2 3
M  V30 3 1 3 4
M  V30 4 1 4 5
M  V30 5 2 4 6
M  V30 6 1 6 7
M  V30 7 1 7 8
M  V30 8 1 8 9
M  V30 9 1 8 10
M  V30 10 1 10 11
M  V30 11 1 11 12
M  V30 12 2 12 13
M  V30 13 1 13 14
M  V30 14 2 14 15
M  V30 15 1 15 16
M  V30 16 1 16 17
M  V30 17 2 17 18
M  V30 18 1 18 19
M  V30 19 2 19 20
M  V30 20 1 20 21
M  V30 21 1 21 22
M  V30 22 2 22 23
M  V30 23 1 23 24
M  V30 24 1 23 25
M  V30 25 2 25 26
M  V30 26 2 16 27
M  V30 27 1 6 28
M  V30 28 1 28 29
M  V30 29 2 28 30
M  V30 30 1 30 2
M  V30 31 1 27 12
M  V30 32 1 26 17
M  V30 33 1 25 20
M  V30 34 1 1 31
M  V30 35 1 1 32
M  V30 36 1 1 33
M  V30 37 1 3 34
M  V30 38 1 5 35
M  V30 39 1 5 36
M  V30 40 1 5 37
M  V30 41 1 7 38
M  V30 42 1 7 39
M  V30 43 1 8 40 CFG=3
M  V30 44 1 9 41
M  V30 45 1 9 42
M  V30 46 1 10 43
M  V30 47 1 10 44
M  V30 48 1 13 45
M  V30 49 1 15 46
M  V30 50 1 18 47
M  V30 51 1 19 48
M  V30 52 1 21 49
M  V30 53 1 24 50
M  V30 54 1 24 51
M  V30 55 1 24 52
M  V30 56 1 26 53
M  V30 57 1 27 54
M  V30 58 1 29 55
M  V30 59 1 29 56
M  V30 60 1 29 57
M  V30 61 1 30 58
M  V30 END BOND
M  V30 END CTAB
M  END
>  <Dataset>  (469) 
ChEMBL_Kinases

>  <Ligand_Instance>  (469) 
nan

>  <PDB_ID>  (469) 
nan

>  <Standardized_SMILES>  (469) 
Cc1cc(C)c(C[C@H](N)COc2cncc(-c3ccc4[nH]nc(C)c4c3)c2)c(C)c1

>  <Name>  (469) 
nan

>  <Pocket>  (469) 
nan

>  <ATP_Site>  (469) 
nan

>  <Peripheral>  (469) 
nan

>  <Num_H_Atoms_ProtBoundConf>  (469) 
nan

>  <Num_Resolved_Atoms>  (469) 
nan

>  <Num_Not_Resolved_Atoms>  (469) 
nan

$$$$
CHEMBL22712
     RDKit          3D

  0  0  0  0  0  0  0  0  0  0999 V3000
M  V30 BEGIN CTAB
M  V30 COUNTS 38 40 0 0 0
M  V30 BEGIN ATOM
M  V30 1 C -1.653265 -3.018492 3.735320 0
M  V30 2 C -0.356746 -3.126620 2.976889 0
M  V30 3 C 0.814046 -3.190817 3.927213 0
M  V30 4 O -0.384850 -4.328836 2.270199 0
M  V30 5 C -0.232096 -1.972103 2.036264 0
M  V30 6 N -0.987521 -0.903819 1.726739 0
M  V30 7 C -0.364039 -0.173135 0.781257 0
M  V30 8 C -0.937399 1.052961 0.236318 0
M  V30 9 C -1.180331 0.908197 -1.129202 0
M  V30 10 C -1.730487 1.958726 -1.865501 0
M  V30 11 C -2.039238 3.158379 -1.235559 0
M  V30 12 F -2.572961 4.195582 -1.921389 0
M  V30 13 C -1.786051 3.266494 0.114252 0
M  V30 14 C -1.243918 2.244325 0.862571 0
M  V30 15 C 0.815737 -0.837734 0.517120 0
M  V30 16 C 1.779585 -0.350967 -0.464827 0
M  V30 17 C 2.350355 0.875915 -0.198419 0
M  V30 18 C 3.279801 1.410568 -1.087030 0
M  V30 19 N 3.640698 0.759989 -2.208106 0
M  V30 20 C 3.085156 -0.430917 -2.464090 0
M  V30 21 C 2.156785 -1.025941 -1.631514 0
M  V30 22 N 0.885255 -1.938966 1.292517 0
M  V30 23 H -2.432312 -3.738617 3.371142 0
M  V30 24 H -1.498445 -3.257943 4.820917 0
M  V30 25 H -2.107064 -2.025212 3.693080 0
M  V30 26 H 0.964454 -4.241824 4.210082 0
M  V30 27 H 1.708995 -2.759384 3.427433 0
M  V30 28 H 0.572507 -2.633447 4.872585 0
M  V30 29 H 0.343951 -4.348187 1.611880 0
M  V30 30 H -1.000152 0.052231 -1.762586 0
M  V30 31 H -1.948141 1.925169 -2.924212 0
M  V30 32 H -2.005876 4.179703 0.664970 0
M  V30 33 H -1.010319 2.228109 1.909049 0
M  V30 34 H 2.084046 1.437483 0.702589 0
M  V30 35 H 3.710525 2.392009 -0.836663 0
M  V30 36 H 3.336068 -1.015765 -3.363567 0
M  V30 37 H 1.682982 -1.984494 -1.796894 0
M  V30 38 H 1.734985 -2.563751 1.211353 0
M  V30 END ATOM
M  V30 BEGIN BOND
M  V30 1 1 1 2
M  V30 2 1 2 3
M  V30 3 1 2 4
M  V30 4 1 2 5
M  V30 5 2 5 6
M  V30 6 1 6 7
M  V30 7 1 7 8
M  V30 8 2 8 9
M  V30 9 1 9 10
M  V30 10 2 10 11
M  V30 11 1 11 12
M  V30 12 1 11 13
M  V30 13 2 13 14
M  V30 14 2 7 15
M  V30 15 1 15 16
M  V30 16 2 16 17
M  V30 17 1 17 18
M  V30 18 2 18 19
M  V30 19 1 19 20
M  V30 20 2 20 21
M  V30 21 1 15 22
M  V30 22 1 22 5
M  V30 23 1 14 8
M  V30 24 1 21 16
M  V30 25 1 1 23
M  V30 26 1 1 24
M  V30 27 1 1 25
M  V30 28 1 3 26
M  V30 29 1 3 27
M  V30 30 1 3 28
M  V30 31 1 4 29
M  V30 32 1 9 30
M  V30 33 1 10 31
M  V30 34 1 13 32
M  V30 35 1 14 33
M  V30 36 1 17 34
M  V30 37 1 18 35
M  V30 38 1 20 36
M  V30 39 1 21 37
M  V30 40 1 22 38
M  V30 END BOND
M  V30 END CTAB
M  END
>  <Dataset>  (470) 
ChEMBL_Kinases

>  <Ligand_Instance>  (470) 
nan

>  <PDB_ID>  (470) 
nan

>  <Standardized_SMILES>  (470) 
CC(C)(O)c1nc(-c2ccc(F)cc2)c(-c2ccncc2)[nH]1

>  <Name>  (470) 
nan

>  <Pocket>  (470) 
nan

>  <ATP_Site>  (470) 
nan

>  <Peripheral>  (470) 
nan

>  <Num_H_Atoms_ProtBoundConf>  (470) 
nan

>  <Num_Resolved_Atoms>  (470) 
nan

>  <Num_Not_Resolved_Atoms>  (470) 
nan

$$$$
CHEMBL227271
     RDKit          3D

  0  0  0  0  0  0  0  0  0  0999 V3000
M  V30 BEGIN CTAB
M  V30 COUNTS 53 56 0 0 0
M  V30 BEGIN ATOM
M  V30 1 C 1.023077 -0.922279 4.394441 0
M  V30 2 C 2.363116 -1.338054 3.872158 0
M  V30 3 N 3.284307 -2.154028 4.424258 0
M  V30 4 N 4.324480 -2.239184 3.610962 0
M  V30 5 C 4.132116 -1.485604 2.493762 0
M  V30 6 C 4.870446 -1.221629 1.359265 0
M  V30 7 C 4.353501 -0.376846 0.384833 0
M  V30 8 C 3.121664 0.212625 0.508400 0
M  V30 9 C 2.539374 1.106725 -0.488881 0
M  V30 10 C 3.258812 1.957282 -1.302582 0
M  V30 11 N 2.626694 2.743827 -2.192462 0
M  V30 12 C 1.277577 2.749611 -2.341373 0
M  V30 13 C 0.500566 1.918605 -1.554204 0
M  V30 14 O -0.900632 1.885180 -1.667369 0
M  V30 15 C -1.590386 0.995176 -0.809990 0
M  V30 16 C -3.085709 1.057781 -1.032232 0 CFG=1
M  V30 17 N -3.430433 0.706185 -2.388095 0
M  V30 18 C -3.821424 0.244721 -0.006020 0
M  V30 19 C -3.431697 -1.184483 -0.044511 0
M  V30 20 C -4.170542 -1.997440 -0.878164 0
M  V30 21 C -3.936987 -3.366122 -1.033551 0
M  V30 22 C -2.899996 -3.890001 -0.292543 0
M  V30 23 C -2.149055 -3.099118 0.545556 0
M  V30 24 O -1.079328 -3.526770 1.338802 0
M  V30 25 C -1.289337 -3.987595 2.671597 0
M  V30 26 F -1.861841 -2.941053 3.376225 0
M  V30 27 F -2.124638 -5.091587 2.663040 0
M  V30 28 F -0.068194 -4.366941 3.184932 0
M  V30 29 C -2.391268 -1.744729 0.689998 0
M  V30 30 C 1.185571 1.113170 -0.639020 0
M  V30 31 C 2.428094 -0.093741 1.674441 0
M  V30 32 C 2.889911 -0.921783 2.671009 0
M  V30 33 H 0.284633 -1.110106 3.583195 0
M  V30 34 H 0.770568 -1.433775 5.324031 0
M  V30 35 H 1.060043 0.200231 4.508821 0
M  V30 36 H 5.164681 -2.807791 3.812770 0
M  V30 37 H 5.840600 -1.672475 1.238790 0
M  V30 38 H 4.910678 -0.151684 -0.516184 0
M  V30 39 H 4.343612 1.957324 -1.187936 0
M  V30 40 H 0.763368 3.378077 -3.053237 0
M  V30 41 H -1.262662 -0.055498 -1.038633 0
M  V30 42 H -1.338102 1.223246 0.235606 0
M  V30 43 H -3.384423 2.119984 -0.883631 0
M  V30 44 H -2.705150 1.154327 -3.003941 0
M  V30 45 H -4.336073 1.170226 -2.622531 0
M  V30 46 H -4.900574 0.398334 -0.106683 0
M  V30 47 H -3.535190 0.645424 0.988870 0
M  V30 48 H -5.008635 -1.639807 -1.494000 0
M  V30 49 H -4.523151 -3.982728 -1.687604 0
M  V30 50 H -2.629661 -4.934119 -0.333135 0
M  V30 51 H -1.867016 -1.037635 1.314971 0
M  V30 52 H 0.557308 0.474281 -0.037200 0
M  V30 53 H 1.433370 0.348282 1.832580 0
M  V30 END ATOM
M  V30 BEGIN BOND
M  V30 1 1 1 2
M  V30 2 2 2 3
M  V30 3 1 3 4
M  V30 4 1 4 5
M  V30 5 2 5 6
M  V30 6 1 6 7
M  V30 7 2 7 8
M  V30 8 1 8 9
M  V30 9 2 9 10
M  V30 10 1 10 11
M  V30 11 2 11 12
M  V30 12 1 12 13
M  V30 13 1 13 14
M  V30 14 1 14 15
M  V30 15 1 15 16
M  V30 16 1 16 17
M  V30 17 1 16 18
M  V30 18 1 18 19
M  V30 19 2 19 20
M  V30 20 1 20 21
M  V30 21 2 21 22
M  V30 22 1 22 23
M  V30 23 1 23 24
M  V30 24 1 24 25
M  V30 25 1 25 26
M  V30 26 1 25 27
M  V30 27 1 25 28
M  V30 28 2 23 29
M  V30 29 2 13 30
M  V30 30 1 8 31
M  V30 31 2 31 32
M  V30 32 1 32 2
M  V30 33 1 32 5
M  V30 34 1 30 9
M  V30 35 1 29 19
M  V30 36 1 1 33
M  V30 37 1 1 34
M  V30 38 1 1 35
M  V30 39 1 4 36
M  V30 40 1 6 37
M  V30 41 1 7 38
M  V30 42 1 10 39
M  V30 43 1 12 40
M  V30 44 1 15 41
M  V30 45 1 15 42
M  V30 46 1 16 43 CFG=1
M  V30 47 1 17 44
M  V30 48 1 17 45
M  V30 49 1 18 46
M  V30 50 1 18 47
M  V30 51 1 20 48
M  V30 52 1 21 49
M  V30 53 1 22 50
M  V30 54 1 29 51
M  V30 55 1 30 52
M  V30 56 1 31 53
M  V30 END BOND
M  V30 END CTAB
M  END
>  <Dataset>  (471) 
ChEMBL_Kinases

>  <Ligand_Instance>  (471) 
nan

>  <PDB_ID>  (471) 
nan

>  <Standardized_SMILES>  (471) 
Cc1n[nH]c2ccc(-c3cncc(OC[C@@H](N)Cc4cccc(OC(F)(F)F)c4)c3)cc12

>  <Name>  (471) 
nan

>  <Pocket>  (471) 
nan

>  <ATP_Site>  (471) 
nan

>  <Peripheral>  (471) 
nan

>  <Num_H_Atoms_ProtBoundConf>  (471) 
nan

>  <Num_Resolved_Atoms>  (471) 
nan

>  <Num_Not_Resolved_Atoms>  (471) 
nan

$$$$
CHEMBL227381
     RDKit          3D

  0  0  0  0  0  0  0  0  0  0999 V3000
M  V30 BEGIN CTAB
M  V30 COUNTS 50 52 0 0 0
M  V30 BEGIN ATOM
M  V30 1 O 2.407047 -3.649260 1.796272 0
M  V30 2 S 1.784291 -3.736749 0.444371 0
M  V30 3 O 2.692117 -4.637915 -0.374421 0
M  V30 4 N 1.725118 -2.173015 -0.243130 0
M  V30 5 C 0.949299 -1.303566 0.591682 0
M  V30 6 C 0.942035 0.047870 -0.081373 0
M  V30 7 N 2.223236 0.630559 -0.246330 0
M  V30 8 C 2.866838 1.045349 0.970079 0
M  V30 9 C 2.162751 2.222840 1.618222 0
M  V30 10 O 2.146248 3.313721 0.765325 0
M  V30 11 C 1.484953 4.426840 1.282393 0
M  V30 12 C 0.061442 4.129102 1.577627 0
M  V30 13 C -0.440441 3.683054 2.777755 0
M  V30 14 C -1.797535 3.414711 2.968082 0
M  V30 15 C -2.678756 3.607920 1.897114 0
M  V30 16 Cl -4.397815 3.296039 2.050970 0
M  V30 17 C -2.226551 4.057076 0.663717 0
M  V30 18 C -0.876366 4.291755 0.577649 0
M  V30 19 C 0.187792 -4.429914 0.574114 0
M  V30 20 C -0.410323 -4.829344 1.777472 0
M  V30 21 C -1.673891 -5.369951 1.862711 0
M  V30 22 C -2.403241 -5.533644 0.709961 0
M  V30 23 C -1.893853 -5.169591 -0.510732 0
M  V30 24 C -2.552919 -5.291782 -1.737920 0
M  V30 25 N -2.038542 -4.929055 -2.905228 0
M  V30 26 C -0.784870 -4.392480 -2.988721 0
M  V30 27 C -0.151419 -4.281732 -1.759887 0
M  V30 28 C -0.628295 -4.638012 -0.516775 0
M  V30 29 H 2.640656 -1.772516 -0.459041 0
M  V30 30 H 1.397563 -1.246015 1.613562 0
M  V30 31 H -0.094238 -1.642029 0.731177 0
M  V30 32 H 0.192681 0.673225 0.398723 0
M  V30 33 H 0.558970 -0.154192 -1.121552 0
M  V30 34 H 2.807343 0.192731 -0.954537 0
M  V30 35 H 3.889964 1.387526 0.712995 0
M  V30 36 H 2.950160 0.241575 1.700764 0
M  V30 37 H 2.780745 2.477852 2.525271 0
M  V30 38 H 1.187705 1.901938 1.981682 0
M  V30 39 H 2.016092 4.781726 2.183552 0
M  V30 40 H 1.501956 5.207451 0.495051 0
M  V30 41 H 0.264056 3.545081 3.585333 0
M  V30 42 H -2.168177 3.065362 3.914276 0
M  V30 43 H -2.877077 4.214470 -0.173825 0
M  V30 44 H -0.520898 4.642895 -0.389421 0
M  V30 45 H 0.181251 -4.693288 2.682233 0
M  V30 46 H -2.063263 -5.651324 2.822769 0
M  V30 47 H -3.412125 -5.957073 0.724589 0
M  V30 48 H -3.544170 -5.722354 -1.627287 0
M  V30 49 H -0.313811 -4.079308 -3.898431 0
M  V30 50 H 0.847790 -3.855998 -1.819618 0
M  V30 END ATOM
M  V30 BEGIN BOND
M  V30 1 2 1 2
M  V30 2 2 2 3
M  V30 3 1 2 4
M  V30 4 1 4 5
M  V30 5 1 5 6
M  V30 6 1 6 7
M  V30 7 1 7 8
M  V30 8 1 8 9
M  V30 9 1 9 10
M  V30 10 1 10 11
M  V30 11 1 11 12
M  V30 12 2 12 13
M  V30 13 1 13 14
M  V30 14 2 14 15
M  V30 15 1 15 16
M  V30 16 1 15 17
M  V30 17 2 17 18
M  V30 18 1 2 19
M  V30 19 2 19 20
M  V30 20 1 20 21
M  V30 21 2 21 22
M  V30 22 1 22 23
M  V30 23 2 23 24
M  V30 24 1 24 25
M  V30 25 2 25 26
M  V30 26 1 26 27
M  V30 27 2 27 28
M  V30 28 1 18 12
M  V30 29 1 28 19
M  V30 30 1 28 23
M  V30 31 1 4 29
M  V30 32 1 5 30
M  V30 33 1 5 31
M  V30 34 1 6 32
M  V30 35 1 6 33
M  V30 36 1 7 34
M  V30 37 1 8 35
M  V30 38 1 8 36
M  V30 39 1 9 37
M  V30 40 1 9 38
M  V30 41 1 11 39
M  V30 42 1 11 40
M  V30 43 1 13 41
M  V30 44 1 14 42
M  V30 45 1 17 43
M  V30 46 1 18 44
M  V30 47 1 20 45
M  V30 48 1 21 46
M  V30 49 1 22 47
M  V30 50 1 24 48
M  V30 51 1 26 49
M  V30 52 1 27 50
M  V30 END BOND
M  V30 END CTAB
M  END
>  <Dataset>  (472) 
ChEMBL_Kinases

>  <Ligand_Instance>  (472) 
nan

>  <PDB_ID>  (472) 
nan

>  <Standardized_SMILES>  (472) 
O=S(=O)(NCCNCCOCc1ccc(Cl)cc1)c1cccc2cnccc12

>  <Name>  (472) 
nan

>  <Pocket>  (472) 
nan

>  <ATP_Site>  (472) 
nan

>  <Peripheral>  (472) 
nan

>  <Num_H_Atoms_ProtBoundConf>  (472) 
nan

>  <Num_Resolved_Atoms>  (472) 
nan

>  <Num_Not_Resolved_Atoms>  (472) 
nan

$$$$
CHEMBL227323
     RDKit          3D

  0  0  0  0  0  0  0  0  0  0999 V3000
M  V30 BEGIN CTAB
M  V30 COUNTS 52 55 0 0 0
M  V30 BEGIN ATOM
M  V30 1 C -2.286557 -4.106957 2.467760 0
M  V30 2 C -1.946823 -5.063242 1.364300 0
M  V30 3 N -2.309581 -6.353164 1.128341 0
M  V30 4 N -1.725078 -6.746915 -0.001208 0
M  V30 5 C -0.991947 -5.749673 -0.507087 0
M  V30 6 C -0.185709 -5.582091 -1.627642 0
M  V30 7 C 0.480346 -4.415342 -1.924655 0
M  V30 8 C 0.362813 -3.311959 -1.072419 0
M  V30 9 C 1.073567 -2.088185 -1.383791 0
M  V30 10 C 2.297961 -2.265747 -2.039227 0
M  V30 11 N 3.009939 -1.171585 -2.353352 0
M  V30 12 C 2.575715 0.048672 -2.056288 0
M  V30 13 C 1.360282 0.247434 -1.404638 0
M  V30 14 O 1.042776 1.550877 -1.163091 0
M  V30 15 C 1.785160 2.672403 -1.483773 0
M  V30 16 C 1.091201 3.933406 -1.056914 0 CFG=1
M  V30 17 N -0.220006 4.062884 -1.689570 0
M  V30 18 C 1.049492 4.177635 0.395409 0
M  V30 19 C 0.398609 3.210471 1.255148 0
M  V30 20 C -0.919002 3.468070 1.569341 0
M  V30 21 C -1.774995 2.700778 2.331295 0
M  V30 22 C -1.246816 1.521026 2.847357 0
M  V30 23 C -2.099500 0.635614 3.669027 0
M  V30 24 F -3.208003 1.360866 4.078207 0
M  V30 25 F -2.608029 -0.354236 2.830324 0
M  V30 26 F -1.465257 0.114029 4.771254 0
M  V30 27 C 0.067304 1.197306 2.574871 0
M  V30 28 C 0.861471 2.032507 1.795362 0
M  V30 29 F 2.164730 1.724635 1.558499 0
M  V30 30 C 0.591203 -0.839066 -1.059992 0
M  V30 31 C -0.435964 -3.451206 0.053824 0
M  V30 32 C -1.101251 -4.642613 0.335032 0
M  V30 33 H -1.328796 -3.741442 2.909340 0
M  V30 34 H -2.853861 -4.610245 3.279333 0
M  V30 35 H -2.808046 -3.223871 2.044730 0
M  V30 36 H -1.804979 -7.689803 -0.454580 0
M  V30 37 H -0.130434 -6.466941 -2.251809 0
M  V30 38 H 1.086630 -4.362805 -2.812320 0
M  V30 39 H 2.703977 -3.228079 -2.307399 0
M  V30 40 H 3.227302 0.861118 -2.354411 0
M  V30 41 H 2.749474 2.593639 -0.906215 0
M  V30 42 H 2.122674 2.710645 -2.541619 0
M  V30 43 H 1.655205 4.829641 -1.495719 0
M  V30 44 H -0.132848 4.054876 -2.730431 0
M  V30 45 H -0.647567 4.958954 -1.355823 0
M  V30 46 H 2.134500 4.283109 0.731852 0
M  V30 47 H 0.578363 5.194699 0.542156 0
M  V30 48 H -1.426856 4.379472 1.207768 0
M  V30 49 H -2.800654 2.952553 2.546114 0
M  V30 50 H 0.520048 0.291187 2.955541 0
M  V30 51 H -0.340415 -0.700672 -0.561531 0
M  V30 52 H -0.527353 -2.611731 0.707390 0
M  V30 END ATOM
M  V30 BEGIN BOND
M  V30 1 1 1 2
M  V30 2 2 2 3
M  V30 3 1 3 4
M  V30 4 1 4 5
M  V30 5 2 5 6
M  V30 6 1 6 7
M  V30 7 2 7 8
M  V30 8 1 8 9
M  V30 9 2 9 10
M  V30 10 1 10 11
M  V30 11 2 11 12
M  V30 12 1 12 13
M  V30 13 1 13 14
M  V30 14 1 14 15
M  V30 15 1 15 16
M  V30 16 1 16 17
M  V30 17 1 16 18
M  V30 18 1 18 19
M  V30 19 2 19 20
M  V30 20 1 20 21
M  V30 21 2 21 22
M  V30 22 1 22 23
M  V30 23 1 23 24
M  V30 24 1 23 25
M  V30 25 1 23 26
M  V30 26 1 22 27
M  V30 27 2 27 28
M  V30 28 1 28 29
M  V30 29 2 13 30
M  V30 30 1 8 31
M  V30 31 2 31 32
M  V30 32 1 32 2
M  V30 33 1 32 5
M  V30 34 1 30 9
M  V30 35 1 28 19
M  V30 36 1 1 33
M  V30 37 1 1 34
M  V30 38 1 1 35
M  V30 39 1 4 36
M  V30 40 1 6 37
M  V30 41 1 7 38
M  V30 42 1 10 39
M  V30 43 1 12 40
M  V30 44 1 15 41
M  V30 45 1 15 42
M  V30 46 1 16 43 CFG=3
M  V30 47 1 17 44
M  V30 48 1 17 45
M  V30 49 1 18 46
M  V30 50 1 18 47
M  V30 51 1 20 48
M  V30 52 1 21 49
M  V30 53 1 27 50
M  V30 54 1 30 51
M  V30 55 1 31 52
M  V30 END BOND
M  V30 END CTAB
M  END
>  <Dataset>  (473) 
ChEMBL_Kinases

>  <Ligand_Instance>  (473) 
nan

>  <PDB_ID>  (473) 
nan

>  <Standardized_SMILES>  (473) 
Cc1n[nH]c2ccc(-c3cncc(OC[C@@H](N)Cc4ccc(C(F)(F)F)cc4F)c3)cc12

>  <Name>  (473) 
nan

>  <Pocket>  (473) 
nan

>  <ATP_Site>  (473) 
nan

>  <Peripheral>  (473) 
nan

>  <Num_H_Atoms_ProtBoundConf>  (473) 
nan

>  <Num_Resolved_Atoms>  (473) 
nan

>  <Num_Not_Resolved_Atoms>  (473) 
nan

$$$$
CHEMBL227324
     RDKit          3D

  0  0  0  0  0  0  0  0  0  0999 V3000
M  V30 BEGIN CTAB
M  V30 COUNTS 53 56 0 0 0
M  V30 BEGIN ATOM
M  V30 1 C 1.859893 -2.838700 3.819184 0
M  V30 2 C 3.067187 -2.754235 2.949029 0
M  V30 3 N 4.061007 -3.678625 2.893498 0
M  V30 4 N 4.978463 -3.268874 2.002640 0
M  V30 5 C 4.548025 -2.092513 1.510707 0
M  V30 6 C 5.100817 -1.233329 0.566986 0
M  V30 7 C 4.520456 -0.037306 0.163260 0
M  V30 8 C 3.310374 0.287879 0.762912 0
M  V30 9 C 2.661110 1.533950 0.371561 0
M  V30 10 C 3.331004 2.687358 -0.017484 0
M  V30 11 N 2.647026 3.801565 -0.365568 0
M  V30 12 C 1.301658 3.820016 -0.343453 0
M  V30 13 C 0.542704 2.716214 0.031372 0
M  V30 14 O -0.848337 2.711632 0.062017 0
M  V30 15 C -1.498617 1.520220 0.464151 0
M  V30 16 C -2.988491 1.735628 0.422972 0 CFG=1
M  V30 17 N -3.410394 2.074806 -0.904322 0
M  V30 18 C -3.755791 0.597998 1.033338 0
M  V30 19 C -3.526899 -0.688194 0.370150 0
M  V30 20 C -4.276548 -1.176985 -0.691167 0
M  V30 21 C -4.001598 -2.416858 -1.280173 0
M  V30 22 C -2.941391 -3.186363 -0.786283 0
M  V30 23 O -2.821997 -4.366630 -1.484908 0
M  V30 24 C -3.442563 -5.579995 -1.192492 0
M  V30 25 F -3.150587 -6.112041 0.026042 0
M  V30 26 F -4.825418 -5.438230 -1.308912 0
M  V30 27 F -3.007816 -6.501700 -2.150432 0
M  V30 28 C -2.194897 -2.703452 0.268112 0
M  V30 29 C -2.487264 -1.478381 0.830126 0
M  V30 30 C 1.284051 1.604822 0.377268 0
M  V30 31 C 2.711883 -0.534780 1.713173 0
M  V30 32 C 3.344078 -1.711018 2.068776 0
M  V30 33 H 1.716975 -3.888142 4.165965 0
M  V30 34 H 2.059423 -2.257432 4.766638 0
M  V30 35 H 0.966854 -2.403368 3.367844 0
M  V30 36 H 5.869093 -3.759570 1.728452 0
M  V30 37 H 6.036131 -1.503292 0.115728 0
M  V30 38 H 5.014098 0.571773 -0.574686 0
M  V30 39 H 4.421371 2.589055 -0.008507 0
M  V30 40 H 0.775278 4.732026 -0.629187 0
M  V30 41 H -1.197504 0.651221 -0.162337 0
M  V30 42 H -1.136118 1.311612 1.490261 0
M  V30 43 H -3.191971 2.633099 1.061261 0
M  V30 44 H -2.687749 2.454084 -1.521713 0
M  V30 45 H -4.345924 2.482152 -0.992200 0
M  V30 46 H -4.832540 0.895619 1.045513 0
M  V30 47 H -3.448716 0.513551 2.094657 0
M  V30 48 H -5.097825 -0.550296 -1.052447 0
M  V30 49 H -4.658992 -2.681191 -2.097214 0
M  V30 50 H -1.409209 -3.365496 0.571158 0
M  V30 51 H -1.838997 -1.178190 1.663388 0
M  V30 52 H 0.711814 0.719742 0.676758 0
M  V30 53 H 1.769444 -0.274818 2.176190 0
M  V30 END ATOM
M  V30 BEGIN BOND
M  V30 1 1 1 2
M  V30 2 2 2 3
M  V30 3 1 3 4
M  V30 4 1 4 5
M  V30 5 2 5 6
M  V30 6 1 6 7
M  V30 7 2 7 8
M  V30 8 1 8 9
M  V30 9 2 9 10
M  V30 10 1 10 11
M  V30 11 2 11 12
M  V30 12 1 12 13
M  V30 13 1 13 14
M  V30 14 1 14 15
M  V30 15 1 15 16
M  V30 16 1 16 17
M  V30 17 1 16 18
M  V30 18 1 18 19
M  V30 19 2 19 20
M  V30 20 1 20 21
M  V30 21 2 21 22
M  V30 22 1 22 23
M  V30 23 1 23 24
M  V30 24 1 24 25
M  V30 25 1 24 26
M  V30 26 1 24 27
M  V30 27 1 22 28
M  V30 28 2 28 29
M  V30 29 2 13 30
M  V30 30 1 8 31
M  V30 31 2 31 32
M  V30 32 1 32 2
M  V30 33 1 32 5
M  V30 34 1 30 9
M  V30 35 1 29 19
M  V30 36 1 1 33
M  V30 37 1 1 34
M  V30 38 1 1 35
M  V30 39 1 4 36
M  V30 40 1 6 37
M  V30 41 1 7 38
M  V30 42 1 10 39
M  V30 43 1 12 40
M  V30 44 1 15 41
M  V30 45 1 15 42
M  V30 46 1 16 43 CFG=1
M  V30 47 1 17 44
M  V30 48 1 17 45
M  V30 49 1 18 46
M  V30 50 1 18 47
M  V30 51 1 20 48
M  V30 52 1 21 49
M  V30 53 1 28 50
M  V30 54 1 29 51
M  V30 55 1 30 52
M  V30 56 1 31 53
M  V30 END BOND
M  V30 END CTAB
M  END
>  <Dataset>  (474) 
ChEMBL_Kinases

>  <Ligand_Instance>  (474) 
nan

>  <PDB_ID>  (474) 
nan

>  <Standardized_SMILES>  (474) 
Cc1n[nH]c2ccc(-c3cncc(OC[C@@H](N)Cc4ccc(OC(F)(F)F)cc4)c3)cc12

>  <Name>  (474) 
nan

>  <Pocket>  (474) 
nan

>  <ATP_Site>  (474) 
nan

>  <Peripheral>  (474) 
nan

>  <Num_H_Atoms_ProtBoundConf>  (474) 
nan

>  <Num_Resolved_Atoms>  (474) 
nan

>  <Num_Not_Resolved_Atoms>  (474) 
nan

$$$$
CHEMBL227325
     RDKit          3D

  0  0  0  0  0  0  0  0  0  0999 V3000
M  V30 BEGIN CTAB
M  V30 COUNTS 52 56 0 0 0
M  V30 BEGIN ATOM
M  V30 1 C -0.495594 -3.256340 1.467226 0
M  V30 2 C 0.958754 -3.350523 1.808632 0
M  V30 3 N 1.654532 -4.231473 2.559570 0
M  V30 4 N 2.940770 -3.882940 2.567038 0
M  V30 5 C 3.186090 -2.780858 1.843699 0
M  V30 6 C 4.362053 -2.112820 1.613050 0
M  V30 7 C 4.243843 -1.000354 0.821372 0
M  V30 8 C 3.035356 -0.588793 0.303996 0
M  V30 9 C 3.039165 0.541760 -0.576725 0
M  V30 10 C 3.040016 1.573660 -1.378764 0
M  V30 11 N 2.565284 2.770445 -1.737890 0
M  V30 12 C 1.554450 3.292964 -0.942437 0
M  V30 13 C 1.181894 2.461263 0.137045 0
M  V30 14 O 0.182597 3.018217 0.875988 0
M  V30 15 C -0.432259 2.440013 2.013851 0
M  V30 16 C -1.112315 1.158137 1.725456 0 CFG=1
M  V30 17 N -1.683172 0.710712 3.008118 0
M  V30 18 C -2.251784 1.384752 0.744234 0
M  V30 19 C -2.863568 0.070472 0.378003 0
M  V30 20 C -3.831437 -0.727558 0.929715 0
M  V30 21 C -4.161442 -1.936699 0.354727 0
M  V30 22 C -3.537884 -2.388298 -0.789530 0
M  V30 23 C -2.542227 -1.630451 -1.411069 0
M  V30 24 C -2.251972 -0.433202 -0.799327 0
M  V30 25 O -2.150908 -2.381292 -2.516695 0
M  V30 26 C -2.485126 -3.746404 -2.298948 0
M  V30 27 O -3.693664 -3.566194 -1.555345 0
M  V30 28 C 1.944134 1.246773 0.178811 0
M  V30 29 C 1.908857 -1.362401 0.616257 0
M  V30 30 C 1.938179 -2.484718 1.395983 0
M  V30 31 H -0.571581 -2.770060 0.465708 0
M  V30 32 H -0.951728 -4.269476 1.385331 0
M  V30 33 H -1.070383 -2.627566 2.181422 0
M  V30 34 H 3.644422 -4.466152 3.106939 0
M  V30 35 H 5.296176 -2.455105 2.035234 0
M  V30 36 H 5.149080 -0.435686 0.595101 0
M  V30 37 H 3.864610 1.061423 -1.977859 0
M  V30 38 H 1.251893 4.231683 -1.310640 0
M  V30 39 H 0.382080 2.214175 2.766603 0
M  V30 40 H -1.110199 3.144505 2.488200 0
M  V30 41 H -0.533241 0.316272 1.350383 0
M  V30 42 H -0.958841 0.927834 3.729867 0
M  V30 43 H -1.914785 -0.306559 2.970838 0
M  V30 44 H -3.021361 2.035423 1.193119 0
M  V30 45 H -1.852058 1.888626 -0.129129 0
M  V30 46 H -4.223776 -0.254380 1.807670 0
M  V30 47 H -4.930307 -2.488015 0.854533 0
M  V30 48 H -1.453263 0.089626 -1.360689 0
M  V30 49 H -1.720442 -4.164721 -1.611934 0
M  V30 50 H -2.617497 -4.345152 -3.188495 0
M  V30 51 H 1.446545 0.927213 1.155777 0
M  V30 52 H 1.016375 -0.958300 0.139669 0
M  V30 END ATOM
M  V30 BEGIN BOND
M  V30 1 1 1 2
M  V30 2 2 2 3
M  V30 3 1 3 4
M  V30 4 1 4 5
M  V30 5 2 5 6
M  V30 6 1 6 7
M  V30 7 2 7 8
M  V30 8 1 8 9
M  V30 9 2 9 10
M  V30 10 1 10 11
M  V30 11 2 11 12
M  V30 12 1 12 13
M  V30 13 1 13 14
M  V30 14 1 14 15
M  V30 15 1 15 16
M  V30 16 1 16 17
M  V30 17 1 16 18
M  V30 18 1 18 19
M  V30 19 2 19 20
M  V30 20 1 20 21
M  V30 21 2 21 22
M  V30 22 1 22 23
M  V30 23 2 23 24
M  V30 24 1 23 25
M  V30 25 1 25 26
M  V30 26 1 26 27
M  V30 27 2 13 28
M  V30 28 1 8 29
M  V30 29 2 29 30
M  V30 30 1 30 2
M  V30 31 1 30 5
M  V30 32 1 28 9
M  V30 33 1 24 19
M  V30 34 1 27 22
M  V30 35 1 1 31
M  V30 36 1 1 32
M  V30 37 1 1 33
M  V30 38 1 4 34
M  V30 39 1 6 35
M  V30 40 1 7 36
M  V30 41 1 10 37
M  V30 42 1 12 38
M  V30 43 1 15 39
M  V30 44 1 15 40
M  V30 45 1 16 41 CFG=3
M  V30 46 1 17 42
M  V30 47 1 17 43
M  V30 48 1 18 44
M  V30 49 1 18 45
M  V30 50 1 20 46
M  V30 51 1 21 47
M  V30 52 1 24 48
M  V30 53 1 26 49
M  V30 54 1 26 50
M  V30 55 1 28 51
M  V30 56 1 29 52
M  V30 END BOND
M  V30 END CTAB
M  END
>  <Dataset>  (475) 
ChEMBL_Kinases

>  <Ligand_Instance>  (475) 
nan

>  <PDB_ID>  (475) 
nan

>  <Standardized_SMILES>  (475) 
Cc1n[nH]c2ccc(-c3cncc(OC[C@@H](N)Cc4ccc5c(c4)OCO5)c3)cc12

>  <Name>  (475) 
nan

>  <Pocket>  (475) 
nan

>  <ATP_Site>  (475) 
nan

>  <Peripheral>  (475) 
nan

>  <Num_H_Atoms_ProtBoundConf>  (475) 
nan

>  <Num_Resolved_Atoms>  (475) 
nan

>  <Num_Not_Resolved_Atoms>  (475) 
nan

$$$$
CHEMBL227326
     RDKit          3D

  0  0  0  0  0  0  0  0  0  0999 V3000
M  V30 BEGIN CTAB
M  V30 COUNTS 52 56 0 0 0
M  V30 BEGIN ATOM
M  V30 1 C 6.201584 -0.681332 -2.546860 0
M  V30 2 C 5.505880 -1.668879 -1.652493 0
M  V30 3 N 5.787681 -2.998043 -1.561524 0
M  V30 4 N 4.970133 -3.549025 -0.670943 0
M  V30 5 C 4.174269 -2.569549 -0.200984 0
M  V30 6 C 3.148619 -2.597418 0.741854 0
M  V30 7 C 2.456854 -1.437971 1.069030 0
M  V30 8 C 2.786986 -0.246764 0.455668 0
M  V30 9 C 2.134317 1.032284 0.716210 0
M  V30 10 C 2.717050 2.281881 0.647858 0
M  V30 11 N 2.003781 3.391402 0.913341 0
M  V30 12 C 0.693695 3.324682 1.256032 0
M  V30 13 C 0.077931 2.082866 1.333616 0
M  V30 14 O -1.263030 2.083728 1.689011 0
M  V30 15 C -1.948773 0.828962 1.782901 0
M  V30 16 C -3.384940 1.030455 2.177531 0 CFG=1
M  V30 17 N -4.094910 1.844566 1.212111 0
M  V30 18 C -4.111603 -0.208403 2.560700 0
M  V30 19 C -4.209044 -1.252507 1.543305 0
M  V30 20 C -5.365982 -1.402491 0.838749 0
M  V30 21 C -5.533242 -2.355518 -0.142159 0
M  V30 22 C -4.528210 -3.224739 -0.473445 0
M  V30 23 C -3.341266 -3.104445 0.217788 0
M  V30 24 C -3.197867 -2.126856 1.210392 0
M  V30 25 O -1.889204 -2.293282 1.692601 0
M  V30 26 C -1.410767 -3.565250 1.288663 0
M  V30 27 F -1.670513 -4.558849 2.213330 0
M  V30 28 F -0.061635 -3.456117 1.022470 0
M  V30 29 O -2.147137 -3.833269 0.110469 0
M  V30 30 C 0.801986 0.954155 1.063878 0
M  V30 31 C 3.808889 -0.183995 -0.492905 0
M  V30 32 C 4.472567 -1.355515 -0.791273 0
M  V30 33 H 6.970366 -1.190467 -3.129113 0
M  V30 34 H 5.476879 -0.138488 -3.187226 0
M  V30 35 H 6.721814 0.072136 -1.909053 0
M  V30 36 H 4.947272 -4.567097 -0.383160 0
M  V30 37 H 2.836822 -3.502869 1.264001 0
M  V30 38 H 1.668197 -1.433270 1.786648 0
M  V30 39 H 3.762722 2.288681 0.371639 0
M  V30 40 H 0.209366 4.254374 1.448590 0
M  V30 41 H -1.935713 0.292474 0.830310 0
M  V30 42 H -1.372993 0.256159 2.533028 0
M  V30 43 H -3.352659 1.669016 3.110643 0
M  V30 44 H -3.487571 2.497888 0.707290 0
M  V30 45 H -4.926343 2.324516 1.618653 0
M  V30 46 H -5.133743 0.034216 2.924094 0
M  V30 47 H -3.584783 -0.612056 3.475848 0
M  V30 48 H -6.200358 -0.746454 1.051832 0
M  V30 49 H -6.495228 -2.405781 -0.657590 0
M  V30 50 H -4.686114 -3.962752 -1.246971 0
M  V30 51 H 0.275958 0.037124 1.139885 0
M  V30 52 H 4.086356 0.751343 -0.990582 0
M  V30 END ATOM
M  V30 BEGIN BOND
M  V30 1 1 1 2
M  V30 2 2 2 3
M  V30 3 1 3 4
M  V30 4 1 4 5
M  V30 5 2 5 6
M  V30 6 1 6 7
M  V30 7 2 7 8
M  V30 8 1 8 9
M  V30 9 2 9 10
M  V30 10 1 10 11
M  V30 11 2 11 12
M  V30 12 1 12 13
M  V30 13 1 13 14
M  V30 14 1 14 15
M  V30 15 1 15 16
M  V30 16 1 16 17
M  V30 17 1 16 18
M  V30 18 1 18 19
M  V30 19 2 19 20
M  V30 20 1 20 21
M  V30 21 2 21 22
M  V30 22 1 22 23
M  V30 23 2 23 24
M  V30 24 1 24 25
M  V30 25 1 25 26
M  V30 26 1 26 27
M  V30 27 1 26 28
M  V30 28 1 26 29
M  V30 29 2 13 30
M  V30 30 1 8 31
M  V30 31 2 31 32
M  V30 32 1 32 2
M  V30 33 1 32 5
M  V30 34 1 30 9
M  V30 35 1 24 19
M  V30 36 1 29 23
M  V30 37 1 1 33
M  V30 38 1 1 34
M  V30 39 1 1 35
M  V30 40 1 4 36
M  V30 41 1 6 37
M  V30 42 1 7 38
M  V30 43 1 10 39
M  V30 44 1 12 40
M  V30 45 1 15 41
M  V30 46 1 15 42
M  V30 47 1 16 43 CFG=1
M  V30 48 1 17 44
M  V30 49 1 17 45
M  V30 50 1 18 46
M  V30 51 1 18 47
M  V30 52 1 20 48
M  V30 53 1 21 49
M  V30 54 1 22 50
M  V30 55 1 30 51
M  V30 56 1 31 52
M  V30 END BOND
M  V30 END CTAB
M  END
>  <Dataset>  (476) 
ChEMBL_Kinases

>  <Ligand_Instance>  (476) 
nan

>  <PDB_ID>  (476) 
nan

>  <Standardized_SMILES>  (476) 
Cc1n[nH]c2ccc(-c3cncc(OC[C@@H](N)Cc4cccc5c4OC(F)(F)O5)c3)cc12

>  <Name>  (476) 
nan

>  <Pocket>  (476) 
nan

>  <ATP_Site>  (476) 
nan

>  <Peripheral>  (476) 
nan

>  <Num_H_Atoms_ProtBoundConf>  (476) 
nan

>  <Num_Resolved_Atoms>  (476) 
nan

>  <Num_Not_Resolved_Atoms>  (476) 
nan

$$$$
CHEMBL227366
     RDKit          3D

  0  0  0  0  0  0  0  0  0  0999 V3000
M  V30 BEGIN CTAB
M  V30 COUNTS 49 52 0 0 0
M  V30 BEGIN ATOM
M  V30 1 C 1.841536 -3.085160 4.232818 0
M  V30 2 C 3.255132 -3.016245 3.793984 0
M  V30 3 N 4.435426 -3.451121 4.304592 0
M  V30 4 N 5.438617 -3.129060 3.507586 0
M  V30 5 C 4.981431 -2.466908 2.430413 0
M  V30 6 C 5.563841 -1.911796 1.312740 0
M  V30 7 C 4.829513 -1.259726 0.316596 0
M  V30 8 C 3.449226 -1.175320 0.475227 0
M  V30 9 C 2.584305 -0.528210 -0.500066 0
M  V30 10 C 2.751008 -0.467159 -1.893253 0
M  V30 11 N 1.841218 0.185759 -2.627192 0
M  V30 12 C 0.765701 0.789634 -2.089566 0
M  V30 13 C 0.511379 0.781335 -0.691856 0
M  V30 14 O -0.639025 1.472848 -0.514243 0
M  V30 15 C -1.359660 1.767072 0.637627 0
M  V30 16 C -1.833235 0.509745 1.325233 0 CFG=1
M  V30 17 N -2.603426 0.823131 2.520644 0
M  V30 18 C -2.523229 -0.433270 0.421277 0
M  V30 19 C -3.751714 -0.026322 -0.233960 0
M  V30 20 C -4.621893 1.026055 -0.108489 0
M  V30 21 C -5.764621 1.201150 -0.827321 0
M  V30 22 C -6.121363 0.247021 -1.790403 0
M  V30 23 Br -7.716155 0.461957 -2.807637 0
M  V30 24 C -5.280420 -0.822294 -1.949441 0
M  V30 25 C -4.125167 -0.973369 -1.204483 0
M  V30 26 F -3.436300 -2.113147 -1.526844 0
M  V30 27 C 1.475694 0.102618 -0.013588 0
M  V30 28 C 2.917852 -1.746288 1.607977 0
M  V30 29 C 3.615172 -2.391949 2.601477 0
M  V30 30 H 1.828522 -3.478370 5.283547 0
M  V30 31 H 1.312645 -2.126594 4.204432 0
M  V30 32 H 1.303870 -3.846057 3.611437 0
M  V30 33 H 6.437910 -3.370710 3.716254 0
M  V30 34 H 6.644774 -1.974953 1.187351 0
M  V30 35 H 5.303194 -0.835219 -0.545374 0
M  V30 36 H 3.645353 -0.980280 -2.243264 0
M  V30 37 H 0.190101 1.246672 -2.904563 0
M  V30 38 H -2.156615 2.468033 0.349273 0
M  V30 39 H -0.735010 2.361905 1.371850 0
M  V30 40 H -0.936123 -0.011519 1.713608 0
M  V30 41 H -2.864817 -0.037274 3.049048 0
M  V30 42 H -2.128655 1.532454 3.113975 0
M  V30 43 H -2.736799 -1.412474 0.944559 0
M  V30 44 H -1.768918 -0.741736 -0.366140 0
M  V30 45 H -4.326157 1.724674 0.636679 0
M  V30 46 H -6.374756 2.071794 -0.644223 0
M  V30 47 H -5.611542 -1.524827 -2.705770 0
M  V30 48 H 1.254405 0.136126 1.041906 0
M  V30 49 H 1.830676 -1.680076 1.721168 0
M  V30 END ATOM
M  V30 BEGIN BOND
M  V30 1 1 1 2
M  V30 2 2 2 3
M  V30 3 1 3 4
M  V30 4 1 4 5
M  V30 5 2 5 6
M  V30 6 1 6 7
M  V30 7 2 7 8
M  V30 8 1 8 9
M  V30 9 2 9 10
M  V30 10 1 10 11
M  V30 11 2 11 12
M  V30 12 1 12 13
M  V30 13 1 13 14
M  V30 14 1 14 15
M  V30 15 1 15 16
M  V30 16 1 16 17
M  V30 17 1 16 18
M  V30 18 1 18 19
M  V30 19 2 19 20
M  V30 20 1 20 21
M  V30 21 2 21 22
M  V30 22 1 22 23
M  V30 23 1 22 24
M  V30 24 2 24 25
M  V30 25 1 25 26
M  V30 26 2 13 27
M  V30 27 1 8 28
M  V30 28 2 28 29
M  V30 29 1 29 2
M  V30 30 1 29 5
M  V30 31 1 27 9
M  V30 32 1 25 19
M  V30 33 1 1 30
M  V30 34 1 1 31
M  V30 35 1 1 32
M  V30 36 1 4 33
M  V30 37 1 6 34
M  V30 38 1 7 35
M  V30 39 1 10 36
M  V30 40 1 12 37
M  V30 41 1 15 38
M  V30 42 1 15 39
M  V30 43 1 16 40 CFG=1
M  V30 44 1 17 41
M  V30 45 1 17 42
M  V30 46 1 18 43
M  V30 47 1 18 44
M  V30 48 1 20 45
M  V30 49 1 21 46
M  V30 50 1 24 47
M  V30 51 1 27 48
M  V30 52 1 28 49
M  V30 END BOND
M  V30 END CTAB
M  END
>  <Dataset>  (477) 
ChEMBL_Kinases

>  <Ligand_Instance>  (477) 
nan

>  <PDB_ID>  (477) 
nan

>  <Standardized_SMILES>  (477) 
Cc1n[nH]c2ccc(-c3cncc(OC[C@@H](N)Cc4ccc(Br)cc4F)c3)cc12

>  <Name>  (477) 
nan

>  <Pocket>  (477) 
nan

>  <ATP_Site>  (477) 
nan

>  <Peripheral>  (477) 
nan

>  <Num_H_Atoms_ProtBoundConf>  (477) 
nan

>  <Num_Resolved_Atoms>  (477) 
nan

>  <Num_Not_Resolved_Atoms>  (477) 
nan

$$$$
CHEMBL227367
     RDKit          3D

  0  0  0  0  0  0  0  0  0  0999 V3000
M  V30 BEGIN CTAB
M  V30 COUNTS 49 52 0 0 0
M  V30 BEGIN ATOM
M  V30 1 C 0.480519 -2.872226 3.825574 0
M  V30 2 C 1.959523 -2.994612 3.643948 0
M  V30 3 N 2.860625 -3.649676 4.398221 0
M  V30 4 N 4.075215 -3.500790 3.877465 0
M  V30 5 C 4.017977 -2.737108 2.753731 0
M  V30 6 C 4.937937 -2.269830 1.831026 0
M  V30 7 C 4.518723 -1.480383 0.757909 0
M  V30 8 C 3.190039 -1.146118 0.586941 0
M  V30 9 C 2.737793 -0.320744 -0.531814 0
M  V30 10 C 3.345766 -0.331576 -1.769527 0
M  V30 11 N 2.838934 0.480534 -2.745561 0
M  V30 12 C 1.755394 1.267161 -2.458927 0
M  V30 13 C 1.120477 1.293384 -1.204269 0
M  V30 14 O 0.092823 2.194449 -1.319121 0
M  V30 15 C -0.845428 2.582530 -0.367372 0
M  V30 16 C -1.739674 1.514181 0.160220 0 CFG=1
M  V30 17 N -2.639051 2.117506 1.127129 0
M  V30 18 C -2.622158 0.952946 -0.960242 0
M  V30 19 C -3.475928 -0.095645 -0.369252 0
M  V30 20 C -4.725670 0.070462 0.188052 0
M  V30 21 C -5.393448 -1.037150 0.702924 0
M  V30 22 C -4.788400 -2.287922 0.645449 0
M  V30 23 Br -5.811631 -3.719387 1.386061 0
M  V30 24 C -3.542824 -2.467887 0.092642 0
M  V30 25 F -3.006358 -3.710241 0.065837 0
M  V30 26 C -2.887342 -1.359392 -0.416613 0
M  V30 27 C 1.647823 0.468485 -0.237560 0
M  V30 28 C 2.291641 -1.638117 1.541236 0
M  V30 29 C 2.680841 -2.420593 2.611224 0
M  V30 30 H 0.300601 -2.937492 4.915698 0
M  V30 31 H 0.114899 -1.915467 3.391137 0
M  V30 32 H -0.038226 -3.702951 3.266719 0
M  V30 33 H 4.970118 -3.915393 4.275042 0
M  V30 34 H 5.994352 -2.537113 1.969034 0
M  V30 35 H 5.267764 -1.125908 0.045162 0
M  V30 36 H 4.197536 -0.982732 -1.912818 0
M  V30 37 H 1.544794 1.815521 -3.391893 0
M  V30 38 H -1.523397 3.332544 -0.868593 0
M  V30 39 H -0.376994 3.089781 0.512034 0
M  V30 40 H -1.237725 0.696506 0.703069 0
M  V30 41 H -2.452571 1.872163 2.101937 0
M  V30 42 H -2.891067 3.094336 0.929572 0
M  V30 43 H -2.028432 0.594409 -1.809959 0
M  V30 44 H -3.285608 1.800885 -1.271466 0
M  V30 45 H -5.085524 1.076006 0.174670 0
M  V30 46 H -6.372224 -0.870157 1.132789 0
M  V30 47 H -1.916964 -1.572067 -0.834386 0
M  V30 48 H 1.099137 0.573920 0.661921 0
M  V30 49 H 1.238293 -1.396483 1.440597 0
M  V30 END ATOM
M  V30 BEGIN BOND
M  V30 1 1 1 2
M  V30 2 2 2 3
M  V30 3 1 3 4
M  V30 4 1 4 5
M  V30 5 2 5 6
M  V30 6 1 6 7
M  V30 7 2 7 8
M  V30 8 1 8 9
M  V30 9 2 9 10
M  V30 10 1 10 11
M  V30 11 2 11 12
M  V30 12 1 12 13
M  V30 13 1 13 14
M  V30 14 1 14 15
M  V30 15 1 15 16
M  V30 16 1 16 17
M  V30 17 1 16 18
M  V30 18 1 18 19
M  V30 19 2 19 20
M  V30 20 1 20 21
M  V30 21 2 21 22
M  V30 22 1 22 23
M  V30 23 1 22 24
M  V30 24 1 24 25
M  V30 25 2 24 26
M  V30 26 2 13 27
M  V30 27 1 8 28
M  V30 28 2 28 29
M  V30 29 1 29 2
M  V30 30 1 29 5
M  V30 31 1 27 9
M  V30 32 1 26 19
M  V30 33 1 1 30
M  V30 34 1 1 31
M  V30 35 1 1 32
M  V30 36 1 4 33
M  V30 37 1 6 34
M  V30 38 1 7 35
M  V30 39 1 10 36
M  V30 40 1 12 37
M  V30 41 1 15 38
M  V30 42 1 15 39
M  V30 43 1 16 40 CFG=1
M  V30 44 1 17 41
M  V30 45 1 17 42
M  V30 46 1 18 43
M  V30 47 1 18 44
M  V30 48 1 20 45
M  V30 49 1 21 46
M  V30 50 1 26 47
M  V30 51 1 27 48
M  V30 52 1 28 49
M  V30 END BOND
M  V30 END CTAB
M  END
>  <Dataset>  (478) 
ChEMBL_Kinases

>  <Ligand_Instance>  (478) 
nan

>  <PDB_ID>  (478) 
nan

>  <Standardized_SMILES>  (478) 
Cc1n[nH]c2ccc(-c3cncc(OC[C@@H](N)Cc4ccc(Br)c(F)c4)c3)cc12

>  <Name>  (478) 
nan

>  <Pocket>  (478) 
nan

>  <ATP_Site>  (478) 
nan

>  <Peripheral>  (478) 
nan

>  <Num_H_Atoms_ProtBoundConf>  (478) 
nan

>  <Num_Resolved_Atoms>  (478) 
nan

>  <Num_Not_Resolved_Atoms>  (478) 
nan

$$$$
CHEMBL227368
     RDKit          3D

  0  0  0  0  0  0  0  0  0  0999 V3000
M  V30 BEGIN CTAB
M  V30 COUNTS 52 55 0 0 0
M  V30 BEGIN ATOM
M  V30 1 C 0.376480 -1.759507 -0.832108 0
M  V30 2 C 0.854797 -1.504729 -2.217218 0
M  V30 3 C 0.152928 -2.016214 -3.276601 0
M  V30 4 C 0.735815 -1.880005 -4.516308 0
M  V30 5 C 1.962957 -1.255247 -4.643860 0
M  V30 6 F 2.478831 -1.165980 -5.891173 0
M  V30 7 C 2.527005 -0.800358 -3.502843 0
M  V30 8 C 2.076318 -0.850646 -2.161528 0
M  V30 9 C 2.908800 -0.113471 -1.239916 0
M  V30 10 C 2.732436 1.366933 -1.289861 0 CFG=2
M  V30 11 N 3.619230 2.060463 -0.338723 0
M  V30 12 C 1.363226 1.934318 -1.124015 0
M  V30 13 O 0.710545 1.917536 0.009337 0
M  V30 14 C 0.070698 1.724152 1.093769 0
M  V30 15 C -0.154237 2.974902 1.723834 0
M  V30 16 N -0.813797 3.179197 2.918981 0
M  V30 17 C -1.276008 2.093904 3.523736 0
M  V30 18 C -1.156574 0.809076 3.073670 0
M  V30 19 C -1.619398 -0.477811 3.634324 0
M  V30 20 C -1.636426 -0.529419 5.002533 0
M  V30 21 C -2.039822 -1.742054 5.601501 0
M  V30 22 C -2.384920 -2.770405 4.712329 0
M  V30 23 N -2.815489 -4.040009 5.006668 0
M  V30 24 N -3.045880 -4.709568 3.853233 0
M  V30 25 C -2.779765 -3.923143 2.829811 0
M  V30 26 C -2.889440 -4.193647 1.354945 0
M  V30 27 C -2.367078 -2.711432 3.325177 0
M  V30 28 C -1.956356 -1.481422 2.775429 0
M  V30 29 C -0.474696 0.728526 1.862907 0
M  V30 30 H 0.987906 -1.350689 -0.037043 0
M  V30 31 H -0.718769 -1.642453 -0.760728 0
M  V30 32 H 0.542221 -2.896958 -0.708399 0
M  V30 33 H -0.808336 -2.480664 -3.015758 0
M  V30 34 H 0.176846 -2.280785 -5.344160 0
M  V30 35 H 3.506486 -0.325521 -3.747885 0
M  V30 36 H 3.988742 -0.318114 -1.505373 0
M  V30 37 H 2.733998 -0.377763 -0.160044 0
M  V30 38 H 3.139314 1.735933 -2.293485 0
M  V30 39 H 3.140238 2.756680 0.230444 0
M  V30 40 H 4.515271 2.347213 -0.753732 0
M  V30 41 H 1.466974 3.042651 -1.469904 0
M  V30 42 H 0.722384 1.530520 -1.999748 0
M  V30 43 H 0.145672 3.994215 1.399380 0
M  V30 44 H -1.819163 2.134825 4.483707 0
M  V30 45 H -1.378561 0.249729 5.716549 0
M  V30 46 H -2.109458 -1.952079 6.640205 0
M  V30 47 H -2.954326 -4.463132 5.953856 0
M  V30 48 H -3.886415 -4.683935 1.130436 0
M  V30 49 H -2.097263 -4.878726 1.025751 0
M  V30 50 H -2.811372 -3.221350 0.789262 0
M  V30 51 H -1.942852 -1.440750 1.717035 0
M  V30 52 H -0.335377 -0.239330 1.425293 0
M  V30 END ATOM
M  V30 BEGIN BOND
M  V30 1 1 1 2
M  V30 2 2 2 3
M  V30 3 1 3 4
M  V30 4 2 4 5
M  V30 5 1 5 6
M  V30 6 1 5 7
M  V30 7 2 7 8
M  V30 8 1 8 9
M  V30 9 1 9 10
M  V30 10 1 10 11
M  V30 11 1 10 12
M  V30 12 1 12 13
M  V30 13 1 13 14
M  V30 14 2 14 15
M  V30 15 1 15 16
M  V30 16 2 16 17
M  V30 17 1 17 18
M  V30 18 1 18 19
M  V30 19 2 19 20
M  V30 20 1 20 21
M  V30 21 2 21 22
M  V30 22 1 22 23
M  V30 23 1 23 24
M  V30 24 2 24 25
M  V30 25 1 25 26
M  V30 26 1 25 27
M  V30 27 2 27 28
M  V30 28 2 18 29
M  V30 29 1 8 2
M  V30 30 1 29 14
M  V30 31 1 28 19
M  V30 32 1 27 22
M  V30 33 1 1 30
M  V30 34 1 1 31
M  V30 35 1 1 32
M  V30 36 1 3 33
M  V30 37 1 4 34
M  V30 38 1 7 35
M  V30 39 1 9 36
M  V30 40 1 9 37
M  V30 41 1 10 38 CFG=3
M  V30 42 1 11 39
M  V30 43 1 11 40
M  V30 44 1 12 41
M  V30 45 1 12 42
M  V30 46 1 15 43
M  V30 47 1 17 44
M  V30 48 1 20 45
M  V30 49 1 21 46
M  V30 50 1 23 47
M  V30 51 1 26 48
M  V30 52 1 26 49
M  V30 53 1 26 50
M  V30 54 1 28 51
M  V30 55 1 29 52
M  V30 END BOND
M  V30 END CTAB
M  END
>  <Dataset>  (479) 
ChEMBL_Kinases

>  <Ligand_Instance>  (479) 
nan

>  <PDB_ID>  (479) 
nan

>  <Standardized_SMILES>  (479) 
Cc1ccc(F)cc1C[C@H](N)COc1cncc(-c2ccc3[nH]nc(C)c3c2)c1

>  <Name>  (479) 
nan

>  <Pocket>  (479) 
nan

>  <ATP_Site>  (479) 
nan

>  <Peripheral>  (479) 
nan

>  <Num_H_Atoms_ProtBoundConf>  (479) 
nan

>  <Num_Resolved_Atoms>  (479) 
nan

>  <Num_Not_Resolved_Atoms>  (479) 
nan

$$$$
CHEMBL227370
     RDKit          3D

  0  0  0  0  0  0  0  0  0  0999 V3000
M  V30 BEGIN CTAB
M  V30 COUNTS 18 19 0 0 0
M  V30 BEGIN ATOM
M  V30 1 F 0.192952 -3.428397 2.668941 0
M  V30 2 C 1.419329 -2.773271 2.598966 0
M  V30 3 F 2.266841 -3.599830 1.900517 0
M  V30 4 F 1.899326 -2.496772 3.858458 0
M  V30 5 C 1.260425 -1.519792 1.808518 0
M  V30 6 N 1.543458 -1.347952 0.505154 0
M  V30 7 C 1.250944 -0.052583 0.191263 0
M  V30 8 C 1.359654 0.634922 -1.010144 0
M  V30 9 Br 2.012178 -0.248185 -2.572490 0
M  V30 10 C 0.999020 1.968764 -1.100352 0
M  V30 11 Br 1.145542 2.920904 -2.748398 0
M  V30 12 C 0.530942 2.608628 0.013186 0
M  V30 13 Br 0.017268 4.430893 -0.027780 0
M  V30 14 C 0.420799 1.924008 1.216954 0
M  V30 15 Br -0.226904 2.771468 2.800618 0
M  V30 16 C 0.777237 0.593587 1.319754 0
M  V30 17 N 0.806517 -0.361248 2.281634 0
M  V30 18 H 0.512448 -0.201753 3.254655 0
M  V30 END ATOM
M  V30 BEGIN BOND
M  V30 1 1 1 2
M  V30 2 1 2 3
M  V30 3 1 2 4
M  V30 4 1 2 5
M  V30 5 2 5 6
M  V30 6 1 6 7
M  V30 7 2 7 8
M  V30 8 1 8 9
M  V30 9 1 8 10
M  V30 10 1 10 11
M  V30 11 2 10 12
M  V30 12 1 12 13
M  V30 13 1 12 14
M  V30 14 1 14 15
M  V30 15 2 14 16
M  V30 16 1 16 17
M  V30 17 1 17 5
M  V30 18 1 16 7
M  V30 19 1 17 18
M  V30 END BOND
M  V30 END CTAB
M  END
>  <Dataset>  (480) 
ChEMBL_Kinases

>  <Ligand_Instance>  (480) 
nan

>  <PDB_ID>  (480) 
nan

>  <Standardized_SMILES>  (480) 
FC(F)(F)c1nc2c(Br)c(Br)c(Br)c(Br)c2[nH]1

>  <Name>  (480) 
nan

>  <Pocket>  (480) 
nan

>  <ATP_Site>  (480) 
nan

>  <Peripheral>  (480) 
nan

>  <Num_H_Atoms_ProtBoundConf>  (480) 
nan

>  <Num_Resolved_Atoms>  (480) 
nan

>  <Num_Not_Resolved_Atoms>  (480) 
nan

$$$$
CHEMBL227322
     RDKit          3D

  0  0  0  0  0  0  0  0  0  0999 V3000
M  V30 BEGIN CTAB
M  V30 COUNTS 52 55 0 0 0
M  V30 BEGIN ATOM
M  V30 1 C 0.035180 -3.498900 -2.330980 0
M  V30 2 C 1.481007 -3.859963 -2.258757 0
M  V30 3 N 2.092157 -4.933843 -2.787004 0
M  V30 4 N 3.397547 -4.899039 -2.504537 0
M  V30 5 C 3.629889 -3.777294 -1.778339 0
M  V30 6 C 4.803628 -3.287021 -1.246672 0
M  V30 7 C 4.849109 -2.097329 -0.517328 0
M  V30 8 C 3.652504 -1.430786 -0.353022 0
M  V30 9 C 3.496965 -0.161562 0.381647 0
M  V30 10 C 4.562412 0.704333 0.345276 0
M  V30 11 N 4.422632 1.879221 1.024497 0
M  V30 12 C 3.293718 2.167675 1.694171 0
M  V30 13 C 2.199663 1.332770 1.760120 0
M  V30 14 O 1.047748 1.666105 2.464002 0
M  V30 15 C -0.062145 0.762398 2.502089 0
M  V30 16 C -1.190330 1.324002 3.318657 0 CFG=1
M  V30 17 N -1.660024 2.593391 2.774400 0
M  V30 18 C -2.316792 0.364430 3.531391 0
M  V30 19 C -2.990407 -0.116097 2.313231 0
M  V30 20 C -4.188406 0.520283 1.978566 0
M  V30 21 C -4.933906 0.206358 0.867951 0
M  V30 22 C -6.211086 0.830093 0.443949 0
M  V30 23 F -6.151278 1.048601 -0.922881 0
M  V30 24 F -7.273741 -0.033229 0.639162 0
M  V30 25 F -6.465391 1.992800 1.118234 0
M  V30 26 C -4.494710 -0.797617 0.011255 0
M  V30 27 C -3.319627 -1.457402 0.294833 0
M  V30 28 C -2.623796 -1.093309 1.422447 0
M  V30 29 F -1.487195 -1.770943 1.685015 0
M  V30 30 C 2.338454 0.131975 1.067902 0
M  V30 31 C 2.456194 -1.919815 -0.888299 0
M  V30 32 C 2.426541 -3.096154 -1.606519 0
M  V30 33 H -0.417722 -3.944516 -3.238523 0
M  V30 34 H -0.504975 -3.766764 -1.401701 0
M  V30 35 H -0.022188 -2.394873 -2.411142 0
M  V30 36 H 4.079477 -5.630850 -2.811424 0
M  V30 37 H 5.752700 -3.812169 -1.373768 0
M  V30 38 H 5.721581 -1.652727 -0.073177 0
M  V30 39 H 5.455018 0.455863 -0.195036 0
M  V30 40 H 3.242387 3.114215 2.213306 0
M  V30 41 H -0.404757 0.661443 1.458069 0
M  V30 42 H 0.271659 -0.225989 2.887171 0
M  V30 43 H -0.761923 1.539329 4.336583 0
M  V30 44 H -0.833787 3.243031 2.801682 0
M  V30 45 H -2.417215 2.979313 3.376427 0
M  V30 46 H -3.089488 0.784248 4.235086 0
M  V30 47 H -1.901427 -0.510396 4.122695 0
M  V30 48 H -4.651621 1.316699 2.548678 0
M  V30 49 H -5.024598 -1.100795 -0.880330 0
M  V30 50 H -2.957686 -2.229737 -0.341812 0
M  V30 51 H 1.515836 -0.581344 1.072906 0
M  V30 52 H 1.496556 -1.434655 -0.786455 0
M  V30 END ATOM
M  V30 BEGIN BOND
M  V30 1 1 1 2
M  V30 2 2 2 3
M  V30 3 1 3 4
M  V30 4 1 4 5
M  V30 5 2 5 6
M  V30 6 1 6 7
M  V30 7 2 7 8
M  V30 8 1 8 9
M  V30 9 2 9 10
M  V30 10 1 10 11
M  V30 11 2 11 12
M  V30 12 1 12 13
M  V30 13 1 13 14
M  V30 14 1 14 15
M  V30 15 1 15 16
M  V30 16 1 16 17
M  V30 17 1 16 18
M  V30 18 1 18 19
M  V30 19 2 19 20
M  V30 20 1 20 21
M  V30 21 1 21 22
M  V30 22 1 22 23
M  V30 23 1 22 24
M  V30 24 1 22 25
M  V30 25 2 21 26
M  V30 26 1 26 27
M  V30 27 2 27 28
M  V30 28 1 28 29
M  V30 29 2 13 30
M  V30 30 1 8 31
M  V30 31 2 31 32
M  V30 32 1 32 2
M  V30 33 1 32 5
M  V30 34 1 30 9
M  V30 35 1 28 19
M  V30 36 1 1 33
M  V30 37 1 1 34
M  V30 38 1 1 35
M  V30 39 1 4 36
M  V30 40 1 6 37
M  V30 41 1 7 38
M  V30 42 1 10 39
M  V30 43 1 12 40
M  V30 44 1 15 41
M  V30 45 1 15 42
M  V30 46 1 16 43 CFG=1
M  V30 47 1 17 44
M  V30 48 1 17 45
M  V30 49 1 18 46
M  V30 50 1 18 47
M  V30 51 1 20 48
M  V30 52 1 26 49
M  V30 53 1 27 50
M  V30 54 1 30 51
M  V30 55 1 31 52
M  V30 END BOND
M  V30 END CTAB
M  END
>  <Dataset>  (481) 
ChEMBL_Kinases

>  <Ligand_Instance>  (481) 
nan

>  <PDB_ID>  (481) 
nan

>  <Standardized_SMILES>  (481) 
Cc1n[nH]c2ccc(-c3cncc(OC[C@@H](N)Cc4cc(C(F)(F)F)ccc4F)c3)cc12

>  <Name>  (481) 
nan

>  <Pocket>  (481) 
nan

>  <ATP_Site>  (481) 
nan

>  <Peripheral>  (481) 
nan

>  <Num_H_Atoms_ProtBoundConf>  (481) 
nan

>  <Num_Resolved_Atoms>  (481) 
nan

>  <Num_Not_Resolved_Atoms>  (481) 
nan

$$$$
CHEMBL2236807
     RDKit          3D

  0  0  0  0  0  0  0  0  0  0999 V3000
M  V30 BEGIN CTAB
M  V30 COUNTS 57 61 0 0 0
M  V30 BEGIN ATOM
M  V30 1 C 3.740611 2.152434 3.054919 0
M  V30 2 C 4.138730 0.721342 2.764513 0
M  V30 3 N 3.031880 -0.171232 2.682598 0
M  V30 4 C 2.316003 -0.437389 3.865500 0
M  V30 5 C 3.024390 -1.085652 1.614828 0
M  V30 6 C 1.838794 -2.003018 1.640760 0 CFG=1
M  V30 7 C 0.586883 -1.190481 1.563433 0
M  V30 8 C -0.261913 -1.968826 0.621671 0
M  V30 9 C -1.590030 -2.014874 0.175338 0
M  V30 10 C -2.746339 -1.190517 0.501391 0
M  V30 11 C -2.999474 0.106051 0.568216 0
M  V30 12 N -2.174306 1.240917 0.326890 0
M  V30 13 C -1.681926 1.646018 -0.957247 0
M  V30 14 C -0.895235 2.792403 -1.086494 0
M  V30 15 C -0.451365 3.127740 -2.347805 0
M  V30 16 C -0.794087 2.334322 -3.417787 0
M  V30 17 C -1.571643 1.198702 -3.300281 0
M  V30 18 C -2.018244 0.855033 -2.052609 0
M  V30 19 C -4.370413 0.355103 0.979769 0
M  V30 20 O -4.983030 1.456883 1.155640 0
M  V30 21 N -5.013131 -0.916507 1.183528 0
M  V30 22 C -3.988437 -1.883175 0.882073 0
M  V30 23 O -4.368796 -3.094961 1.008376 0
M  V30 24 C -1.599695 -3.067961 -0.735313 0
M  V30 25 C -2.574988 -3.631720 -1.525270 0
M  V30 26 C -2.402188 -4.691547 -2.387622 0
M  V30 27 C -1.123326 -5.249414 -2.474767 0
M  V30 28 C -0.127349 -4.703106 -1.694941 0
M  V30 29 C -0.346721 -3.628158 -0.832761 0
M  V30 30 N 0.445055 -2.938198 0.003853 0
M  V30 31 C 1.824581 -2.931579 0.434017 0
M  V30 32 H 3.738173 2.365967 4.158839 0
M  V30 33 H 2.814494 2.447881 2.544995 0
M  V30 34 H 4.553625 2.799869 2.634983 0
M  V30 35 H 4.730519 0.698062 1.833080 0
M  V30 36 H 4.739422 0.406117 3.671058 0
M  V30 37 H 2.056417 -1.482934 4.079052 0
M  V30 38 H 1.411753 0.237964 3.996185 0
M  V30 39 H 2.957743 -0.134738 4.756966 0
M  V30 40 H 3.963236 -1.717076 1.600246 0
M  V30 41 H 2.991406 -0.566500 0.604841 0
M  V30 42 H 1.888070 -2.685975 2.515492 0
M  V30 43 H 0.144950 -1.216460 2.603536 0
M  V30 44 H 0.687673 -0.179006 1.173218 0
M  V30 45 H -1.906330 1.825710 1.159481 0
M  V30 46 H -0.640939 3.403521 -0.220513 0
M  V30 47 H 0.169398 4.025135 -2.462535 0
M  V30 48 H -0.446129 2.595221 -4.412805 0
M  V30 49 H -1.808257 0.608068 -4.197878 0
M  V30 50 H -2.621265 -0.033180 -1.994879 0
M  V30 51 H -6.007893 -1.013091 1.484551 0
M  V30 52 H -3.599073 -3.274737 -1.549533 0
M  V30 53 H -3.174766 -5.124541 -3.002264 0
M  V30 54 H -0.935872 -6.084177 -3.134657 0
M  V30 55 H 0.869322 -5.142749 -1.764820 0
M  V30 56 H 2.523649 -2.484498 -0.293911 0
M  V30 57 H 2.098395 -3.976237 0.693946 0
M  V30 END ATOM
M  V30 BEGIN BOND
M  V30 1 1 1 2
M  V30 2 1 2 3
M  V30 3 1 3 4
M  V30 4 1 3 5
M  V30 5 1 5 6
M  V30 6 1 6 7
M  V30 7 1 7 8
M  V30 8 2 8 9
M  V30 9 1 9 10
M  V30 10 2 10 11
M  V30 11 1 11 12
M  V30 12 1 12 13
M  V30 13 2 13 14
M  V30 14 1 14 15
M  V30 15 2 15 16
M  V30 16 1 16 17
M  V30 17 2 17 18
M  V30 18 1 11 19
M  V30 19 2 19 20
M  V30 20 1 19 21
M  V30 21 1 21 22
M  V30 22 2 22 23
M  V30 23 1 9 24
M  V30 24 2 24 25
M  V30 25 1 25 26
M  V30 26 2 26 27
M  V30 27 1 27 28
M  V30 28 2 28 29
M  V30 29 1 29 30
M  V30 30 1 30 31
M  V30 31 1 31 6
M  V30 32 1 30 8
M  V30 33 1 22 10
M  V30 34 1 29 24
M  V30 35 1 18 13
M  V30 36 1 1 32
M  V30 37 1 1 33
M  V30 38 1 1 34
M  V30 39 1 2 35
M  V30 40 1 2 36
M  V30 41 1 4 37
M  V30 42 1 4 38
M  V30 43 1 4 39
M  V30 44 1 5 40
M  V30 45 1 5 41
M  V30 46 1 6 42 CFG=1
M  V30 47 1 7 43
M  V30 48 1 7 44
M  V30 49 1 12 45
M  V30 50 1 14 46
M  V30 51 1 15 47
M  V30 52 1 16 48
M  V30 53 1 17 49
M  V30 54 1 18 50
M  V30 55 1 21 51
M  V30 56 1 25 52
M  V30 57 1 26 53
M  V30 58 1 27 54
M  V30 59 1 28 55
M  V30 60 1 31 56
M  V30 61 1 31 57
M  V30 END BOND
M  V30 END CTAB
M  END
>  <Dataset>  (482) 
ChEMBL_Kinases

>  <Ligand_Instance>  (482) 
nan

>  <PDB_ID>  (482) 
nan

>  <Standardized_SMILES>  (482) 
CCN(C)C[C@H]1Cc2c(C3=C(Nc4ccccc4)C(=O)NC3=O)c3ccccc3n2C1

>  <Name>  (482) 
nan

>  <Pocket>  (482) 
nan

>  <ATP_Site>  (482) 
nan

>  <Peripheral>  (482) 
nan

>  <Num_H_Atoms_ProtBoundConf>  (482) 
nan

>  <Num_Resolved_Atoms>  (482) 
nan

>  <Num_Not_Resolved_Atoms>  (482) 
nan

$$$$
CHEMBL2236806
     RDKit          3D

  0  0  0  0  0  0  0  0  0  0999 V3000
M  V30 BEGIN CTAB
M  V30 COUNTS 60 64 0 0 0
M  V30 BEGIN ATOM
M  V30 1 C 3.953250 -0.233587 0.959416 0
M  V30 2 C 3.148175 -1.153519 1.856501 0
M  V30 3 N 1.839299 -0.656727 2.124461 0
M  V30 4 C 1.782751 0.503163 2.935580 0
M  V30 5 C 2.241945 0.158430 4.353467 0
M  V30 6 C 0.948637 -1.713873 2.412024 0
M  V30 7 C -0.477614 -1.269504 2.633490 0 CFG=1
M  V30 8 C -0.889992 -0.599164 1.337662 0
M  V30 9 C -1.210185 -1.761206 0.471465 0
M  V30 10 C -1.316603 -2.168941 -0.860076 0
M  V30 11 C -1.039907 -1.337262 -2.004215 0
M  V30 12 C -1.406698 -0.085055 -2.208757 0
M  V30 13 N -2.140398 0.917644 -1.520770 0
M  V30 14 C -1.376770 2.026567 -1.043870 0
M  V30 15 C -1.960915 3.107708 -0.367173 0
M  V30 16 C -1.173711 4.151410 0.073225 0
M  V30 17 C 0.192872 4.198041 -0.117172 0
M  V30 18 C 0.804961 3.149711 -0.780195 0
M  V30 19 C -0.010623 2.125236 -1.204952 0
M  V30 20 C -0.880753 0.374469 -3.517290 0
M  V30 21 O -0.958657 1.471759 -4.152348 0
M  V30 22 N -0.151353 -0.692644 -4.118069 0
M  V30 23 C -0.257118 -1.766357 -3.157028 0
M  V30 24 O 0.318899 -2.873711 -3.439649 0
M  V30 25 C -1.719409 -3.481844 -0.772067 0
M  V30 26 C -1.995975 -4.390126 -1.770204 0
M  V30 27 C -2.405112 -5.687030 -1.530597 0
M  V30 28 C -2.545033 -6.095854 -0.207733 0
M  V30 29 C -2.265271 -5.176202 0.805179 0
M  V30 30 C -1.855989 -3.878767 0.543663 0
M  V30 31 N -1.534517 -2.795065 1.273489 0
M  V30 32 C -1.429108 -2.441815 2.672304 0
M  V30 33 H 3.788403 0.828028 1.157528 0
M  V30 34 H 5.024444 -0.459418 1.122491 0
M  V30 35 H 3.709448 -0.428792 -0.120143 0
M  V30 36 H 3.049632 -2.115628 1.313470 0
M  V30 37 H 3.744548 -1.371408 2.770701 0
M  V30 38 H 0.737464 0.834280 3.050581 0
M  V30 39 H 2.330161 1.372061 2.542187 0
M  V30 40 H 1.986946 1.014942 5.017926 0
M  V30 41 H 1.624835 -0.699005 4.694044 0
M  V30 42 H 3.290214 -0.148914 4.385567 0
M  V30 43 H 1.281276 -2.203247 3.372169 0
M  V30 44 H 1.022053 -2.498643 1.634822 0
M  V30 45 H -0.603490 -0.642885 3.518310 0
M  V30 46 H -1.775735 0.059181 1.486480 0
M  V30 47 H -0.008840 -0.043656 0.970735 0
M  V30 48 H -3.161136 0.944960 -1.322883 0
M  V30 49 H -3.027887 3.110308 -0.196508 0
M  V30 50 H -1.590831 5.014008 0.603905 0
M  V30 51 H 0.828054 5.000182 0.215923 0
M  V30 52 H 1.869546 3.147644 -0.948100 0
M  V30 53 H 0.519177 1.316420 -1.726081 0
M  V30 54 H 0.350608 -0.712175 -5.046060 0
M  V30 55 H -1.930605 -4.175638 -2.825141 0
M  V30 56 H -2.625059 -6.411249 -2.319031 0
M  V30 57 H -2.863759 -7.109495 -0.002023 0
M  V30 58 H -2.374266 -5.493626 1.850406 0
M  V30 59 H -1.060328 -3.277065 3.301790 0
M  V30 60 H -2.407274 -2.122020 3.082041 0
M  V30 END ATOM
M  V30 BEGIN BOND
M  V30 1 1 1 2
M  V30 2 1 2 3
M  V30 3 1 3 4
M  V30 4 1 4 5
M  V30 5 1 3 6
M  V30 6 1 6 7
M  V30 7 1 7 8
M  V30 8 1 8 9
M  V30 9 2 9 10
M  V30 10 1 10 11
M  V30 11 2 11 12
M  V30 12 1 12 13
M  V30 13 1 13 14
M  V30 14 2 14 15
M  V30 15 1 15 16
M  V30 16 2 16 17
M  V30 17 1 17 18
M  V30 18 2 18 19
M  V30 19 1 12 20
M  V30 20 2 20 21
M  V30 21 1 20 22
M  V30 22 1 22 23
M  V30 23 2 23 24
M  V30 24 1 10 25
M  V30 25 2 25 26
M  V30 26 1 26 27
M  V30 27 2 27 28
M  V30 28 1 28 29
M  V30 29 2 29 30
M  V30 30 1 30 31
M  V30 31 1 31 32
M  V30 32 1 32 7
M  V30 33 1 31 9
M  V30 34 1 23 11
M  V30 35 1 30 25
M  V30 36 1 19 14
M  V30 37 1 1 33
M  V30 38 1 1 34
M  V30 39 1 1 35
M  V30 40 1 2 36
M  V30 41 1 2 37
M  V30 42 1 4 38
M  V30 43 1 4 39
M  V30 44 1 5 40
M  V30 45 1 5 41
M  V30 46 1 5 42
M  V30 47 1 6 43
M  V30 48 1 6 44
M  V30 49 1 7 45 CFG=1
M  V30 50 1 8 46
M  V30 51 1 8 47
M  V30 52 1 13 48
M  V30 53 1 15 49
M  V30 54 1 16 50
M  V30 55 1 17 51
M  V30 56 1 18 52
M  V30 57 1 19 53
M  V30 58 1 22 54
M  V30 59 1 26 55
M  V30 60 1 27 56
M  V30 61 1 28 57
M  V30 62 1 29 58
M  V30 63 1 32 59
M  V30 64 1 32 60
M  V30 END BOND
M  V30 END CTAB
M  END
>  <Dataset>  (483) 
ChEMBL_Kinases

>  <Ligand_Instance>  (483) 
nan

>  <PDB_ID>  (483) 
nan

>  <Standardized_SMILES>  (483) 
CCN(CC)C[C@H]1Cc2c(C3=C(Nc4ccccc4)C(=O)NC3=O)c3ccccc3n2C1

>  <Name>  (483) 
nan

>  <Pocket>  (483) 
nan

>  <ATP_Site>  (483) 
nan

>  <Peripheral>  (483) 
nan

>  <Num_H_Atoms_ProtBoundConf>  (483) 
nan

>  <Num_Resolved_Atoms>  (483) 
nan

>  <Num_Not_Resolved_Atoms>  (483) 
nan

$$$$
CHEMBL2236805
     RDKit          3D

  0  0  0  0  0  0  0  0  0  0999 V3000
M  V30 BEGIN CTAB
M  V30 COUNTS 54 58 0 0 0
M  V30 BEGIN ATOM
M  V30 1 C -2.280543 -0.101732 -3.408257 0
M  V30 2 N -3.135775 -0.157781 -2.210956 0
M  V30 3 C -4.092950 -1.245676 -2.330776 0
M  V30 4 C -2.227245 -0.336709 -1.097826 0
M  V30 5 C -2.928703 -0.371985 0.236937 0 CFG=1
M  V30 6 C -1.818069 -0.567835 1.288179 0
M  V30 7 C -0.947731 0.574509 0.875537 0
M  V30 8 C 0.366237 1.042919 0.743320 0
M  V30 9 C 1.587259 0.319490 1.075558 0
M  V30 10 C 1.975553 -0.927598 0.825675 0
M  V30 11 N 1.325127 -1.965382 0.149749 0
M  V30 12 C 1.285123 -2.410263 -1.193774 0
M  V30 13 C 2.030197 -1.773392 -2.151146 0
M  V30 14 C 1.924596 -2.275020 -3.444111 0
M  V30 15 C 1.117457 -3.348654 -3.740605 0
M  V30 16 C 0.380659 -3.965079 -2.746040 0
M  V30 17 C 0.465424 -3.490041 -1.456710 0
M  V30 18 C 3.317482 -1.143416 1.410653 0
M  V30 19 O 4.016321 -2.208688 1.376438 0
M  V30 20 N 3.750687 0.073036 2.056412 0
M  V30 21 C 2.658826 0.990660 1.843884 0
M  V30 22 O 2.843872 2.136911 2.345420 0
M  V30 23 C 0.248116 2.333654 0.223243 0
M  V30 24 C 1.154103 3.302831 -0.135789 0
M  V30 25 C 0.773808 4.526086 -0.645700 0
M  V30 26 C -0.555867 4.836218 -0.822105 0
M  V30 27 C -1.470430 3.877627 -0.469129 0
M  V30 28 C -1.104855 2.638330 0.047222 0
M  V30 29 N -1.794593 1.561915 0.447528 0
M  V30 30 C -3.194446 1.111093 0.565950 0
M  V30 31 H -2.174794 -1.126828 -3.786066 0
M  V30 32 H -1.266102 0.274453 -3.168342 0
M  V30 33 H -2.697644 0.627205 -4.135081 0
M  V30 34 H -3.783761 -2.135988 -1.721021 0
M  V30 35 H -5.085409 -0.849420 -2.002988 0
M  V30 36 H -4.145563 -1.510961 -3.404878 0
M  V30 37 H -1.642670 -1.265955 -1.314427 0
M  V30 38 H -1.501882 0.497649 -1.168254 0
M  V30 39 H -3.769702 -1.015966 0.337103 0
M  V30 40 H -2.158637 -0.367129 2.303626 0
M  V30 41 H -1.421085 -1.548010 1.077616 0
M  V30 42 H 0.780577 -2.451105 0.922842 0
M  V30 43 H 2.654643 -0.936119 -1.894124 0
M  V30 44 H 2.502965 -1.791509 -4.224203 0
M  V30 45 H 1.023931 -3.754006 -4.752206 0
M  V30 46 H -0.281743 -4.825699 -2.918273 0
M  V30 47 H -0.110195 -3.965794 -0.669710 0
M  V30 48 H 4.670123 0.155059 2.539969 0
M  V30 49 H 2.206478 3.131031 -0.038896 0
M  V30 50 H 1.475644 5.305926 -0.933012 0
M  V30 51 H -0.930993 5.762522 -1.211250 0
M  V30 52 H -2.543569 4.084350 -0.593819 0
M  V30 53 H -3.447634 1.242362 1.615987 0
M  V30 54 H -3.851127 1.546657 -0.178959 0
M  V30 END ATOM
M  V30 BEGIN BOND
M  V30 1 1 1 2
M  V30 2 1 2 3
M  V30 3 1 2 4
M  V30 4 1 4 5
M  V30 5 1 5 6
M  V30 6 1 6 7
M  V30 7 2 7 8
M  V30 8 1 8 9
M  V30 9 2 9 10
M  V30 10 1 10 11
M  V30 11 1 11 12
M  V30 12 2 12 13
M  V30 13 1 13 14
M  V30 14 2 14 15
M  V30 15 1 15 16
M  V30 16 2 16 17
M  V30 17 1 10 18
M  V30 18 2 18 19
M  V30 19 1 18 20
M  V30 20 1 20 21
M  V30 21 2 21 22
M  V30 22 1 8 23
M  V30 23 2 23 24
M  V30 24 1 24 25
M  V30 25 2 25 26
M  V30 26 1 26 27
M  V30 27 2 27 28
M  V30 28 1 28 29
M  V30 29 1 29 30
M  V30 30 1 30 5
M  V30 31 1 29 7
M  V30 32 1 21 9
M  V30 33 1 28 23
M  V30 34 1 17 12
M  V30 35 1 1 31
M  V30 36 1 1 32
M  V30 37 1 1 33
M  V30 38 1 3 34
M  V30 39 1 3 35
M  V30 40 1 3 36
M  V30 41 1 4 37
M  V30 42 1 4 38
M  V30 43 1 5 39 CFG=3
M  V30 44 1 6 40
M  V30 45 1 6 41
M  V30 46 1 11 42
M  V30 47 1 13 43
M  V30 48 1 14 44
M  V30 49 1 15 45
M  V30 50 1 16 46
M  V30 51 1 17 47
M  V30 52 1 20 48
M  V30 53 1 24 49
M  V30 54 1 25 50
M  V30 55 1 26 51
M  V30 56 1 27 52
M  V30 57 1 30 53
M  V30 58 1 30 54
M  V30 END BOND
M  V30 END CTAB
M  END
>  <Dataset>  (484) 
ChEMBL_Kinases

>  <Ligand_Instance>  (484) 
nan

>  <PDB_ID>  (484) 
nan

>  <Standardized_SMILES>  (484) 
CN(C)C[C@H]1Cc2c(C3=C(Nc4ccccc4)C(=O)NC3=O)c3ccccc3n2C1

>  <Name>  (484) 
nan

>  <Pocket>  (484) 
nan

>  <ATP_Site>  (484) 
nan

>  <Peripheral>  (484) 
nan

>  <Num_H_Atoms_ProtBoundConf>  (484) 
nan

>  <Num_Resolved_Atoms>  (484) 
nan

>  <Num_Not_Resolved_Atoms>  (484) 
nan

$$$$
CHEMBL2236804
     RDKit          3D

  0  0  0  0  0  0  0  0  0  0999 V3000
M  V30 BEGIN CTAB
M  V30 COUNTS 47 51 0 0 0
M  V30 BEGIN ATOM
M  V30 1 O -0.386837 -2.194497 5.072982 0
M  V30 2 C 0.143270 -1.254302 4.436660 0
M  V30 3 N 0.877523 -0.142752 4.919388 0
M  V30 4 C 1.319204 0.713401 3.878870 0
M  V30 5 O 1.994944 1.783885 4.001855 0
M  V30 6 C 0.818321 0.076550 2.668326 0
M  V30 7 C 1.046243 0.556426 1.290214 0
M  V30 8 C 1.583704 -0.267346 0.291005 0
M  V30 9 N 1.623794 0.452671 -0.843704 0
M  V30 10 C 1.138401 1.679219 -0.587982 0
M  V30 11 C 0.966056 2.790266 -1.422984 0
M  V30 12 C 0.432700 3.931417 -0.870660 0
M  V30 13 C 0.065159 4.015355 0.470014 0
M  V30 14 C 0.233307 2.918262 1.302826 0
M  V30 15 C 0.767233 1.786399 0.733159 0
M  V30 16 C 2.161478 -0.326644 -1.956523 0
M  V30 17 C 1.785541 -1.745616 -1.491675 0 CFG=1
M  V30 18 C 2.629812 -2.773918 -2.193120 0
M  V30 19 O 2.248312 -4.036745 -1.743667 0
M  V30 20 C 2.162299 -1.595110 -0.036907 0
M  V30 21 C 0.151256 -1.041379 3.014270 0
M  V30 22 N -0.491751 -1.879595 2.035562 0
M  V30 23 C -1.908677 -2.093674 2.036190 0
M  V30 24 C -2.644438 -1.092527 1.392103 0
M  V30 25 C -4.039493 -1.067925 1.243724 0
M  V30 26 C -4.680357 -2.141502 1.796958 0
M  V30 27 C -4.026263 -3.160736 2.443232 0
M  V30 28 C -2.640399 -3.156051 2.573556 0
M  V30 29 H 1.102189 0.079384 5.924020 0
M  V30 30 H 1.235936 2.756387 -2.458523 0
M  V30 31 H 0.269323 4.835406 -1.453965 0
M  V30 32 H -0.353729 4.938975 0.858441 0
M  V30 33 H -0.054322 2.975675 2.353311 0
M  V30 34 H 1.666560 -0.091376 -2.922234 0
M  V30 35 H 3.248394 -0.163393 -1.968821 0
M  V30 36 H 0.712632 -1.865634 -1.589417 0
M  V30 37 H 2.410775 -2.710422 -3.258204 0
M  V30 38 H 3.681063 -2.545947 -1.931032 0
M  V30 39 H 1.486953 -3.964304 -1.107933 0
M  V30 40 H 3.275397 -1.469431 0.072438 0
M  V30 41 H 1.865050 -2.408587 0.615386 0
M  V30 42 H -0.382038 -2.493027 1.206999 0
M  V30 43 H -2.122952 -0.228908 0.947885 0
M  V30 44 H -4.494277 -0.253779 0.733325 0
M  V30 45 H -5.774331 -2.170768 1.708474 0
M  V30 46 H -4.505082 -4.016381 2.885437 0
M  V30 47 H -2.007799 -3.881675 3.052333 0
M  V30 END ATOM
M  V30 BEGIN BOND
M  V30 1 2 1 2
M  V30 2 1 2 3
M  V30 3 1 3 4
M  V30 4 2 4 5
M  V30 5 1 4 6
M  V30 6 1 6 7
M  V30 7 2 7 8
M  V30 8 1 8 9
M  V30 9 1 9 10
M  V30 10 2 10 11
M  V30 11 1 11 12
M  V30 12 2 12 13
M  V30 13 1 13 14
M  V30 14 2 14 15
M  V30 15 1 9 16
M  V30 16 1 16 17
M  V30 17 1 17 18
M  V30 18 1 18 19
M  V30 19 1 17 20
M  V30 20 2 6 21
M  V30 21 1 21 22
M  V30 22 1 22 23
M  V30 23 2 23 24
M  V30 24 1 24 25
M  V30 25 2 25 26
M  V30 26 1 26 27
M  V30 27 2 27 28
M  V30 28 1 21 2
M  V30 29 1 28 23
M  V30 30 1 15 7
M  V30 31 1 20 8
M  V30 32 1 15 10
M  V30 33 1 3 29
M  V30 34 1 11 30
M  V30 35 1 12 31
M  V30 36 1 13 32
M  V30 37 1 14 33
M  V30 38 1 16 34
M  V30 39 1 16 35
M  V30 40 1 17 36 CFG=1
M  V30 41 1 18 37
M  V30 42 1 18 38
M  V30 43 1 19 39
M  V30 44 1 20 40
M  V30 45 1 20 41
M  V30 46 1 22 42
M  V30 47 1 24 43
M  V30 48 1 25 44
M  V30 49 1 26 45
M  V30 50 1 27 46
M  V30 51 1 28 47
M  V30 END BOND
M  V30 END CTAB
M  END
>  <Dataset>  (485) 
ChEMBL_Kinases

>  <Ligand_Instance>  (485) 
nan

>  <PDB_ID>  (485) 
nan

>  <Standardized_SMILES>  (485) 
O=C1NC(=O)C(c2c3n(c4ccccc24)C[C@@H](CO)C3)=C1Nc1ccccc1

>  <Name>  (485) 
nan

>  <Pocket>  (485) 
nan

>  <ATP_Site>  (485) 
nan

>  <Peripheral>  (485) 
nan

>  <Num_H_Atoms_ProtBoundConf>  (485) 
nan

>  <Num_Resolved_Atoms>  (485) 
nan

>  <Num_Not_Resolved_Atoms>  (485) 
nan

$$$$
CHEMBL2236803
     RDKit          3D

  0  0  0  0  0  0  0  0  0  0999 V3000
M  V30 BEGIN CTAB
M  V30 COUNTS 57 61 0 0 0
M  V30 BEGIN ATOM
M  V30 1 C 1.238376 -2.058294 3.339972 0
M  V30 2 N 2.041752 -1.229069 2.427015 0
M  V30 3 C 3.403296 -1.339574 2.979337 0
M  V30 4 C 2.065648 -1.830529 1.132546 0
M  V30 5 C 2.842129 -1.072823 0.087749 0 CFG=2
M  V30 6 C 2.302710 0.313578 -0.140695 0
M  V30 7 C 1.438179 0.301898 -1.372371 0
M  V30 8 C 0.667299 -0.948246 -1.449466 0
M  V30 9 C -0.709823 -1.149937 -1.619292 0
M  V30 10 C -1.810579 -0.200513 -1.718123 0
M  V30 11 C -2.090893 0.856018 -0.966413 0
M  V30 12 N -1.393879 1.372004 0.164822 0
M  V30 13 C -1.822939 1.683915 1.489121 0
M  V30 14 C -2.284288 2.967545 1.776539 0
M  V30 15 C -2.729880 3.416771 3.002793 0
M  V30 16 C -2.715805 2.509451 4.037739 0
M  V30 17 C -2.272781 1.227028 3.821968 0
M  V30 18 C -1.835825 0.819417 2.579010 0
M  V30 19 C -3.296396 1.546811 -1.424456 0
M  V30 20 O -3.861579 2.569878 -0.968422 0
M  V30 21 N -3.770251 0.817118 -2.565344 0
M  V30 22 C -2.853908 -0.251377 -2.738643 0
M  V30 23 O -3.063225 -1.050318 -3.702808 0
M  V30 24 C -0.856021 -2.543373 -1.645258 0
M  V30 25 C -1.907778 -3.428911 -1.775996 0
M  V30 26 C -1.720176 -4.796506 -1.757492 0
M  V30 27 C -0.463905 -5.342146 -1.606223 0
M  V30 28 C 0.635555 -4.489978 -1.469835 0
M  V30 29 C 0.376018 -3.143846 -1.497208 0
M  V30 30 N 1.257403 -2.155857 -1.382765 0
M  V30 31 C 2.701698 -1.923930 -1.186946 0
M  V30 32 H 0.221601 -2.268860 2.896954 0
M  V30 33 H 1.701984 -3.042183 3.516572 0
M  V30 34 H 1.180255 -1.549736 4.302605 0
M  V30 35 H 4.097322 -0.622071 2.538647 0
M  V30 36 H 3.717558 -2.387327 2.771477 0
M  V30 37 H 3.318915 -1.275712 4.088513 0
M  V30 38 H 2.526636 -2.859241 1.159790 0
M  V30 39 H 1.025202 -2.021279 0.792412 0
M  V30 40 H 3.898982 -1.016504 0.340706 0
M  V30 41 H 3.125680 1.070130 -0.229822 0
M  V30 42 H 1.698662 0.624084 0.711554 0
M  V30 43 H 0.860973 1.203128 -1.558447 0
M  V30 44 H 2.175372 0.262208 -2.235548 0
M  V30 45 H -0.416390 1.668568 0.380828 0
M  V30 46 H -2.310668 3.718032 0.985167 0
M  V30 47 H -3.071016 4.422700 3.146914 0
M  V30 48 H -3.065027 2.852685 5.008500 0
M  V30 49 H -2.264499 0.512054 4.645230 0
M  V30 50 H -1.482077 -0.182707 2.381602 0
M  V30 51 H -4.627642 1.086733 -3.106685 0
M  V30 52 H -2.897680 -3.055809 -1.889173 0
M  V30 53 H -2.595881 -5.437680 -1.866840 0
M  V30 54 H -0.312988 -6.410857 -1.593174 0
M  V30 55 H 1.646111 -4.882102 -1.347979 0
M  V30 56 H 3.187874 -1.485828 -2.053147 0
M  V30 57 H 3.212624 -2.882382 -0.946421 0
M  V30 END ATOM
M  V30 BEGIN BOND
M  V30 1 1 1 2
M  V30 2 1 2 3
M  V30 3 1 2 4
M  V30 4 1 4 5
M  V30 5 1 5 6
M  V30 6 1 6 7
M  V30 7 1 7 8
M  V30 8 2 8 9
M  V30 9 1 9 10
M  V30 10 2 10 11
M  V30 11 1 11 12
M  V30 12 1 12 13
M  V30 13 2 13 14
M  V30 14 1 14 15
M  V30 15 2 15 16
M  V30 16 1 16 17
M  V30 17 2 17 18
M  V30 18 1 11 19
M  V30 19 2 19 20
M  V30 20 1 19 21
M  V30 21 1 21 22
M  V30 22 2 22 23
M  V30 23 1 9 24
M  V30 24 2 24 25
M  V30 25 1 25 26
M  V30 26 2 26 27
M  V30 27 1 27 28
M  V30 28 2 28 29
M  V30 29 1 29 30
M  V30 30 1 30 31
M  V30 31 1 31 5
M  V30 32 1 30 8
M  V30 33 1 22 10
M  V30 34 1 29 24
M  V30 35 1 18 13
M  V30 36 1 1 32
M  V30 37 1 1 33
M  V30 38 1 1 34
M  V30 39 1 3 35
M  V30 40 1 3 36
M  V30 41 1 3 37
M  V30 42 1 4 38
M  V30 43 1 4 39
M  V30 44 1 5 40 CFG=1
M  V30 45 1 6 41
M  V30 46 1 6 42
M  V30 47 1 7 43
M  V30 48 1 7 44
M  V30 49 1 12 45
M  V30 50 1 14 46
M  V30 51 1 15 47
M  V30 52 1 16 48
M  V30 53 1 17 49
M  V30 54 1 18 50
M  V30 55 1 21 51
M  V30 56 1 25 52
M  V30 57 1 26 53
M  V30 58 1 27 54
M  V30 59 1 28 55
M  V30 60 1 31 56
M  V30 61 1 31 57
M  V30 END BOND
M  V30 END CTAB
M  END
>  <Dataset>  (486) 
ChEMBL_Kinases

>  <Ligand_Instance>  (486) 
nan

>  <PDB_ID>  (486) 
nan

>  <Standardized_SMILES>  (486) 
CN(C)C[C@@H]1CCc2c(C3=C(Nc4ccccc4)C(=O)NC3=O)c3ccccc3n2C1

>  <Name>  (486) 
nan

>  <Pocket>  (486) 
nan

>  <ATP_Site>  (486) 
nan

>  <Peripheral>  (486) 
nan

>  <Num_H_Atoms_ProtBoundConf>  (486) 
nan

>  <Num_Resolved_Atoms>  (486) 
nan

>  <Num_Not_Resolved_Atoms>  (486) 
nan

$$$$
CHEMBL2236802
     RDKit          3D

  0  0  0  0  0  0  0  0  0  0999 V3000
M  V30 BEGIN CTAB
M  V30 COUNTS 57 61 0 0 0
M  V30 BEGIN ATOM
M  V30 1 C 3.161875 1.137905 3.488409 0
M  V30 2 N 2.516516 -0.146715 3.258265 0
M  V30 3 C 3.082523 -1.145973 4.138867 0
M  V30 4 C 2.682589 -0.541633 1.890244 0
M  V30 5 C 2.021588 -1.867733 1.585849 0 CFG=1
M  V30 6 C 0.554550 -1.697903 1.893464 0
M  V30 7 C -0.172481 -0.930211 0.811564 0
M  V30 8 C -0.010882 -1.727002 -0.441628 0
M  V30 9 C -0.950960 -1.921425 -1.434217 0
M  V30 10 C -2.297760 -1.381441 -1.540759 0
M  V30 11 C -2.631671 -0.097571 -1.321121 0
M  V30 12 N -1.927691 1.092746 -0.950919 0
M  V30 13 C -2.188298 1.756084 0.289822 0
M  V30 14 C -1.550823 2.919999 0.695965 0
M  V30 15 C -1.826542 3.519659 1.886591 0
M  V30 16 C -2.764810 2.988095 2.751125 0
M  V30 17 C -3.438197 1.831111 2.410430 0
M  V30 18 C -3.121030 1.261334 1.189756 0
M  V30 19 C -4.076448 0.062826 -1.518697 0
M  V30 20 O -4.851998 1.077941 -1.428119 0
M  V30 21 N -4.667163 -1.207968 -1.882364 0
M  V30 22 C -3.532779 -2.064639 -1.883107 0
M  V30 23 O -3.673963 -3.305780 -2.166729 0
M  V30 24 C -0.255201 -2.748543 -2.323076 0
M  V30 25 C -0.673831 -3.299932 -3.542673 0
M  V30 26 C 0.157107 -4.102877 -4.295897 0
M  V30 27 C 1.418473 -4.334683 -3.788920 0
M  V30 28 C 1.880028 -3.807615 -2.579608 0
M  V30 29 C 1.016541 -3.008104 -1.855115 0
M  V30 30 N 1.151748 -2.359296 -0.675518 0
M  V30 31 C 2.298633 -2.326092 0.179511 0
M  V30 32 H 3.631361 1.151212 4.476441 0
M  V30 33 H 2.435316 1.976574 3.463833 0
M  V30 34 H 3.896694 1.327387 2.704824 0
M  V30 35 H 3.670878 -0.687129 4.959508 0
M  V30 36 H 2.258828 -1.756616 4.597065 0
M  V30 37 H 3.735271 -1.834133 3.571956 0
M  V30 38 H 2.229488 0.217072 1.227370 0
M  V30 39 H 3.768478 -0.553949 1.656497 0
M  V30 40 H 2.443327 -2.683538 2.243164 0
M  V30 41 H 0.444598 -1.189032 2.869021 0
M  V30 42 H 0.085692 -2.699984 1.986513 0
M  V30 43 H -1.235680 -0.900520 1.132123 0
M  V30 44 H 0.288679 0.046624 0.723663 0
M  V30 45 H -1.182078 1.564581 -1.547907 0
M  V30 46 H -0.802965 3.342636 0.006123 0
M  V30 47 H -1.337779 4.414605 2.203786 0
M  V30 48 H -3.048318 3.396324 3.719017 0
M  V30 49 H -4.182089 1.362910 3.036924 0
M  V30 50 H -3.660243 0.343960 0.929309 0
M  V30 51 H -5.662522 -1.433251 -2.088930 0
M  V30 52 H -1.655670 -3.129718 -3.964959 0
M  V30 53 H -0.167781 -4.527123 -5.236719 0
M  V30 54 H 2.064070 -4.977780 -4.407483 0
M  V30 55 H 2.868141 -4.041371 -2.268100 0
M  V30 56 H 3.004621 -1.570393 -0.266917 0
M  V30 57 H 2.842053 -3.297663 0.123575 0
M  V30 END ATOM
M  V30 BEGIN BOND
M  V30 1 1 1 2
M  V30 2 1 2 3
M  V30 3 1 2 4
M  V30 4 1 4 5
M  V30 5 1 5 6
M  V30 6 1 6 7
M  V30 7 1 7 8
M  V30 8 2 8 9
M  V30 9 1 9 10
M  V30 10 2 10 11
M  V30 11 1 11 12
M  V30 12 1 12 13
M  V30 13 2 13 14
M  V30 14 1 14 15
M  V30 15 2 15 16
M  V30 16 1 16 17
M  V30 17 2 17 18
M  V30 18 1 11 19
M  V30 19 2 19 20
M  V30 20 1 19 21
M  V30 21 1 21 22
M  V30 22 2 22 23
M  V30 23 1 9 24
M  V30 24 2 24 25
M  V30 25 1 25 26
M  V30 26 2 26 27
M  V30 27 1 27 28
M  V30 28 2 28 29
M  V30 29 1 29 30
M  V30 30 1 30 31
M  V30 31 1 31 5
M  V30 32 1 30 8
M  V30 33 1 22 10
M  V30 34 1 29 24
M  V30 35 1 18 13
M  V30 36 1 1 32
M  V30 37 1 1 33
M  V30 38 1 1 34
M  V30 39 1 3 35
M  V30 40 1 3 36
M  V30 41 1 3 37
M  V30 42 1 4 38
M  V30 43 1 4 39
M  V30 44 1 5 40 CFG=1
M  V30 45 1 6 41
M  V30 46 1 6 42
M  V30 47 1 7 43
M  V30 48 1 7 44
M  V30 49 1 12 45
M  V30 50 1 14 46
M  V30 51 1 15 47
M  V30 52 1 16 48
M  V30 53 1 17 49
M  V30 54 1 18 50
M  V30 55 1 21 51
M  V30 56 1 25 52
M  V30 57 1 26 53
M  V30 58 1 27 54
M  V30 59 1 28 55
M  V30 60 1 31 56
M  V30 61 1 31 57
M  V30 END BOND
M  V30 END CTAB
M  END
>  <Dataset>  (487) 
ChEMBL_Kinases

>  <Ligand_Instance>  (487) 
nan

>  <PDB_ID>  (487) 
nan

>  <Standardized_SMILES>  (487) 
CN(C)C[C@H]1CCc2c(C3=C(Nc4ccccc4)C(=O)NC3=O)c3ccccc3n2C1

>  <Name>  (487) 
nan

>  <Pocket>  (487) 
nan

>  <ATP_Site>  (487) 
nan

>  <Peripheral>  (487) 
nan

>  <Num_H_Atoms_ProtBoundConf>  (487) 
nan

>  <Num_Resolved_Atoms>  (487) 
nan

>  <Num_Not_Resolved_Atoms>  (487) 
nan

$$$$
CHEMBL2236801
     RDKit          3D

  0  0  0  0  0  0  0  0  0  0999 V3000
M  V30 BEGIN CTAB
M  V30 COUNTS 57 61 0 0 0
M  V30 BEGIN ATOM
M  V30 1 C 4.298802 -2.242299 1.199630 0
M  V30 2 N 4.287016 -1.171478 0.255617 0
M  V30 3 C 4.874934 -1.658399 -0.989385 0
M  V30 4 C 2.998906 -0.652049 -0.012032 0
M  V30 5 C 2.293959 0.146250 1.000300 0 CFG=2
M  V30 6 C 1.956499 -0.423757 2.319359 0
M  V30 7 C 1.067806 -1.637909 2.303825 0
M  V30 8 N 0.184113 -1.575213 1.161451 0
M  V30 9 C 0.065372 -0.568586 0.242892 0
M  V30 10 C -0.914823 -0.904593 -0.682482 0
M  V30 11 C -1.427004 -0.179020 -1.794254 0
M  V30 12 C -1.815485 1.116049 -1.773562 0
M  V30 13 N -1.681257 1.761305 -0.509466 0
M  V30 14 C -2.351106 1.470312 0.704789 0
M  V30 15 C -2.061199 2.172623 1.848341 0
M  V30 16 C -2.708271 1.884860 3.018446 0
M  V30 17 C -3.671036 0.888636 3.106907 0
M  V30 18 C -3.992534 0.154318 1.966718 0
M  V30 19 C -3.304803 0.487782 0.802857 0
M  V30 20 C -2.290272 1.580029 -3.073211 0
M  V30 21 O -2.698264 2.754672 -3.264824 0
M  V30 22 N -2.172638 0.451414 -3.958390 0
M  V30 23 C -1.645569 -0.610879 -3.167060 0
M  V30 24 O -1.429596 -1.738790 -3.677636 0
M  V30 25 C -1.386242 -2.162624 -0.284363 0
M  V30 26 C -2.362004 -2.972211 -0.827410 0
M  V30 27 C -2.706715 -4.201205 -0.287210 0
M  V30 28 C -2.023737 -4.606635 0.847321 0
M  V30 29 C -1.053045 -3.788386 1.378978 0
M  V30 30 C -0.693112 -2.544630 0.845707 0
M  V30 31 C 0.950767 0.614874 0.378817 0
M  V30 32 H 5.201041 -2.923052 1.030754 0
M  V30 33 H 3.436462 -2.931322 0.974665 0
M  V30 34 H 4.335360 -1.940398 2.256235 0
M  V30 35 H 5.987453 -1.761287 -0.888758 0
M  V30 36 H 4.598811 -1.034764 -1.850972 0
M  V30 37 H 4.516426 -2.716904 -1.122517 0
M  V30 38 H 2.373155 -1.498818 -0.422001 0
M  V30 39 H 3.070756 0.022090 -0.937361 0
M  V30 40 H 2.891609 1.076177 1.191172 0
M  V30 41 H 1.285427 0.385244 2.806194 0
M  V30 42 H 2.780220 -0.474601 3.065378 0
M  V30 43 H 0.420294 -1.606047 3.240584 0
M  V30 44 H 1.616552 -2.572602 2.383188 0
M  V30 45 H -0.986645 2.537758 -0.559265 0
M  V30 46 H -1.295336 2.961194 1.761434 0
M  V30 47 H -2.449816 2.464080 3.900637 0
M  V30 48 H -4.149928 0.712652 4.083364 0
M  V30 49 H -4.732642 -0.611229 2.036995 0
M  V30 50 H -3.600299 -0.111355 -0.041513 0
M  V30 51 H -2.450199 0.504708 -4.972540 0
M  V30 52 H -2.957858 -2.750983 -1.700345 0
M  V30 53 H -3.460120 -4.869633 -0.674049 0
M  V30 54 H -2.247021 -5.554473 1.314436 0
M  V30 55 H -0.540169 -4.140876 2.266846 0
M  V30 56 H 0.606254 1.389530 1.055387 0
M  V30 57 H 1.222765 1.086694 -0.587527 0
M  V30 END ATOM
M  V30 BEGIN BOND
M  V30 1 1 1 2
M  V30 2 1 2 3
M  V30 3 1 2 4
M  V30 4 1 4 5
M  V30 5 1 5 6
M  V30 6 1 6 7
M  V30 7 1 7 8
M  V30 8 1 8 9
M  V30 9 2 9 10
M  V30 10 1 10 11
M  V30 11 2 11 12
M  V30 12 1 12 13
M  V30 13 1 13 14
M  V30 14 2 14 15
M  V30 15 1 15 16
M  V30 16 2 16 17
M  V30 17 1 17 18
M  V30 18 2 18 19
M  V30 19 1 12 20
M  V30 20 2 20 21
M  V30 21 1 20 22
M  V30 22 1 22 23
M  V30 23 2 23 24
M  V30 24 1 10 25
M  V30 25 2 25 26
M  V30 26 1 26 27
M  V30 27 2 27 28
M  V30 28 1 28 29
M  V30 29 2 29 30
M  V30 30 1 9 31
M  V30 31 1 31 5
M  V30 32 1 30 8
M  V30 33 1 23 11
M  V30 34 1 30 25
M  V30 35 1 19 14
M  V30 36 1 1 32
M  V30 37 1 1 33
M  V30 38 1 1 34
M  V30 39 1 3 35
M  V30 40 1 3 36
M  V30 41 1 3 37
M  V30 42 1 4 38
M  V30 43 1 4 39
M  V30 44 1 5 40 CFG=1
M  V30 45 1 6 41
M  V30 46 1 6 42
M  V30 47 1 7 43
M  V30 48 1 7 44
M  V30 49 1 13 45
M  V30 50 1 15 46
M  V30 51 1 16 47
M  V30 52 1 17 48
M  V30 53 1 18 49
M  V30 54 1 19 50
M  V30 55 1 22 51
M  V30 56 1 26 52
M  V30 57 1 27 53
M  V30 58 1 28 54
M  V30 59 1 29 55
M  V30 60 1 31 56
M  V30 61 1 31 57
M  V30 END BOND
M  V30 END CTAB
M  END
>  <Dataset>  (488) 
ChEMBL_Kinases

>  <Ligand_Instance>  (488) 
nan

>  <PDB_ID>  (488) 
nan

>  <Standardized_SMILES>  (488) 
CN(C)C[C@@H]1CCn2c(c(C3=C(Nc4ccccc4)C(=O)NC3=O)c3ccccc32)C1

>  <Name>  (488) 
nan

>  <Pocket>  (488) 
nan

>  <ATP_Site>  (488) 
nan

>  <Peripheral>  (488) 
nan

>  <Num_H_Atoms_ProtBoundConf>  (488) 
nan

>  <Num_Resolved_Atoms>  (488) 
nan

>  <Num_Not_Resolved_Atoms>  (488) 
nan

$$$$
CHEMBL2236800
     RDKit          3D

  0  0  0  0  0  0  0  0  0  0999 V3000
M  V30 BEGIN CTAB
M  V30 COUNTS 50 54 0 0 0
M  V30 BEGIN ATOM
M  V30 1 O -2.861416 -1.981878 4.672195 0
M  V30 2 C -1.905938 -1.344132 4.160361 0
M  V30 3 N -0.717381 -0.979346 4.873693 0
M  V30 4 C 0.102378 -0.272054 3.929231 0
M  V30 5 O 1.224195 0.159009 4.331050 0
M  V30 6 C -0.600131 -0.209810 2.631989 0
M  V30 7 C -0.033694 0.464431 1.473258 0
M  V30 8 C 1.289746 0.277890 1.075414 0
M  V30 9 N 1.570011 1.020365 -0.012430 0
M  V30 10 C 0.443869 1.708212 -0.352401 0
M  V30 11 C 0.089521 2.614752 -1.338106 0
M  V30 12 C -1.175647 3.161570 -1.423479 0
M  V30 13 C -2.155241 2.809909 -0.499984 0
M  V30 14 C -1.789964 1.896462 0.489309 0
M  V30 15 C -0.520048 1.365917 0.551225 0
M  V30 16 C 2.820136 1.107313 -0.727075 0
M  V30 17 C 3.695930 -0.108829 -0.581356 0
M  V30 18 C 2.975217 -1.158433 0.194841 0 CFG=1
M  V30 19 C 3.825831 -2.369675 0.489134 0
M  V30 20 O 4.219992 -2.912817 -0.711765 0
M  V30 21 C 2.487036 -0.502970 1.490786 0
M  V30 22 C -1.745739 -0.839303 2.819605 0
M  V30 23 N -2.732666 -1.025029 1.823154 0
M  V30 24 C -2.621411 -1.940434 0.733129 0
M  V30 25 C -3.621893 -2.077367 -0.221981 0
M  V30 26 C -3.478956 -2.985149 -1.276167 0
M  V30 27 C -2.316523 -3.738835 -1.338339 0
M  V30 28 C -1.321639 -3.609942 -0.398118 0
M  V30 29 C -1.490763 -2.703499 0.633968 0
M  V30 30 H -0.536618 -1.211448 5.886708 0
M  V30 31 H 0.849836 2.899181 -2.069882 0
M  V30 32 H -1.419284 3.870134 -2.211256 0
M  V30 33 H -3.155506 3.231100 -0.553736 0
M  V30 34 H -2.567430 1.650296 1.189813 0
M  V30 35 H 3.390969 2.022904 -0.446992 0
M  V30 36 H 2.637304 1.198865 -1.836355 0
M  V30 37 H 4.590215 0.184546 0.044085 0
M  V30 38 H 4.078579 -0.500266 -1.558423 0
M  V30 39 H 2.107991 -1.503846 -0.398588 0
M  V30 40 H 3.182964 -3.098850 1.013937 0
M  V30 41 H 4.677006 -2.122458 1.156267 0
M  V30 42 H 3.631315 -3.674542 -0.938884 0
M  V30 43 H 3.282770 0.199559 1.799853 0
M  V30 44 H 2.269512 -1.271981 2.258994 0
M  V30 45 H -3.611453 -0.443528 1.893419 0
M  V30 46 H -4.521941 -1.482105 -0.159358 0
M  V30 47 H -4.263758 -3.087821 -2.019286 0
M  V30 48 H -2.267672 -4.423058 -2.178085 0
M  V30 49 H -0.448534 -4.236277 -0.521384 0
M  V30 50 H -0.659556 -2.668168 1.327279 0
M  V30 END ATOM
M  V30 BEGIN BOND
M  V30 1 2 1 2
M  V30 2 1 2 3
M  V30 3 1 3 4
M  V30 4 2 4 5
M  V30 5 1 4 6
M  V30 6 1 6 7
M  V30 7 2 7 8
M  V30 8 1 8 9
M  V30 9 1 9 10
M  V30 10 2 10 11
M  V30 11 1 11 12
M  V30 12 2 12 13
M  V30 13 1 13 14
M  V30 14 2 14 15
M  V30 15 1 9 16
M  V30 16 1 16 17
M  V30 17 1 17 18
M  V30 18 1 18 19
M  V30 19 1 19 20
M  V30 20 1 18 21
M  V30 21 2 6 22
M  V30 22 1 22 23
M  V30 23 1 23 24
M  V30 24 2 24 25
M  V30 25 1 25 26
M  V30 26 2 26 27
M  V30 27 1 27 28
M  V30 28 2 28 29
M  V30 29 1 22 2
M  V30 30 1 29 24
M  V30 31 1 15 7
M  V30 32 1 21 8
M  V30 33 1 15 10
M  V30 34 1 3 30
M  V30 35 1 11 31
M  V30 36 1 12 32
M  V30 37 1 13 33
M  V30 38 1 14 34
M  V30 39 1 16 35
M  V30 40 1 16 36
M  V30 41 1 17 37
M  V30 42 1 17 38
M  V30 43 1 18 39 CFG=3
M  V30 44 1 19 40
M  V30 45 1 19 41
M  V30 46 1 20 42
M  V30 47 1 21 43
M  V30 48 1 21 44
M  V30 49 1 23 45
M  V30 50 1 25 46
M  V30 51 1 26 47
M  V30 52 1 27 48
M  V30 53 1 28 49
M  V30 54 1 29 50
M  V30 END BOND
M  V30 END CTAB
M  END
>  <Dataset>  (489) 
ChEMBL_Kinases

>  <Ligand_Instance>  (489) 
nan

>  <PDB_ID>  (489) 
nan

>  <Standardized_SMILES>  (489) 
O=C1NC(=O)C(c2c3n(c4ccccc24)CC[C@@H](CO)C3)=C1Nc1ccccc1

>  <Name>  (489) 
nan

>  <Pocket>  (489) 
nan

>  <ATP_Site>  (489) 
nan

>  <Peripheral>  (489) 
nan

>  <Num_H_Atoms_ProtBoundConf>  (489) 
nan

>  <Num_Resolved_Atoms>  (489) 
nan

>  <Num_Not_Resolved_Atoms>  (489) 
nan

$$$$
CHEMBL2236799
     RDKit          3D

  0  0  0  0  0  0  0  0  0  0999 V3000
M  V30 BEGIN CTAB
M  V30 COUNTS 57 61 0 0 0
M  V30 BEGIN ATOM
M  V30 1 C 1.104894 0.043476 3.311718 0
M  V30 2 N 1.500550 -0.509861 1.980216 0
M  V30 3 C 2.356202 -1.635095 2.370274 0
M  V30 4 C 2.172923 0.559993 1.338218 0
M  V30 5 C 2.586782 0.446448 -0.071662 0 CFG=1
M  V30 6 C 3.514882 -0.661335 -0.360818 0
M  V30 7 C 2.979671 -1.850517 -1.081558 0
M  V30 8 N 1.558534 -1.881244 -1.261851 0
M  V30 9 C 0.803585 -0.767410 -1.285889 0
M  V30 10 C -0.560673 -1.048493 -1.493818 0
M  V30 11 C -1.701622 -0.185038 -1.584195 0
M  V30 12 C -2.092816 0.799610 -0.795030 0
M  V30 13 N -1.687830 1.463951 0.395828 0
M  V30 14 C -2.162023 0.947666 1.651411 0
M  V30 15 C -1.854471 1.572776 2.831828 0
M  V30 16 C -2.309113 1.063624 4.031517 0
M  V30 17 C -3.079105 -0.081521 4.069509 0
M  V30 18 C -3.411362 -0.743526 2.885441 0
M  V30 19 C -2.938871 -0.206952 1.685877 0
M  V30 20 C -3.333350 1.409464 -1.325742 0
M  V30 21 O -4.118340 2.345118 -0.995851 0
M  V30 22 N -3.707831 0.722892 -2.540695 0
M  V30 23 C -2.676187 -0.279115 -2.699261 0
M  V30 24 O -2.680112 -1.089450 -3.689005 0
M  V30 25 C -0.570381 -2.417347 -1.590334 0
M  V30 26 C -1.563430 -3.358224 -1.783242 0
M  V30 27 C -1.358431 -4.732534 -1.843448 0
M  V30 28 C -0.066083 -5.206806 -1.700320 0
M  V30 29 C 0.934095 -4.267757 -1.506253 0
M  V30 30 C 0.702780 -2.906992 -1.450610 0
M  V30 31 C 1.481380 0.535467 -1.097558 0
M  V30 32 H 0.126108 -0.444324 3.545479 0
M  V30 33 H 1.855532 -0.193376 4.076590 0
M  V30 34 H 1.044694 1.150772 3.271196 0
M  V30 35 H 3.314126 -1.301255 2.792226 0
M  V30 36 H 2.400473 -2.442265 1.626678 0
M  V30 37 H 1.851906 -2.149026 3.261981 0
M  V30 38 H 3.132313 0.724934 1.930231 0
M  V30 39 H 1.640894 1.551608 1.501094 0
M  V30 40 H 3.163023 1.435791 -0.258065 0
M  V30 41 H 4.410879 -0.248419 -0.940297 0
M  V30 42 H 3.993957 -1.002614 0.577810 0
M  V30 43 H 3.271339 -2.801022 -0.571913 0
M  V30 44 H 3.531429 -1.927805 -2.066957 0
M  V30 45 H -1.069273 2.303152 0.412789 0
M  V30 46 H -1.255883 2.460973 2.822305 0
M  V30 47 H -2.073837 1.547320 4.978568 0
M  V30 48 H -3.474487 -0.548334 4.947912 0
M  V30 49 H -4.005656 -1.645100 2.782097 0
M  V30 50 H -3.166204 -0.679010 0.752178 0
M  V30 51 H -4.503984 0.844831 -3.210998 0
M  V30 52 H -2.610678 -3.089938 -1.898436 0
M  V30 53 H -2.154578 -5.442498 -1.996246 0
M  V30 54 H 0.085792 -6.272908 -1.745270 0
M  V30 55 H 1.934939 -4.662738 -1.398634 0
M  V30 56 H 1.987416 0.870388 -2.053840 0
M  V30 57 H 0.807529 1.365843 -0.842082 0
M  V30 END ATOM
M  V30 BEGIN BOND
M  V30 1 1 1 2
M  V30 2 1 2 3
M  V30 3 1 2 4
M  V30 4 1 4 5
M  V30 5 1 5 6
M  V30 6 1 6 7
M  V30 7 1 7 8
M  V30 8 1 8 9
M  V30 9 2 9 10
M  V30 10 1 10 11
M  V30 11 2 11 12
M  V30 12 1 12 13
M  V30 13 1 13 14
M  V30 14 2 14 15
M  V30 15 1 15 16
M  V30 16 2 16 17
M  V30 17 1 17 18
M  V30 18 2 18 19
M  V30 19 1 12 20
M  V30 20 2 20 21
M  V30 21 1 20 22
M  V30 22 1 22 23
M  V30 23 2 23 24
M  V30 24 1 10 25
M  V30 25 2 25 26
M  V30 26 1 26 27
M  V30 27 2 27 28
M  V30 28 1 28 29
M  V30 29 2 29 30
M  V30 30 1 9 31
M  V30 31 1 31 5
M  V30 32 1 30 8
M  V30 33 1 23 11
M  V30 34 1 30 25
M  V30 35 1 19 14
M  V30 36 1 1 32
M  V30 37 1 1 33
M  V30 38 1 1 34
M  V30 39 1 3 35
M  V30 40 1 3 36
M  V30 41 1 3 37
M  V30 42 1 4 38
M  V30 43 1 4 39
M  V30 44 1 5 40 CFG=3
M  V30 45 1 6 41
M  V30 46 1 6 42
M  V30 47 1 7 43
M  V30 48 1 7 44
M  V30 49 1 13 45
M  V30 50 1 15 46
M  V30 51 1 16 47
M  V30 52 1 17 48
M  V30 53 1 18 49
M  V30 54 1 19 50
M  V30 55 1 22 51
M  V30 56 1 26 52
M  V30 57 1 27 53
M  V30 58 1 28 54
M  V30 59 1 29 55
M  V30 60 1 31 56
M  V30 61 1 31 57
M  V30 END BOND
M  V30 END CTAB
M  END
>  <Dataset>  (490) 
ChEMBL_Kinases

>  <Ligand_Instance>  (490) 
nan

>  <PDB_ID>  (490) 
nan

>  <Standardized_SMILES>  (490) 
CN(C)C[C@H]1CCn2c(c(C3=C(Nc4ccccc4)C(=O)NC3=O)c3ccccc32)C1

>  <Name>  (490) 
nan

>  <Pocket>  (490) 
nan

>  <ATP_Site>  (490) 
nan

>  <Peripheral>  (490) 
nan

>  <Num_H_Atoms_ProtBoundConf>  (490) 
nan

>  <Num_Resolved_Atoms>  (490) 
nan

>  <Num_Not_Resolved_Atoms>  (490) 
nan

$$$$
CHEMBL2236798
     RDKit          3D

  0  0  0  0  0  0  0  0  0  0999 V3000
M  V30 BEGIN CTAB
M  V30 COUNTS 50 54 0 0 0
M  V30 BEGIN ATOM
M  V30 1 O -2.428348 -1.546559 4.959338 0
M  V30 2 C -1.355892 -1.138773 4.435283 0
M  V30 3 N -0.026478 -1.033863 4.919611 0
M  V30 4 C 0.781237 -0.496427 3.875692 0
M  V30 5 O 1.989575 -0.327496 4.106173 0
M  V30 6 C -0.078530 -0.262271 2.712447 0
M  V30 7 C 0.403275 0.317254 1.477516 0
M  V30 8 C 1.467877 -0.013395 0.681772 0
M  V30 9 N 1.604663 0.795886 -0.379480 0
M  V30 10 C 0.587538 1.698864 -0.280757 0
M  V30 11 C 0.194619 2.790488 -1.066667 0
M  V30 12 C -0.869682 3.588581 -0.783756 0
M  V30 13 C -1.610778 3.312341 0.343019 0
M  V30 14 C -1.236261 2.243367 1.122885 0
M  V30 15 C -0.168759 1.423438 0.859351 0
M  V30 16 C 2.590979 0.753849 -1.413943 0
M  V30 17 C 3.756070 -0.076680 -0.955036 0
M  V30 18 C 3.231364 -1.365890 -0.379639 0 CFG=2
M  V30 19 C 2.388871 -2.044703 -1.442498 0
M  V30 20 O 1.881830 -3.251600 -0.941790 0
M  V30 21 C 2.411769 -1.127884 0.878600 0
M  V30 22 C -1.315869 -0.645843 3.065933 0
M  V30 23 N -2.433785 -0.588640 2.152079 0
M  V30 24 C -2.488559 -1.725374 1.292100 0
M  V30 25 C -3.469970 -1.913368 0.311613 0
M  V30 26 C -3.528102 -3.005299 -0.517355 0
M  V30 27 C -2.586611 -3.996400 -0.412516 0
M  V30 28 C -1.592608 -3.892649 0.519016 0
M  V30 29 C -1.577449 -2.780736 1.325126 0
M  V30 30 H 0.166285 -1.343864 5.903688 0
M  V30 31 H 0.748092 3.049185 -1.960539 0
M  V30 32 H -1.153432 4.434260 -1.412639 0
M  V30 33 H -2.478155 3.941599 0.598596 0
M  V30 34 H -1.859793 2.095400 1.992335 0
M  V30 35 H 2.958890 1.807319 -1.598202 0
M  V30 36 H 2.235814 0.341195 -2.386575 0
M  V30 37 H 4.425452 -0.363248 -1.792573 0
M  V30 38 H 4.267006 0.481730 -0.148503 0
M  V30 39 H 4.090268 -2.038066 -0.181312 0
M  V30 40 H 1.507249 -1.392293 -1.616673 0
M  V30 41 H 2.984465 -2.207099 -2.351573 0
M  V30 42 H 1.368693 -3.682434 -1.672779 0
M  V30 43 H 1.868684 -2.094390 1.065911 0
M  V30 44 H 3.136248 -0.899587 1.687366 0
M  V30 45 H -3.197700 0.100128 1.987498 0
M  V30 46 H -4.224250 -1.156972 0.198958 0
M  V30 47 H -4.276307 -3.144452 -1.260910 0
M  V30 48 H -2.578129 -4.877473 -1.031167 0
M  V30 49 H -0.833330 -4.659118 0.628195 0
M  V30 50 H -0.776513 -2.723478 2.056049 0
M  V30 END ATOM
M  V30 BEGIN BOND
M  V30 1 2 1 2
M  V30 2 1 2 3
M  V30 3 1 3 4
M  V30 4 2 4 5
M  V30 5 1 4 6
M  V30 6 1 6 7
M  V30 7 2 7 8
M  V30 8 1 8 9
M  V30 9 1 9 10
M  V30 10 2 10 11
M  V30 11 1 11 12
M  V30 12 2 12 13
M  V30 13 1 13 14
M  V30 14 2 14 15
M  V30 15 1 9 16
M  V30 16 1 16 17
M  V30 17 1 17 18
M  V30 18 1 18 19
M  V30 19 1 19 20
M  V30 20 1 18 21
M  V30 21 2 6 22
M  V30 22 1 22 23
M  V30 23 1 23 24
M  V30 24 2 24 25
M  V30 25 1 25 26
M  V30 26 2 26 27
M  V30 27 1 27 28
M  V30 28 2 28 29
M  V30 29 1 22 2
M  V30 30 1 29 24
M  V30 31 1 15 7
M  V30 32 1 21 8
M  V30 33 1 15 10
M  V30 34 1 3 30
M  V30 35 1 11 31
M  V30 36 1 12 32
M  V30 37 1 13 33
M  V30 38 1 14 34
M  V30 39 1 16 35
M  V30 40 1 16 36
M  V30 41 1 17 37
M  V30 42 1 17 38
M  V30 43 1 18 39 CFG=1
M  V30 44 1 19 40
M  V30 45 1 19 41
M  V30 46 1 20 42
M  V30 47 1 21 43
M  V30 48 1 21 44
M  V30 49 1 23 45
M  V30 50 1 25 46
M  V30 51 1 26 47
M  V30 52 1 27 48
M  V30 53 1 28 49
M  V30 54 1 29 50
M  V30 END BOND
M  V30 END CTAB
M  END
>  <Dataset>  (491) 
ChEMBL_Kinases

>  <Ligand_Instance>  (491) 
nan

>  <PDB_ID>  (491) 
nan

>  <Standardized_SMILES>  (491) 
O=C1NC(=O)C(c2c3n(c4ccccc24)CC[C@H](CO)C3)=C1Nc1ccccc1

>  <Name>  (491) 
nan

>  <Pocket>  (491) 
nan

>  <ATP_Site>  (491) 
nan

>  <Peripheral>  (491) 
nan

>  <Num_H_Atoms_ProtBoundConf>  (491) 
nan

>  <Num_Resolved_Atoms>  (491) 
nan

>  <Num_Not_Resolved_Atoms>  (491) 
nan

$$$$
CHEMBL2236797
     RDKit          3D

  0  0  0  0  0  0  0  0  0  0999 V3000
M  V30 BEGIN CTAB
M  V30 COUNTS 54 58 0 0 0
M  V30 BEGIN ATOM
M  V30 1 C -0.969601 -0.044577 3.622100 0
M  V30 2 N 0.281808 -0.842057 3.635948 0
M  V30 3 C -0.166711 -2.180065 3.960276 0
M  V30 4 C 0.837299 -0.700251 2.326733 0
M  V30 5 C 2.142949 -1.342399 2.054046 0 CFG=2
M  V30 6 C 2.472519 -0.987740 0.572534 0
M  V30 7 C 1.352661 -1.683860 -0.041290 0
M  V30 8 C 0.475964 -1.613244 -1.117331 0
M  V30 9 C 0.391125 -0.615084 -2.158816 0
M  V30 10 C 0.434397 0.725457 -2.059145 0
M  V30 11 N 0.571280 1.593330 -0.940151 0
M  V30 12 C -0.342634 2.199853 -0.031810 0
M  V30 13 C 0.179285 3.002533 0.962046 0
M  V30 14 C -0.742417 3.568766 1.812143 0
M  V30 15 C -2.096807 3.367574 1.703622 0
M  V30 16 C -2.558085 2.555818 0.690839 0
M  V30 17 C -1.685570 1.946248 -0.210312 0
M  V30 18 C 0.324881 1.332805 -3.402990 0
M  V30 19 O 0.326723 2.567262 -3.713170 0
M  V30 20 N 0.207798 0.278875 -4.381742 0
M  V30 21 C 0.252684 -0.917592 -3.581991 0
M  V30 22 O 0.168889 -2.005534 -4.228312 0
M  V30 23 C -0.342489 -2.720603 -0.987376 0
M  V30 24 C -1.408541 -3.267741 -1.670936 0
M  V30 25 C -2.068272 -4.422484 -1.305233 0
M  V30 26 C -1.648053 -5.095033 -0.176636 0
M  V30 27 C -0.588467 -4.612920 0.563315 0
M  V30 28 C 0.019334 -3.454083 0.134437 0
M  V30 29 N 1.053468 -2.802326 0.693762 0
M  V30 30 C 2.007699 -2.829782 1.809633 0
M  V30 31 H -0.748971 1.027965 3.591431 0
M  V30 32 H -1.435026 -0.304898 2.647657 0
M  V30 33 H -1.639465 -0.353343 4.435352 0
M  V30 34 H -0.487077 -2.671478 3.022821 0
M  V30 35 H 0.554256 -2.739674 4.570636 0
M  V30 36 H -1.098143 -2.147983 4.593522 0
M  V30 37 H 0.070311 -1.141272 1.616227 0
M  V30 38 H 0.873831 0.372756 2.009903 0
M  V30 39 H 2.956464 -1.077023 2.712575 0
M  V30 40 H 2.535706 0.074238 0.555321 0
M  V30 41 H 3.476096 -1.427250 0.410473 0
M  V30 42 H 1.617960 1.754015 -0.866031 0
M  V30 43 H 1.263113 3.143658 1.023377 0
M  V30 44 H -0.320469 4.203697 2.598593 0
M  V30 45 H -2.700535 3.872332 2.436502 0
M  V30 46 H -3.620345 2.426796 0.642494 0
M  V30 47 H -2.083606 1.321079 -0.987247 0
M  V30 48 H 0.117696 0.443305 -5.389438 0
M  V30 49 H -1.777313 -2.767083 -2.554028 0
M  V30 50 H -2.908742 -4.804544 -1.893628 0
M  V30 51 H -2.115432 -6.005893 0.174991 0
M  V30 52 H -0.256167 -5.136798 1.448310 0
M  V30 53 H 3.018914 -3.154182 1.427210 0
M  V30 54 H 1.714788 -3.433020 2.647485 0
M  V30 END ATOM
M  V30 BEGIN BOND
M  V30 1 1 1 2
M  V30 2 1 2 3
M  V30 3 1 2 4
M  V30 4 1 4 5
M  V30 5 1 5 6
M  V30 6 1 6 7
M  V30 7 2 7 8
M  V30 8 1 8 9
M  V30 9 2 9 10
M  V30 10 1 10 11
M  V30 11 1 11 12
M  V30 12 2 12 13
M  V30 13 1 13 14
M  V30 14 2 14 15
M  V30 15 1 15 16
M  V30 16 2 16 17
M  V30 17 1 10 18
M  V30 18 2 18 19
M  V30 19 1 18 20
M  V30 20 1 20 21
M  V30 21 2 21 22
M  V30 22 1 8 23
M  V30 23 2 23 24
M  V30 24 1 24 25
M  V30 25 2 25 26
M  V30 26 1 26 27
M  V30 27 2 27 28
M  V30 28 1 28 29
M  V30 29 1 29 30
M  V30 30 1 30 5
M  V30 31 1 29 7
M  V30 32 1 21 9
M  V30 33 1 28 23
M  V30 34 1 17 12
M  V30 35 1 1 31
M  V30 36 1 1 32
M  V30 37 1 1 33
M  V30 38 1 3 34
M  V30 39 1 3 35
M  V30 40 1 3 36
M  V30 41 1 4 37
M  V30 42 1 4 38
M  V30 43 1 5 39 CFG=1
M  V30 44 1 6 40
M  V30 45 1 6 41
M  V30 46 1 11 42
M  V30 47 1 13 43
M  V30 48 1 14 44
M  V30 49 1 15 45
M  V30 50 1 16 46
M  V30 51 1 17 47
M  V30 52 1 20 48
M  V30 53 1 24 49
M  V30 54 1 25 50
M  V30 55 1 26 51
M  V30 56 1 27 52
M  V30 57 1 30 53
M  V30 58 1 30 54
M  V30 END BOND
M  V30 END CTAB
M  END
>  <Dataset>  (492) 
ChEMBL_Kinases

>  <Ligand_Instance>  (492) 
nan

>  <PDB_ID>  (492) 
nan

>  <Standardized_SMILES>  (492) 
CN(C)C[C@@H]1Cc2c(C3=C(Nc4ccccc4)C(=O)NC3=O)c3ccccc3n2C1

>  <Name>  (492) 
nan

>  <Pocket>  (492) 
nan

>  <ATP_Site>  (492) 
nan

>  <Peripheral>  (492) 
nan

>  <Num_H_Atoms_ProtBoundConf>  (492) 
nan

>  <Num_Resolved_Atoms>  (492) 
nan

>  <Num_Not_Resolved_Atoms>  (492) 
nan

$$$$
CHEMBL2236796
     RDKit          3D

  0  0  0  0  0  0  0  0  0  0999 V3000
M  V30 BEGIN CTAB
M  V30 COUNTS 47 51 0 0 0
M  V30 BEGIN ATOM
M  V30 1 O -1.543595 -1.035992 4.822995 0
M  V30 2 C -0.541289 -0.727752 4.134042 0
M  V30 3 N 0.825833 -0.643629 4.587094 0
M  V30 4 C 1.706248 -0.263330 3.528509 0
M  V30 5 O 2.931331 -0.114902 3.631834 0
M  V30 6 C 0.816997 -0.110492 2.377720 0
M  V30 7 C 1.249582 0.312444 1.049394 0
M  V30 8 C 2.277349 -0.193707 0.264381 0
M  V30 9 N 2.349028 0.517532 -0.904801 0
M  V30 10 C 1.381596 1.458261 -0.858164 0
M  V30 11 C 1.096976 2.409742 -1.826089 0
M  V30 12 C 0.070545 3.322873 -1.619291 0
M  V30 13 C -0.640874 3.245839 -0.433566 0
M  V30 14 C -0.311757 2.276553 0.493123 0
M  V30 15 C 0.694139 1.351646 0.333894 0
M  V30 16 C 3.435271 -0.033728 -1.732741 0
M  V30 17 C 3.465228 -1.490325 -1.247370 0 CFG=2
M  V30 18 C 2.238478 -2.169892 -1.804643 0
M  V30 19 O 2.190875 -3.516192 -1.403327 0
M  V30 20 C 3.349632 -1.254188 0.243596 0
M  V30 21 C -0.426052 -0.377181 2.747466 0
M  V30 22 N -1.591368 -0.377483 1.902466 0
M  V30 23 C -2.728737 -1.179676 2.180146 0
M  V30 24 C -3.899656 -0.809625 2.835154 0
M  V30 25 C -4.914359 -1.726001 3.033037 0
M  V30 26 C -4.727611 -3.006708 2.563456 0
M  V30 27 C -3.607727 -3.467787 1.905323 0
M  V30 28 C -2.610894 -2.501180 1.730375 0
M  V30 29 H 1.124569 -0.841489 5.575914 0
M  V30 30 H 1.591665 2.539926 -2.764272 0
M  V30 31 H -0.272702 4.117224 -2.266653 0
M  V30 32 H -1.470062 3.931942 -0.192179 0
M  V30 33 H -0.883765 2.246255 1.417204 0
M  V30 34 H 4.358195 0.481058 -1.414718 0
M  V30 35 H 3.200923 0.042753 -2.797640 0
M  V30 36 H 4.410632 -1.975199 -1.516413 0
M  V30 37 H 1.352806 -1.618162 -1.434135 0
M  V30 38 H 2.244071 -2.104810 -2.910904 0
M  V30 39 H 1.480510 -3.580879 -0.696178 0
M  V30 40 H 4.297198 -0.741970 0.553127 0
M  V30 41 H 3.089572 -2.138172 0.810642 0
M  V30 42 H -2.004336 0.027909 1.042905 0
M  V30 43 H -3.911403 0.220959 3.149028 0
M  V30 44 H -5.812532 -1.401446 3.545848 0
M  V30 45 H -5.541658 -3.715202 2.731072 0
M  V30 46 H -3.474803 -4.468018 1.543891 0
M  V30 47 H -1.723982 -2.862072 1.211044 0
M  V30 END ATOM
M  V30 BEGIN BOND
M  V30 1 2 1 2
M  V30 2 1 2 3
M  V30 3 1 3 4
M  V30 4 2 4 5
M  V30 5 1 4 6
M  V30 6 1 6 7
M  V30 7 2 7 8
M  V30 8 1 8 9
M  V30 9 1 9 10
M  V30 10 2 10 11
M  V30 11 1 11 12
M  V30 12 2 12 13
M  V30 13 1 13 14
M  V30 14 2 14 15
M  V30 15 1 9 16
M  V30 16 1 16 17
M  V30 17 1 17 18
M  V30 18 1 18 19
M  V30 19 1 17 20
M  V30 20 2 6 21
M  V30 21 1 21 22
M  V30 22 1 22 23
M  V30 23 2 23 24
M  V30 24 1 24 25
M  V30 25 2 25 26
M  V30 26 1 26 27
M  V30 27 2 27 28
M  V30 28 1 21 2
M  V30 29 1 28 23
M  V30 30 1 15 7
M  V30 31 1 20 8
M  V30 32 1 15 10
M  V30 33 1 3 29
M  V30 34 1 11 30
M  V30 35 1 12 31
M  V30 36 1 13 32
M  V30 37 1 14 33
M  V30 38 1 16 34
M  V30 39 1 16 35
M  V30 40 1 17 36 CFG=1
M  V30 41 1 18 37
M  V30 42 1 18 38
M  V30 43 1 19 39
M  V30 44 1 20 40
M  V30 45 1 20 41
M  V30 46 1 22 42
M  V30 47 1 24 43
M  V30 48 1 25 44
M  V30 49 1 26 45
M  V30 50 1 27 46
M  V30 51 1 28 47
M  V30 END BOND
M  V30 END CTAB
M  END
>  <Dataset>  (493) 
ChEMBL_Kinases

>  <Ligand_Instance>  (493) 
nan

>  <PDB_ID>  (493) 
nan

>  <Standardized_SMILES>  (493) 
O=C1NC(=O)C(c2c3n(c4ccccc24)C[C@H](CO)C3)=C1Nc1ccccc1

>  <Name>  (493) 
nan

>  <Pocket>  (493) 
nan

>  <ATP_Site>  (493) 
nan

>  <Peripheral>  (493) 
nan

>  <Num_H_Atoms_ProtBoundConf>  (493) 
nan

>  <Num_Resolved_Atoms>  (493) 
nan

>  <Num_Not_Resolved_Atoms>  (493) 
nan

$$$$
CHEMBL2236795
     RDKit          3D

  0  0  0  0  0  0  0  0  0  0999 V3000
M  V30 BEGIN CTAB
M  V30 COUNTS 53 57 0 0 0
M  V30 BEGIN ATOM
M  V30 1 C 3.056485 -2.599280 5.684669 0
M  V30 2 C 2.251048 -1.743022 4.779545 0
M  V30 3 O 1.494720 -0.843092 5.279112 0
M  V30 4 N 2.278253 -1.874428 3.372798 0
M  V30 5 C 1.543735 -1.109546 2.386753 0
M  V30 6 C 0.075189 -1.300583 2.632196 0 CFG=1
M  V30 7 C -0.778706 -0.529030 1.638492 0
M  V30 8 C -0.884482 -1.460383 0.504889 0
M  V30 9 C -1.140877 -1.528296 -0.870082 0
M  V30 10 C -1.430014 -0.446968 -1.803336 0
M  V30 11 C -0.772086 0.677872 -1.873058 0
M  V30 12 N 0.337584 1.345110 -1.239779 0
M  V30 13 C 0.208439 2.555677 -0.465244 0
M  V30 14 C 1.231062 3.248383 0.139647 0
M  V30 15 C 0.969781 4.394937 0.858017 0
M  V30 16 C -0.310558 4.889193 0.998674 0
M  V30 17 C -1.365914 4.239875 0.417502 0
M  V30 18 C -1.079985 3.080505 -0.305653 0
M  V30 19 C -1.354319 1.535663 -2.928127 0
M  V30 20 O -1.121725 2.696125 -3.413190 0
M  V30 21 N -2.460186 0.837926 -3.528684 0
M  V30 22 C -2.502067 -0.412921 -2.812986 0
M  V30 23 O -3.362038 -1.304727 -3.067563 0
M  V30 24 C -1.037793 -2.878591 -1.161204 0
M  V30 25 C -1.165760 -3.619540 -2.316388 0
M  V30 26 C -1.018442 -4.987136 -2.416151 0
M  V30 27 C -0.717088 -5.685650 -1.266971 0
M  V30 28 C -0.578356 -4.991508 -0.086995 0
M  V30 29 C -0.734253 -3.622769 -0.033573 0
M  V30 30 N -0.649043 -2.714938 0.965384 0
M  V30 31 C -0.380404 -2.702359 2.388090 0
M  V30 32 H 2.962060 -3.661006 5.378606 0
M  V30 33 H 4.108669 -2.266429 5.755318 0
M  V30 34 H 2.597440 -2.546521 6.695366 0
M  V30 35 H 2.933883 -2.642529 3.038808 0
M  V30 36 H 1.831555 -0.048424 2.527464 0
M  V30 37 H 1.854028 -1.389697 1.380425 0
M  V30 38 H -0.160115 -1.025563 3.664351 0
M  V30 39 H -0.330707 0.442045 1.418433 0
M  V30 40 H -1.778338 -0.423817 2.154070 0
M  V30 41 H 1.332580 1.008988 -1.289531 0
M  V30 42 H 2.204046 2.804996 -0.011847 0
M  V30 43 H 1.819298 4.912083 1.320995 0
M  V30 44 H -0.536577 5.785105 1.556651 0
M  V30 45 H -2.395467 4.567170 0.484015 0
M  V30 46 H -1.936590 2.566719 -0.768055 0
M  V30 47 H -3.123944 1.098866 -4.298863 0
M  V30 48 H -1.394143 -3.143449 -3.259018 0
M  V30 49 H -1.127000 -5.527958 -3.346005 0
M  V30 50 H -0.583743 -6.758508 -1.253956 0
M  V30 51 H -0.338893 -5.563747 0.815708 0
M  V30 52 H -1.321763 -2.896154 2.962800 0
M  V30 53 H 0.367584 -3.452652 2.685084 0
M  V30 END ATOM
M  V30 BEGIN BOND
M  V30 1 1 1 2
M  V30 2 2 2 3
M  V30 3 1 2 4
M  V30 4 1 4 5
M  V30 5 1 5 6
M  V30 6 1 6 7
M  V30 7 1 7 8
M  V30 8 2 8 9
M  V30 9 1 9 10
M  V30 10 2 10 11
M  V30 11 1 11 12
M  V30 12 1 12 13
M  V30 13 2 13 14
M  V30 14 1 14 15
M  V30 15 2 15 16
M  V30 16 1 16 17
M  V30 17 2 17 18
M  V30 18 1 11 19
M  V30 19 2 19 20
M  V30 20 1 19 21
M  V30 21 1 21 22
M  V30 22 2 22 23
M  V30 23 1 9 24
M  V30 24 2 24 25
M  V30 25 1 25 26
M  V30 26 2 26 27
M  V30 27 1 27 28
M  V30 28 2 28 29
M  V30 29 1 29 30
M  V30 30 1 30 31
M  V30 31 1 31 6
M  V30 32 1 30 8
M  V30 33 1 22 10
M  V30 34 1 29 24
M  V30 35 1 18 13
M  V30 36 1 1 32
M  V30 37 1 1 33
M  V30 38 1 1 34
M  V30 39 1 4 35
M  V30 40 1 5 36
M  V30 41 1 5 37
M  V30 42 1 6 38 CFG=1
M  V30 43 1 7 39
M  V30 44 1 7 40
M  V30 45 1 12 41
M  V30 46 1 14 42
M  V30 47 1 15 43
M  V30 48 1 16 44
M  V30 49 1 17 45
M  V30 50 1 18 46
M  V30 51 1 21 47
M  V30 52 1 25 48
M  V30 53 1 26 49
M  V30 54 1 27 50
M  V30 55 1 28 51
M  V30 56 1 31 52
M  V30 57 1 31 53
M  V30 END BOND
M  V30 END CTAB
M  END
>  <Dataset>  (494) 
ChEMBL_Kinases

>  <Ligand_Instance>  (494) 
nan

>  <PDB_ID>  (494) 
nan

>  <Standardized_SMILES>  (494) 
CC(=O)NC[C@H]1Cc2c(C3=C(Nc4ccccc4)C(=O)NC3=O)c3ccccc3n2C1

>  <Name>  (494) 
nan

>  <Pocket>  (494) 
nan

>  <ATP_Site>  (494) 
nan

>  <Peripheral>  (494) 
nan

>  <Num_H_Atoms_ProtBoundConf>  (494) 
nan

>  <Num_Resolved_Atoms>  (494) 
nan

>  <Num_Not_Resolved_Atoms>  (494) 
nan

$$$$
CHEMBL2236794
     RDKit          3D

  0  0  0  0  0  0  0  0  0  0999 V3000
M  V30 BEGIN CTAB
M  V30 COUNTS 48 52 0 0 0
M  V30 BEGIN ATOM
M  V30 1 N 0.760530 -4.123862 4.071344 0
M  V30 2 C 0.677618 -2.713679 4.259635 0
M  V30 3 C 0.036832 -1.993509 3.101660 0 CFG=1
M  V30 4 C 0.800088 -2.207435 1.791234 0
M  V30 5 C -0.273791 -1.789319 0.827704 0
M  V30 6 C -0.443641 -1.241415 -0.444669 0
M  V30 7 C 0.555176 -0.827106 -1.420737 0
M  V30 8 C 1.653542 -0.102054 -1.278419 0
M  V30 9 N 2.295662 0.544252 -0.190165 0
M  V30 10 C 2.014662 1.769875 0.465508 0
M  V30 11 C 0.944472 2.552417 0.087784 0
M  V30 12 C 0.723090 3.743632 0.763417 0
M  V30 13 C 1.555219 4.153997 1.803737 0
M  V30 14 C 2.612446 3.332124 2.141008 0
M  V30 15 C 2.852872 2.151156 1.489996 0
M  V30 16 C 2.328453 0.012325 -2.590715 0
M  V30 17 O 3.407772 0.613542 -2.921800 0
M  V30 18 N 1.570743 -0.702039 -3.588559 0
M  V30 19 C 0.456973 -1.226882 -2.840764 0
M  V30 20 O -0.382393 -1.916656 -3.507607 0
M  V30 21 C -1.816822 -1.167317 -0.573246 0
M  V30 22 C -2.668005 -0.717165 -1.563858 0
M  V30 23 C -4.047137 -0.726502 -1.474957 0
M  V30 24 C -4.646243 -1.218125 -0.317804 0
M  V30 25 C -3.840187 -1.674847 0.690234 0
M  V30 26 C -2.473626 -1.639837 0.543088 0
M  V30 27 N -1.493884 -2.017840 1.392811 0
M  V30 28 C -1.292771 -2.597731 2.717552 0
M  V30 29 H 1.524449 -4.542735 4.650275 0
M  V30 30 H -0.176709 -4.545669 4.251160 0
M  V30 31 H 0.056154 -2.432094 5.156182 0
M  V30 32 H 1.683996 -2.286083 4.434734 0
M  V30 33 H -0.049519 -0.917277 3.254878 0
M  V30 34 H 1.684271 -1.562527 1.725600 0
M  V30 35 H 0.982666 -3.286808 1.647856 0
M  V30 36 H 3.108438 -0.068208 0.113762 0
M  V30 37 H 0.275555 2.270179 -0.711268 0
M  V30 38 H -0.106738 4.412287 0.516638 0
M  V30 39 H 1.387813 5.085204 2.332994 0
M  V30 40 H 3.241357 3.679924 2.950900 0
M  V30 41 H 3.721770 1.570376 1.837262 0
M  V30 42 H 1.816628 -0.790627 -4.605357 0
M  V30 43 H -2.282622 -0.313988 -2.486815 0
M  V30 44 H -4.676277 -0.358389 -2.288519 0
M  V30 45 H -5.721861 -1.234079 -0.224817 0
M  V30 46 H -4.327711 -2.050661 1.577765 0
M  V30 47 H -2.117739 -2.375556 3.396136 0
M  V30 48 H -1.147545 -3.690480 2.531949 0
M  V30 END ATOM
M  V30 BEGIN BOND
M  V30 1 1 1 2
M  V30 2 1 2 3
M  V30 3 1 3 4
M  V30 4 1 4 5
M  V30 5 2 5 6
M  V30 6 1 6 7
M  V30 7 2 7 8
M  V30 8 1 8 9
M  V30 9 1 9 10
M  V30 10 2 10 11
M  V30 11 1 11 12
M  V30 12 2 12 13
M  V30 13 1 13 14
M  V30 14 2 14 15
M  V30 15 1 8 16
M  V30 16 2 16 17
M  V30 17 1 16 18
M  V30 18 1 18 19
M  V30 19 2 19 20
M  V30 20 1 6 21
M  V30 21 2 21 22
M  V30 22 1 22 23
M  V30 23 2 23 24
M  V30 24 1 24 25
M  V30 25 2 25 26
M  V30 26 1 26 27
M  V30 27 1 27 28
M  V30 28 1 28 3
M  V30 29 1 27 5
M  V30 30 1 19 7
M  V30 31 1 26 21
M  V30 32 1 15 10
M  V30 33 1 1 29
M  V30 34 1 1 30
M  V30 35 1 2 31
M  V30 36 1 2 32
M  V30 37 1 3 33 CFG=1
M  V30 38 1 4 34
M  V30 39 1 4 35
M  V30 40 1 9 36
M  V30 41 1 11 37
M  V30 42 1 12 38
M  V30 43 1 13 39
M  V30 44 1 14 40
M  V30 45 1 15 41
M  V30 46 1 18 42
M  V30 47 1 22 43
M  V30 48 1 23 44
M  V30 49 1 24 45
M  V30 50 1 25 46
M  V30 51 1 28 47
M  V30 52 1 28 48
M  V30 END BOND
M  V30 END CTAB
M  END
>  <Dataset>  (495) 
ChEMBL_Kinases

>  <Ligand_Instance>  (495) 
nan

>  <PDB_ID>  (495) 
nan

>  <Standardized_SMILES>  (495) 
NC[C@H]1Cc2c(C3=C(Nc4ccccc4)C(=O)NC3=O)c3ccccc3n2C1

>  <Name>  (495) 
nan

>  <Pocket>  (495) 
nan

>  <ATP_Site>  (495) 
nan

>  <Peripheral>  (495) 
nan

>  <Num_H_Atoms_ProtBoundConf>  (495) 
nan

>  <Num_Resolved_Atoms>  (495) 
nan

>  <Num_Not_Resolved_Atoms>  (495) 
nan

$$$$
CHEMBL2236793
     RDKit          3D

  0  0  0  0  0  0  0  0  0  0999 V3000
M  V30 BEGIN CTAB
M  V30 COUNTS 54 58 0 0 0
M  V30 BEGIN ATOM
M  V30 1 C -0.332963 -1.881720 6.361493 0
M  V30 2 C 0.360699 -1.330870 5.121261 0
M  V30 3 N 1.181826 -2.360628 4.543713 0
M  V30 4 C 1.878773 -1.894454 3.368040 0
M  V30 5 C 0.897863 -1.646105 2.252612 0 CFG=1
M  V30 6 C 1.590366 -1.159012 0.982122 0
M  V30 7 C 0.695869 -1.705381 -0.061150 0
M  V30 8 C 0.327737 -1.503268 -1.399301 0
M  V30 9 C 0.809935 -0.486988 -2.327236 0
M  V30 10 C 0.988324 0.811144 -2.140893 0
M  V30 11 N 0.776560 1.652816 -0.999948 0
M  V30 12 C -0.334745 2.369035 -0.469329 0
M  V30 13 C -0.472638 3.655886 -0.969270 0
M  V30 14 C -1.485468 4.526451 -0.588580 0
M  V30 15 C -2.366915 4.019232 0.340543 0
M  V30 16 C -2.267856 2.751686 0.862108 0
M  V30 17 C -1.254111 1.898327 0.472259 0
M  V30 18 C 1.499172 1.447744 -3.331970 0
M  V30 19 O 1.805425 2.661128 -3.583940 0
M  V30 20 N 1.648396 0.440927 -4.343516 0
M  V30 21 C 1.212768 -0.769935 -3.699837 0
M  V30 22 O 1.248451 -1.832138 -4.394395 0
M  V30 23 C -0.618038 -2.494061 -1.625283 0
M  V30 24 C -1.375698 -2.844694 -2.722048 0
M  V30 25 C -2.288698 -3.875856 -2.761442 0
M  V30 26 C -2.470860 -4.627168 -1.618590 0
M  V30 27 C -1.737329 -4.313478 -0.500779 0
M  V30 28 C -0.833433 -3.271495 -0.506605 0
M  V30 29 N -0.015346 -2.763139 0.430793 0
M  V30 30 C 0.348785 -2.993553 1.815857 0
M  V30 31 H -1.032888 -1.116495 6.751044 0
M  V30 32 H -0.903650 -2.792860 6.058846 0
M  V30 33 H 0.392665 -2.117066 7.142153 0
M  V30 34 H 0.946643 -0.445283 5.462473 0
M  V30 35 H -0.448752 -1.005732 4.454188 0
M  V30 36 H 1.841601 -2.701445 5.269143 0
M  V30 37 H 2.700981 -2.559958 3.065517 0
M  V30 38 H 2.282693 -0.878620 3.660914 0
M  V30 39 H 0.100356 -0.944745 2.528642 0
M  V30 40 H 1.749930 -0.091448 0.971637 0
M  V30 41 H 2.593808 -1.628588 1.002422 0
M  V30 42 H 1.471452 1.931393 -0.265797 0
M  V30 43 H 0.226604 4.070403 -1.710750 0
M  V30 44 H -1.603383 5.518676 -0.965031 0
M  V30 45 H -3.169024 4.677566 0.658139 0
M  V30 46 H -2.940215 2.343018 1.582684 0
M  V30 47 H -1.048680 0.890498 0.788318 0
M  V30 48 H 2.004422 0.595411 -5.334298 0
M  V30 49 H -1.294153 -2.296513 -3.647969 0
M  V30 50 H -2.865837 -4.121588 -3.640515 0
M  V30 51 H -3.183065 -5.438014 -1.633709 0
M  V30 52 H -1.897348 -4.919611 0.386798 0
M  V30 53 H -0.551613 -3.187723 2.455998 0
M  V30 54 H 1.101558 -3.785161 1.861163 0
M  V30 END ATOM
M  V30 BEGIN BOND
M  V30 1 1 1 2
M  V30 2 1 2 3
M  V30 3 1 3 4
M  V30 4 1 4 5
M  V30 5 1 5 6
M  V30 6 1 6 7
M  V30 7 2 7 8
M  V30 8 1 8 9
M  V30 9 2 9 10
M  V30 10 1 10 11
M  V30 11 1 11 12
M  V30 12 2 12 13
M  V30 13 1 13 14
M  V30 14 2 14 15
M  V30 15 1 15 16
M  V30 16 2 16 17
M  V30 17 1 10 18
M  V30 18 2 18 19
M  V30 19 1 18 20
M  V30 20 1 20 21
M  V30 21 2 21 22
M  V30 22 1 8 23
M  V30 23 2 23 24
M  V30 24 1 24 25
M  V30 25 2 25 26
M  V30 26 1 26 27
M  V30 27 2 27 28
M  V30 28 1 28 29
M  V30 29 1 29 30
M  V30 30 1 30 5
M  V30 31 1 29 7
M  V30 32 1 21 9
M  V30 33 1 28 23
M  V30 34 1 17 12
M  V30 35 1 1 31
M  V30 36 1 1 32
M  V30 37 1 1 33
M  V30 38 1 2 34
M  V30 39 1 2 35
M  V30 40 1 3 36
M  V30 41 1 4 37
M  V30 42 1 4 38
M  V30 43 1 5 39 CFG=1
M  V30 44 1 6 40
M  V30 45 1 6 41
M  V30 46 1 11 42
M  V30 47 1 13 43
M  V30 48 1 14 44
M  V30 49 1 15 45
M  V30 50 1 16 46
M  V30 51 1 17 47
M  V30 52 1 20 48
M  V30 53 1 24 49
M  V30 54 1 25 50
M  V30 55 1 26 51
M  V30 56 1 27 52
M  V30 57 1 30 53
M  V30 58 1 30 54
M  V30 END BOND
M  V30 END CTAB
M  END
>  <Dataset>  (496) 
ChEMBL_Kinases

>  <Ligand_Instance>  (496) 
nan

>  <PDB_ID>  (496) 
nan

>  <Standardized_SMILES>  (496) 
CCNC[C@H]1Cc2c(C3=C(Nc4ccccc4)C(=O)NC3=O)c3ccccc3n2C1

>  <Name>  (496) 
nan

>  <Pocket>  (496) 
nan

>  <ATP_Site>  (496) 
nan

>  <Peripheral>  (496) 
nan

>  <Num_H_Atoms_ProtBoundConf>  (496) 
nan

>  <Num_Resolved_Atoms>  (496) 
nan

>  <Num_Not_Resolved_Atoms>  (496) 
nan

$$$$
CHEMBL226335
     RDKit          3D

  0  0  0  0  0  0  0  0  0  0999 V3000
M  V30 BEGIN CTAB
M  V30 COUNTS 73 77 0 0 0
M  V30 BEGIN ATOM
M  V30 1 C 1.642411 -4.863046 -0.269444 0
M  V30 2 C 2.423624 -4.792168 -1.555220 0 CFG=2
M  V30 3 O 3.226146 -3.688029 -1.686197 0
M  V30 4 C 2.462738 -2.495699 -1.559879 0 CFG=1
M  V30 5 O 3.376266 -1.490222 -1.680467 0
M  V30 6 C 3.712189 -0.736906 -0.618014 0
M  V30 7 C 2.619428 0.120553 -0.082618 0 CFG=1
M  V30 8 O 1.548574 -0.587848 0.327254 0
M  V30 9 C 0.742781 0.101287 1.194336 0 CFG=1
M  V30 10 O -0.536530 -0.509156 1.248372 0
M  V30 11 C -1.719427 0.011175 1.608725 0
M  V30 12 C -2.664290 0.703231 0.902145 0
M  V30 13 C -2.463416 0.985680 -0.494828 0
M  V30 14 C -3.396546 1.826864 -1.067532 0
M  V30 15 C -3.369673 2.188656 -2.406991 0
M  V30 16 C -2.395471 1.722540 -3.257994 0
M  V30 17 O -2.397503 2.101528 -4.584219 0
M  V30 18 C -1.448848 0.884076 -2.730300 0
M  V30 19 O -0.439801 0.370695 -3.501142 0
M  V30 20 C -1.532931 0.566345 -1.401128 0
M  V30 21 O -3.753040 1.112622 1.489471 0
M  V30 22 C -4.066999 0.931120 2.735154 0
M  V30 23 C -5.280329 1.447677 3.171668 0
M  V30 24 C -5.631515 1.264562 4.492417 0
M  V30 25 O -6.841296 1.772123 4.954124 0
M  V30 26 C -4.764694 0.572810 5.338305 0
M  V30 27 C -3.574400 0.083559 4.847876 0
M  V30 28 O -2.701781 -0.607559 5.676020 0
M  V30 29 C -3.182720 0.241735 3.540950 0
M  V30 30 C -1.997149 -0.221246 2.963199 0
M  V30 31 O -1.331966 -0.823690 3.850630 0
M  V30 32 C 1.419364 0.137496 2.557525 0 CFG=2
M  V30 33 O 0.851289 1.147010 3.352440 0
M  V30 34 C 2.901230 0.393193 2.377048 0 CFG=1
M  V30 35 O 3.685046 -0.732460 2.533187 0
M  V30 36 C 3.173799 1.029224 1.027640 0 CFG=2
M  V30 37 O 2.646607 2.302246 0.966066 0
M  V30 38 C 1.418284 -2.427393 -2.636712 0 CFG=2
M  V30 39 O 0.167118 -2.393759 -2.030234 0
M  V30 40 C 1.420057 -3.633248 -3.537832 0 CFG=2
M  V30 41 O 0.248171 -3.721676 -4.280884 0
M  V30 42 C 1.609614 -4.923075 -2.791880 0 CFG=1
M  V30 43 O 2.172284 -5.894883 -3.612016 0
M  V30 44 H 1.588311 -5.924778 0.054405 0
M  V30 45 H 2.276284 -4.347850 0.504409 0
M  V30 46 H 0.635287 -4.449261 -0.308625 0
M  V30 47 H 3.131482 -5.674233 -1.509192 0
M  V30 48 H 2.065253 -2.547546 -0.539270 0
M  V30 49 H 4.654308 -0.136561 -0.787217 0
M  V30 50 H 4.018612 -1.405921 0.264386 0
M  V30 51 H 2.290127 0.823256 -0.896298 0
M  V30 52 H 0.637164 1.167257 0.905378 0
M  V30 53 H -4.218480 2.269663 -0.520557 0
M  V30 54 H -4.105463 2.842000 -2.818262 0
M  V30 55 H -2.639506 3.004903 -4.916021 0
M  V30 56 H -0.538408 -0.016619 -4.435686 0
M  V30 57 H -0.797303 -0.103705 -1.013034 0
M  V30 58 H -5.957541 1.983410 2.521171 0
M  V30 59 H -7.075497 1.651155 5.933753 0
M  V30 60 H -5.003713 0.413609 6.360065 0
M  V30 61 H -2.745625 -1.634113 5.679813 0
M  V30 62 H 1.281647 -0.830827 3.035335 0
M  V30 63 H 0.200211 1.702507 2.848952 0
M  V30 64 H 3.205795 1.132077 3.146645 0
M  V30 65 H 3.780033 -0.873943 3.527021 0
M  V30 66 H 4.271156 1.095109 0.913667 0
M  V30 67 H 3.217729 2.964160 0.531252 0
M  V30 68 H 1.551127 -1.485214 -3.193275 0
M  V30 69 H -0.569372 -2.256222 -2.659068 0
M  V30 70 H 2.260427 -3.525871 -4.249006 0
M  V30 71 H 0.371772 -4.077830 -5.191136 0
M  V30 72 H 0.607836 -5.331919 -2.468942 0
M  V30 73 H 2.870383 -6.408256 -3.126556 0
M  V30 END ATOM
M  V30 BEGIN BOND
M  V30 1 1 1 2
M  V30 2 1 2 3
M  V30 3 1 3 4
M  V30 4 1 4 5
M  V30 5 1 5 6
M  V30 6 1 6 7
M  V30 7 1 7 8
M  V30 8 1 8 9
M  V30 9 1 9 10
M  V30 10 1 10 11
M  V30 11 2 11 12
M  V30 12 1 12 13
M  V30 13 2 13 14
M  V30 14 1 14 15
M  V30 15 2 15 16
M  V30 16 1 16 17
M  V30 17 1 16 18
M  V30 18 1 18 19
M  V30 19 2 18 20
M  V30 20 1 12 21
M  V30 21 1 21 22
M  V30 22 2 22 23
M  V30 23 1 23 24
M  V30 24 1 24 25
M  V30 25 2 24 26
M  V30 26 1 26 27
M  V30 27 1 27 28
M  V30 28 2 27 29
M  V30 29 1 29 30
M  V30 30 2 30 31
M  V30 31 1 9 32
M  V30 32 1 32 33
M  V30 33 1 32 34
M  V30 34 1 34 35
M  V30 35 1 34 36
M  V30 36 1 36 37
M  V30 37 1 4 38
M  V30 38 1 38 39
M  V30 39 1 38 40
M  V30 40 1 40 41
M  V30 41 1 40 42
M  V30 42 1 42 43
M  V30 43 1 42 2
M  V30 44 1 36 7
M  V30 45 1 30 11
M  V30 46 1 20 13
M  V30 47 1 29 22
M  V30 48 1 1 44
M  V30 49 1 1 45
M  V30 50 1 1 46
M  V30 51 1 2 47 CFG=1
M  V30 52 1 4 48 CFG=1
M  V30 53 1 6 49
M  V30 54 1 6 50
M  V30 55 1 7 51 CFG=3
M  V30 56 1 9 52 CFG=3
M  V30 57 1 14 53
M  V30 58 1 15 54
M  V30 59 1 17 55
M  V30 60 1 19 56
M  V30 61 1 20 57
M  V30 62 1 23 58
M  V30 63 1 25 59
M  V30 64 1 26 60
M  V30 65 1 28 61
M  V30 66 1 32 62 CFG=1
M  V30 67 1 33 63
M  V30 68 1 34 64 CFG=1
M  V30 69 1 35 65
M  V30 70 1 36 66 CFG=3
M  V30 71 1 37 67
M  V30 72 1 38 68 CFG=3
M  V30 73 1 39 69
M  V30 74 1 40 70 CFG=3
M  V30 75 1 41 71
M  V30 76 1 42 72 CFG=1
M  V30 77 1 43 73
M  V30 END BOND
M  V30 END CTAB
M  END
>  <Dataset>  (497) 
ChEMBL_Kinases

>  <Ligand_Instance>  (497) 
nan

>  <PDB_ID>  (497) 
nan

>  <Standardized_SMILES>  (497) 
C[C@@H]1O[C@@H](OC[C@H]2O[C@@H](Oc3c(-c4ccc(O)c(O)c4)oc4cc(O)cc(O)c4c3=O)[C@H](O)[C@@H](O)[C@@H]2O)[C@H](O)[C@H](O)[C@H]1O

>  <Name>  (497) 
RUTIN

>  <Pocket>  (497) 
nan

>  <ATP_Site>  (497) 
nan

>  <Peripheral>  (497) 
nan

>  <Num_H_Atoms_ProtBoundConf>  (497) 
nan

>  <Num_Resolved_Atoms>  (497) 
nan

>  <Num_Not_Resolved_Atoms>  (497) 
nan

$$$$
CHEMBL223339
     RDKit          3D

  0  0  0  0  0  0  0  0  0  0999 V3000
M  V30 BEGIN CTAB
M  V30 COUNTS 37 39 0 0 0
M  V30 BEGIN ATOM
M  V30 1 N -1.063172 -3.570281 1.185994 0
M  V30 2 C -0.246887 -3.535455 -0.000788 0
M  V30 3 C 0.705659 -2.379556 0.072204 0 CFG=2
M  V30 4 C 1.566461 -2.531826 1.264123 0
M  V30 5 C 2.949124 -2.698516 1.139480 0
M  V30 6 C 3.799723 -2.830885 2.211517 0
M  V30 7 C 3.301950 -2.802931 3.495794 0
M  V30 8 Cl 4.373090 -2.970371 4.867594 0
M  V30 9 C 1.945299 -2.641233 3.694947 0
M  V30 10 C 1.155088 -2.514839 2.573400 0
M  V30 11 C 0.050688 -1.063527 -0.047026 0
M  V30 12 C -1.168679 -0.625016 0.410696 0
M  V30 13 C -1.620882 0.660124 0.203873 0
M  V30 14 C -0.864847 1.586313 -0.481666 0
M  V30 15 C -1.356114 2.943681 -0.693987 0
M  V30 16 C -2.676279 3.313435 -0.851656 0
M  V30 17 N -2.672718 4.649185 -1.018290 0
M  V30 18 N -1.410469 5.093702 -0.967376 0
M  V30 19 C -0.545443 4.070764 -0.766488 0
M  V30 20 C 0.371036 1.212788 -0.969603 0
M  V30 21 C 0.782814 -0.085188 -0.738492 0
M  V30 22 H -0.770029 -4.382803 1.811868 0
M  V30 23 H -2.079681 -3.722429 0.967646 0
M  V30 24 H 0.371369 -4.462523 -0.057158 0
M  V30 25 H -0.878731 -3.506122 -0.918134 0
M  V30 26 H 1.389968 -2.536345 -0.840690 0
M  V30 27 H 3.373007 -2.723756 0.123048 0
M  V30 28 H 4.867009 -2.956171 1.993256 0
M  V30 29 H 1.542845 -2.617643 4.693981 0
M  V30 30 H 0.108448 -2.381266 2.788974 0
M  V30 31 H -1.748578 -1.352475 0.943921 0
M  V30 32 H -2.601088 0.892283 0.612719 0
M  V30 33 H -3.574975 2.687674 -0.849586 0
M  V30 34 H -1.078450 6.078331 -1.062053 0
M  V30 35 H 0.535004 4.160293 -0.686344 0
M  V30 36 H 0.992556 1.909886 -1.511991 0
M  V30 37 H 1.773531 -0.323726 -1.150736 0
M  V30 END ATOM
M  V30 BEGIN BOND
M  V30 1 1 1 2
M  V30 2 1 2 3
M  V30 3 1 3 4
M  V30 4 2 4 5
M  V30 5 1 5 6
M  V30 6 2 6 7
M  V30 7 1 7 8
M  V30 8 1 7 9
M  V30 9 2 9 10
M  V30 10 1 3 11
M  V30 11 2 11 12
M  V30 12 1 12 13
M  V30 13 2 13 14
M  V30 14 1 14 15
M  V30 15 1 15 16
M  V30 16 2 16 17
M  V30 17 1 17 18
M  V30 18 1 18 19
M  V30 19 1 14 20
M  V30 20 2 20 21
M  V30 21 1 10 4
M  V30 22 1 21 11
M  V30 23 2 19 15
M  V30 24 1 1 22
M  V30 25 1 1 23
M  V30 26 1 2 24
M  V30 27 1 2 25
M  V30 28 1 3 26 CFG=3
M  V30 29 1 5 27
M  V30 30 1 6 28
M  V30 31 1 9 29
M  V30 32 1 10 30
M  V30 33 1 12 31
M  V30 34 1 13 32
M  V30 35 1 16 33
M  V30 36 1 18 34
M  V30 37 1 19 35
M  V30 38 1 20 36
M  V30 39 1 21 37
M  V30 END BOND
M  V30 END CTAB
M  END
>  <Dataset>  (498) 
ChEMBL_Kinases

>  <Ligand_Instance>  (498) 
nan

>  <PDB_ID>  (498) 
nan

>  <Standardized_SMILES>  (498) 
NC[C@H](c1ccc(Cl)cc1)c1ccc(-c2cn[nH]c2)cc1

>  <Name>  (498) 
nan

>  <Pocket>  (498) 
nan

>  <ATP_Site>  (498) 
nan

>  <Peripheral>  (498) 
nan

>  <Num_H_Atoms_ProtBoundConf>  (498) 
nan

>  <Num_Resolved_Atoms>  (498) 
nan

>  <Num_Not_Resolved_Atoms>  (498) 
nan

$$$$
CHEMBL223347
     RDKit          3D

  0  0  0  0  0  0  0  0  0  0999 V3000
M  V30 BEGIN CTAB
M  V30 COUNTS 53 56 0 0 0
M  V30 BEGIN ATOM
M  V30 1 N 7.968485 1.288942 3.200289 0
M  V30 2 C 6.963957 0.762735 3.245534 0
M  V30 3 C 5.693742 0.072571 3.314547 0
M  V30 4 N 5.567138 -0.890647 4.234429 0
M  V30 5 C 4.393514 -1.536595 4.302335 0
M  V30 6 C 3.435391 -1.140977 3.414804 0
M  V30 7 N 3.579388 -0.147246 2.473491 0
M  V30 8 C 4.745332 0.483181 2.417323 0
M  V30 9 O 4.797063 1.454386 1.448753 0
M  V30 10 C 3.796643 1.849660 0.575024 0
M  V30 11 C 2.600393 2.393454 1.265944 0
M  V30 12 C 1.512611 2.842056 0.315325 0
M  V30 13 C 0.893865 1.741631 -0.498995 0
M  V30 14 C 0.110941 0.782742 0.426100 0
M  V30 15 O -0.367283 -0.290371 -0.269676 0
M  V30 16 C -1.099995 -1.385232 0.059621 0
M  V30 17 C -2.487074 -1.572258 -0.109135 0
M  V30 18 C -3.229717 -2.727051 0.238771 0
M  V30 19 N -4.531926 -2.388522 -0.152227 0
M  V30 20 C -5.832292 -2.003538 -0.561331 0
M  V30 21 C -5.910594 -1.735067 -1.971316 0
M  V30 22 C -6.231748 -2.882270 -2.848901 0
M  V30 23 N -6.338168 -2.777055 -4.174564 0
M  V30 24 C -6.143417 -1.596322 -4.671295 0
M  V30 25 S -5.762363 -0.453006 -3.168887 0
M  V30 26 C -2.525612 -3.761968 0.794648 0
M  V30 27 Cl -3.569922 -5.097414 1.170621 0
M  V30 28 C -1.197477 -3.643303 0.981784 0
M  V30 29 C -0.545900 -2.543428 0.641549 0
M  V30 30 N 0.844617 -2.492841 0.880248 0
M  V30 31 C 1.491440 -1.974604 1.973458 0
M  V30 32 O 0.573349 -1.688750 2.677992 0
M  V30 33 N 2.121839 -1.454956 3.071048 0
M  V30 34 H 3.835391 -2.298035 4.807137 0
M  V30 35 H 4.217869 2.702837 -0.035241 0
M  V30 36 H 3.586361 0.985248 -0.087476 0
M  V30 37 H 2.200961 1.743236 2.066983 0
M  V30 38 H 2.916072 3.323758 1.799920 0
M  V30 39 H 0.703098 3.270678 0.942855 0
M  V30 40 H 1.892003 3.668455 -0.318641 0
M  V30 41 H 0.128595 2.196224 -1.157439 0
M  V30 42 H 1.583230 1.182658 -1.123256 0
M  V30 43 H 0.731478 0.567216 1.282177 0
M  V30 44 H -0.802695 1.402581 0.732100 0
M  V30 45 H -2.841912 -0.620094 -0.565409 0
M  V30 46 H -4.861182 -3.362447 0.143546 0
M  V30 47 H -6.636198 -2.635474 -0.239502 0
M  V30 48 H -6.071635 -0.994515 -0.051904 0
M  V30 49 H -6.419966 -3.934200 -2.568974 0
M  V30 50 H -6.160676 -1.201847 -5.684266 0
M  V30 51 H -0.652118 -4.454007 1.400806 0
M  V30 52 H 1.214098 -2.957227 0.071891 0
M  V30 53 H 1.707071 -1.086967 3.954986 0
M  V30 END ATOM
M  V30 BEGIN BOND
M  V30 1 3 1 2
M  V30 2 1 2 3
M  V30 3 2 3 4
M  V30 4 1 4 5
M  V30 5 2 5 6
M  V30 6 1 6 7
M  V30 7 2 7 8
M  V30 8 1 8 9
M  V30 9 1 9 10
M  V30 10 1 10 11
M  V30 11 1 11 12
M  V30 12 1 12 13
M  V30 13 1 13 14
M  V30 14 1 14 15
M  V30 15 1 15 16
M  V30 16 2 16 17
M  V30 17 1 17 18
M  V30 18 1 18 19
M  V30 19 1 19 20
M  V30 20 1 20 21
M  V30 21 2 21 22
M  V30 22 1 22 23
M  V30 23 2 23 24
M  V30 24 1 24 25
M  V30 25 2 18 26
M  V30 26 1 26 27
M  V30 27 1 26 28
M  V30 28 2 28 29
M  V30 29 1 29 30
M  V30 30 1 30 31
M  V30 31 2 31 32
M  V30 32 1 31 33
M  V30 33 1 8 3
M  V30 34 1 29 16
M  V30 35 1 33 6
M  V30 36 1 25 21
M  V30 37 1 5 34
M  V30 38 1 10 35
M  V30 39 1 10 36
M  V30 40 1 11 37
M  V30 41 1 11 38
M  V30 42 1 12 39
M  V30 43 1 12 40
M  V30 44 1 13 41
M  V30 45 1 13 42
M  V30 46 1 14 43
M  V30 47 1 14 44
M  V30 48 1 17 45
M  V30 49 1 19 46
M  V30 50 1 20 47
M  V30 51 1 20 48
M  V30 52 1 22 49
M  V30 53 1 24 50
M  V30 54 1 28 51
M  V30 55 1 30 52
M  V30 56 1 33 53
M  V30 END BOND
M  V30 END CTAB
M  END
>  <Dataset>  (499) 
ChEMBL_Kinases

>  <Ligand_Instance>  (499) 
nan

>  <PDB_ID>  (499) 
nan

>  <Standardized_SMILES>  (499) 
N#Cc1ncc2nc1OCCCCCOc1cc(NCc3cncs3)c(Cl)cc1NC(=O)N2

>  <Name>  (499) 
nan

>  <Pocket>  (499) 
nan

>  <ATP_Site>  (499) 
nan

>  <Peripheral>  (499) 
nan

>  <Num_H_Atoms_ProtBoundConf>  (499) 
nan

>  <Num_Resolved_Atoms>  (499) 
nan

>  <Num_Not_Resolved_Atoms>  (499) 
nan

$$$$
CHEMBL223425
     RDKit          3D

  0  0  0  0  0  0  0  0  0  0999 V3000
M  V30 BEGIN CTAB
M  V30 COUNTS 53 56 0 0 0
M  V30 BEGIN ATOM
M  V30 1 C -1.882186 -6.594765 2.777107 0
M  V30 2 O -2.142905 -5.555106 1.849379 0
M  V30 3 C -1.069321 -4.748888 1.493498 0
M  V30 4 C 0.194413 -4.974803 2.039429 0
M  V30 5 C 1.297425 -4.181570 1.702518 0
M  V30 6 N 2.594719 -4.144575 2.041529 0
M  V30 7 C 3.170090 -3.122150 1.365794 0
M  V30 8 N 2.227694 -2.532462 0.613312 0
M  V30 9 C 2.483703 -1.383643 -0.258408 0
M  V30 10 C 2.061776 -0.122447 -0.137442 0
M  V30 11 C 2.379821 0.851125 -1.032063 0
M  V30 12 O 2.209096 2.128412 -1.302108 0
M  V30 13 C 1.571100 3.210559 -0.788404 0
M  V30 14 C 0.077501 3.137394 -0.697860 0
M  V30 15 N -0.338901 2.080868 0.164277 0
M  V30 16 C -0.016182 2.390016 1.547794 0
M  V30 17 C -0.742992 1.392732 2.427116 0
M  V30 18 C -2.215112 1.731187 2.435028 0
M  V30 19 C -2.547781 2.443869 1.134378 0
M  V30 20 C -1.755407 1.775834 0.003974 0
M  V30 21 C 3.211026 0.409666 -2.122417 0
M  V30 22 C 3.841143 0.867906 -3.280960 0
M  V30 23 N 4.357111 1.256290 -4.227891 0
M  V30 24 S 3.425699 -1.416173 -1.689520 0
M  V30 25 C 1.040251 -3.156064 0.787056 0
M  V30 26 C -0.199357 -2.940581 0.256425 0
M  V30 27 C -1.273544 -3.734437 0.601925 0
M  V30 28 O -2.533668 -3.526637 0.071937 0
M  V30 29 C -2.870257 -2.529809 -0.841941 0
M  V30 30 H -1.645687 -6.214393 3.788468 0
M  V30 31 H -1.055003 -7.265540 2.410004 0
M  V30 32 H -2.791813 -7.229342 2.857460 0
M  V30 33 H 0.360925 -5.784478 2.751197 0
M  V30 34 H 4.220119 -2.882158 1.468402 0
M  V30 35 H 1.452281 0.105361 0.717152 0
M  V30 36 H 1.909534 3.456261 0.276934 0
M  V30 37 H 1.821926 4.168695 -1.369162 0
M  V30 38 H -0.352344 2.978686 -1.715670 0
M  V30 39 H -0.333167 4.114951 -0.330142 0
M  V30 40 H 1.078821 2.264687 1.670201 0
M  V30 41 H -0.285002 3.431585 1.775756 0
M  V30 42 H -0.533820 0.377489 2.065710 0
M  V30 43 H -0.373510 1.566738 3.460806 0
M  V30 44 H -2.796953 0.786180 2.484536 0
M  V30 45 H -2.485702 2.405928 3.265597 0
M  V30 46 H -3.607458 2.310113 0.899046 0
M  V30 47 H -2.281761 3.500182 1.223480 0
M  V30 48 H -2.165819 2.147284 -0.938260 0
M  V30 49 H -1.897261 0.687279 0.126974 0
M  V30 50 H -0.313525 -2.131400 -0.440483 0
M  V30 51 H -3.839180 -2.806092 -1.334891 0
M  V30 52 H -2.064582 -2.469778 -1.605095 0
M  V30 53 H -2.989912 -1.543967 -0.373882 0
M  V30 END ATOM
M  V30 BEGIN BOND
M  V30 1 1 1 2
M  V30 2 1 2 3
M  V30 3 2 3 4
M  V30 4 1 4 5
M  V30 5 1 5 6
M  V30 6 2 6 7
M  V30 7 1 7 8
M  V30 8 1 8 9
M  V30 9 2 9 10
M  V30 10 1 10 11
M  V30 11 1 11 12
M  V30 12 1 12 13
M  V30 13 1 13 14
M  V30 14 1 14 15
M  V30 15 1 15 16
M  V30 16 1 16 17
M  V30 17 1 17 18
M  V30 18 1 18 19
M  V30 19 1 19 20
M  V30 20 2 11 21
M  V30 21 1 21 22
M  V30 22 3 22 23
M  V30 23 1 21 24
M  V30 24 1 8 25
M  V30 25 1 25 26
M  V30 26 2 26 27
M  V30 27 1 27 28
M  V30 28 1 28 29
M  V30 29 1 27 3
M  V30 30 2 25 5
M  V30 31 1 24 9
M  V30 32 1 20 15
M  V30 33 1 1 30
M  V30 34 1 1 31
M  V30 35 1 1 32
M  V30 36 1 4 33
M  V30 37 1 7 34
M  V30 38 1 10 35
M  V30 39 1 13 36
M  V30 40 1 13 37
M  V30 41 1 14 38
M  V30 42 1 14 39
M  V30 43 1 16 40
M  V30 44 1 16 41
M  V30 45 1 17 42
M  V30 46 1 17 43
M  V30 47 1 18 44
M  V30 48 1 18 45
M  V30 49 1 19 46
M  V30 50 1 19 47
M  V30 51 1 20 48
M  V30 52 1 20 49
M  V30 53 1 26 50
M  V30 54 1 29 51
M  V30 55 1 29 52
M  V30 56 1 29 53
M  V30 END BOND
M  V30 END CTAB
M  END
>  <Dataset>  (500) 
ChEMBL_Kinases

>  <Ligand_Instance>  (500) 
nan

>  <PDB_ID>  (500) 
nan

>  <Standardized_SMILES>  (500) 
COc1cc2ncn(-c3cc(OCCN4CCCCC4)c(C#N)s3)c2cc1OC

>  <Name>  (500) 
nan

>  <Pocket>  (500) 
nan

>  <ATP_Site>  (500) 
nan

>  <Peripheral>  (500) 
nan

>  <Num_H_Atoms_ProtBoundConf>  (500) 
nan

>  <Num_Resolved_Atoms>  (500) 
nan

>  <Num_Not_Resolved_Atoms>  (500) 
nan

$$$$
CHEMBL223509
     RDKit          3D

  0  0  0  0  0  0  0  0  0  0999 V3000
M  V30 BEGIN CTAB
M  V30 COUNTS 57 60 0 0 0
M  V30 BEGIN ATOM
M  V30 1 N -4.042447 -2.910854 6.577946 0
M  V30 2 C -4.022834 -2.843459 5.423571 0
M  V30 3 C -3.985450 -2.738829 3.965420 0
M  V30 4 N -5.123516 -3.135335 3.363994 0
M  V30 5 C -5.136048 -3.057922 2.019738 0
M  V30 6 C -3.993104 -2.586280 1.422977 0
M  V30 7 N -2.880107 -2.197589 2.028226 0
M  V30 8 C -2.812644 -2.254175 3.357402 0
M  V30 9 O -1.794486 -1.915240 4.163893 0
M  V30 10 C -0.451197 -2.083028 4.280728 0
M  V30 11 C 0.382207 -1.579090 3.116553 0
M  V30 12 C 0.334617 -2.397460 1.887685 0
M  V30 13 C 0.800700 -1.681960 0.642066 0
M  V30 14 C 0.584519 -2.596191 -0.577892 0
M  V30 15 O 0.777860 -1.881278 -1.768308 0
M  V30 16 C 0.052810 -0.769710 -2.157447 0
M  V30 17 C 0.860960 0.294278 -2.501052 0
M  V30 18 C 0.407309 1.527971 -2.925433 0
M  V30 19 N 1.305339 2.591058 -3.255753 0
M  V30 20 C 1.239117 3.806925 -2.439552 0
M  V30 21 C 1.516439 4.967078 -3.370328 0
M  V30 22 C 2.997840 4.904372 -3.716215 0
M  V30 23 C 3.444471 3.490459 -3.959726 0
M  V30 24 C 2.279786 2.575567 -4.330044 0
M  V30 25 C -0.942959 1.763988 -3.030961 0
M  V30 26 Cl -1.593955 3.297148 -3.566860 0
M  V30 27 C -1.756703 0.677242 -2.679888 0
M  V30 28 C -1.333441 -0.563190 -2.253151 0
M  V30 29 N -2.448461 -1.401250 -1.989792 0
M  V30 30 C -3.159311 -1.932860 -0.906513 0
M  V30 31 O -2.303226 -1.269351 -0.352942 0
M  V30 32 N -3.994308 -2.562171 -0.006235 0
M  V30 33 H -5.984718 -3.340648 1.386325 0
M  V30 34 H -0.082723 -1.555575 5.193344 0
M  V30 35 H -0.143347 -3.162821 4.395701 0
M  V30 36 H 1.440648 -1.594721 3.518281 0
M  V30 37 H 0.209161 -0.488360 2.943273 0
M  V30 38 H -0.530558 -3.015359 1.692107 0
M  V30 39 H 1.168283 -3.218701 1.998877 0
M  V30 40 H 1.871317 -1.394744 0.703685 0
M  V30 41 H 0.240051 -0.757224 0.438691 0
M  V30 42 H 1.413720 -3.334277 -0.514533 0
M  V30 43 H -0.344882 -3.176270 -0.512109 0
M  V30 44 H 1.941202 0.236391 -2.461178 0
M  V30 45 H 0.265049 3.976354 -1.983649 0
M  V30 46 H 2.065977 3.732788 -1.690780 0
M  V30 47 H 1.264030 5.916991 -2.852888 0
M  V30 48 H 0.894187 4.819928 -4.275636 0
M  V30 49 H 3.522244 5.311876 -2.825430 0
M  V30 50 H 3.233649 5.563966 -4.555302 0
M  V30 51 H 4.140755 3.491851 -4.846159 0
M  V30 52 H 4.012741 3.071344 -3.103869 0
M  V30 53 H 1.873711 2.993828 -5.274254 0
M  V30 54 H 2.705797 1.576861 -4.534459 0
M  V30 55 H -2.822246 0.912991 -2.787289 0
M  V30 56 H -2.817537 -1.664395 -2.932362 0
M  V30 57 H -4.706569 -3.109970 -0.548933 0
M  V30 END ATOM
M  V30 BEGIN BOND
M  V30 1 3 1 2
M  V30 2 1 2 3
M  V30 3 2 3 4
M  V30 4 1 4 5
M  V30 5 2 5 6
M  V30 6 1 6 7
M  V30 7 2 7 8
M  V30 8 1 8 9
M  V30 9 1 9 10
M  V30 10 1 10 11
M  V30 11 1 11 12
M  V30 12 1 12 13
M  V30 13 1 13 14
M  V30 14 1 14 15
M  V30 15 1 15 16
M  V30 16 2 16 17
M  V30 17 1 17 18
M  V30 18 1 18 19
M  V30 19 1 19 20
M  V30 20 1 20 21
M  V30 21 1 21 22
M  V30 22 1 22 23
M  V30 23 1 23 24
M  V30 24 2 18 25
M  V30 25 1 25 26
M  V30 26 1 25 27
M  V30 27 2 27 28
M  V30 28 1 28 29
M  V30 29 1 29 30
M  V30 30 2 30 31
M  V30 31 1 30 32
M  V30 32 1 8 3
M  V30 33 1 28 16
M  V30 34 1 32 6
M  V30 35 1 24 19
M  V30 36 1 5 33
M  V30 37 1 10 34
M  V30 38 1 10 35
M  V30 39 1 11 36
M  V30 40 1 11 37
M  V30 41 1 12 38
M  V30 42 1 12 39
M  V30 43 1 13 40
M  V30 44 1 13 41
M  V30 45 1 14 42
M  V30 46 1 14 43
M  V30 47 1 17 44
M  V30 48 1 20 45
M  V30 49 1 20 46
M  V30 50 1 21 47
M  V30 51 1 21 48
M  V30 52 1 22 49
M  V30 53 1 22 50
M  V30 54 1 23 51
M  V30 55 1 23 52
M  V30 56 1 24 53
M  V30 57 1 24 54
M  V30 58 1 27 55
M  V30 59 1 29 56
M  V30 60 1 32 57
M  V30 END BOND
M  V30 END CTAB
M  END
>  <Dataset>  (501) 
ChEMBL_Kinases

>  <Ligand_Instance>  (501) 
nan

>  <PDB_ID>  (501) 
nan

>  <Standardized_SMILES>  (501) 
N#Cc1ncc2nc1OCCCCCOc1cc(N3CCCCC3)c(Cl)cc1NC(=O)N2

>  <Name>  (501) 
nan

>  <Pocket>  (501) 
nan

>  <ATP_Site>  (501) 
nan

>  <Peripheral>  (501) 
nan

>  <Num_H_Atoms_ProtBoundConf>  (501) 
nan

>  <Num_Resolved_Atoms>  (501) 
nan

>  <Num_Not_Resolved_Atoms>  (501) 
nan

$$$$
CHEMBL223512
     RDKit          3D

  0  0  0  0  0  0  0  0  0  0999 V3000
M  V30 BEGIN CTAB
M  V30 COUNTS 41 43 0 0 0
M  V30 BEGIN ATOM
M  V30 1 O 0.549399 -1.725530 1.732142 0
M  V30 2 C 1.534511 -2.229238 2.329870 0
M  V30 3 N 2.565209 -2.966639 1.698617 0
M  V30 4 C 2.471460 -3.143508 0.266934 0
M  V30 5 C 3.197713 -4.088780 -0.399910 0
M  V30 6 N 3.147707 -4.271523 -1.734957 0
M  V30 7 C 2.332706 -3.471859 -2.440861 0
M  V30 8 C 1.602087 -2.523443 -1.777829 0
M  V30 9 N 1.666293 -2.358099 -0.448865 0
M  V30 10 O 0.707375 -1.494430 -1.703694 0
M  V30 11 C 1.061044 -0.107865 -1.569134 0
M  V30 12 C -0.260900 0.622931 -1.494496 0
M  V30 13 C -0.089128 2.091038 -1.301837 0
M  V30 14 C 0.627601 2.505974 -0.061656 0
M  V30 15 C -0.063205 2.120657 1.210431 0
M  V30 16 O -0.188503 0.744588 1.338032 0
M  V30 17 C -0.795485 0.116310 2.418683 0
M  V30 18 C -2.050914 0.660031 2.576633 0
M  V30 19 C -2.968160 0.283157 3.565200 0
M  V30 20 C -2.581491 -0.720968 4.460121 0
M  V30 21 Cl -3.667525 -1.247925 5.721578 0
M  V30 22 C -1.317501 -1.243462 4.272789 0
M  V30 23 C -0.418058 -0.870820 3.299925 0
M  V30 24 N 0.798382 -1.604036 3.372082 0
M  V30 25 H 3.378325 -3.381150 2.205298 0
M  V30 26 H 3.808317 -4.667594 0.263628 0
M  V30 27 H 1.987936 -3.258898 -3.441355 0
M  V30 28 H 1.609832 0.130770 -2.514951 0
M  V30 29 H 1.674359 -0.025124 -0.670842 0
M  V30 30 H -0.901565 0.114105 -0.773040 0
M  V30 31 H -0.758645 0.455578 -2.492855 0
M  V30 32 H -1.130193 2.523189 -1.220731 0
M  V30 33 H 0.329101 2.592241 -2.201144 0
M  V30 34 H 0.743747 3.629986 -0.137174 0
M  V30 35 H 1.702360 2.157404 -0.063006 0
M  V30 36 H 0.542429 2.524223 2.065805 0
M  V30 37 H -1.037590 2.658979 1.257116 0
M  V30 38 H -2.508106 1.447591 1.968444 0
M  V30 39 H -3.957776 0.703150 3.699741 0
M  V30 40 H -1.088037 -2.017548 5.005208 0
M  V30 41 H 1.297724 -1.759514 4.275141 0
M  V30 END ATOM
M  V30 BEGIN BOND
M  V30 1 2 1 2
M  V30 2 1 2 3
M  V30 3 1 3 4
M  V30 4 2 4 5
M  V30 5 1 5 6
M  V30 6 2 6 7
M  V30 7 1 7 8
M  V30 8 2 8 9
M  V30 9 1 8 10
M  V30 10 1 10 11
M  V30 11 1 11 12
M  V30 12 1 12 13
M  V30 13 1 13 14
M  V30 14 1 14 15
M  V30 15 1 15 16
M  V30 16 1 16 17
M  V30 17 2 17 18
M  V30 18 1 18 19
M  V30 19 2 19 20
M  V30 20 1 20 21
M  V30 21 1 20 22
M  V30 22 2 22 23
M  V30 23 1 23 24
M  V30 24 1 24 2
M  V30 25 1 9 4
M  V30 26 1 23 17
M  V30 27 1 3 25
M  V30 28 1 5 26
M  V30 29 1 7 27
M  V30 30 1 11 28
M  V30 31 1 11 29
M  V30 32 1 12 30
M  V30 33 1 12 31
M  V30 34 1 13 32
M  V30 35 1 13 33
M  V30 36 1 14 34
M  V30 37 1 14 35
M  V30 38 1 15 36
M  V30 39 1 15 37
M  V30 40 1 18 38
M  V30 41 1 19 39
M  V30 42 1 22 40
M  V30 43 1 24 41
M  V30 END BOND
M  V30 END CTAB
M  END
>  <Dataset>  (502) 
ChEMBL_Kinases

>  <Ligand_Instance>  (502) 
nan

>  <PDB_ID>  (502) 
nan

>  <Standardized_SMILES>  (502) 
O=C1Nc2cncc(n2)OCCCCCOc2ccc(Cl)cc2N1

>  <Name>  (502) 
nan

>  <Pocket>  (502) 
nan

>  <ATP_Site>  (502) 
nan

>  <Peripheral>  (502) 
nan

>  <Num_H_Atoms_ProtBoundConf>  (502) 
nan

>  <Num_Resolved_Atoms>  (502) 
nan

>  <Num_Not_Resolved_Atoms>  (502) 
nan

$$$$
CHEMBL2235178
     RDKit          3D

  0  0  0  0  0  0  0  0  0  0999 V3000
M  V30 BEGIN CTAB
M  V30 COUNTS 34 36 0 0 0
M  V30 BEGIN ATOM
M  V30 1 C 0.025794 -6.060028 3.191044 0
M  V30 2 O 0.164987 -5.337179 1.994126 0
M  V30 3 C -0.123431 -4.003132 1.824236 0
M  V30 4 C 0.118868 -3.579013 0.521362 0
M  V30 5 C -0.119063 -2.248628 0.166095 0
M  V30 6 C -0.593207 -1.322119 1.071995 0
M  V30 7 C -0.834515 0.053343 0.687344 0
M  V30 8 C 0.113680 0.710690 -0.069958 0
M  V30 9 C -0.030210 1.997386 -0.473841 0
M  V30 10 C 0.998160 2.691616 -1.288173 0
M  V30 11 C 2.144175 2.161751 -1.707966 0
M  V30 12 C 3.036593 2.861695 -2.451119 0
M  V30 13 C 2.582800 4.250802 -2.726117 0
M  V30 14 S 0.908619 4.305844 -1.843836 0
M  V30 15 N -1.129752 2.692133 -0.140874 0
M  V30 16 C -2.063749 2.065637 0.597226 0
M  V30 17 O -3.105935 2.704540 0.920160 0
M  V30 18 C -1.968097 0.759527 1.034385 0
M  V30 19 C -2.980330 0.116719 1.820716 0
M  V30 20 N -3.810273 -0.403808 2.439971 0
M  V30 21 C -0.822215 -1.776785 2.353766 0
M  V30 22 C -0.596907 -3.083309 2.733911 0
M  V30 23 H 1.044507 -6.396474 3.537852 0
M  V30 24 H -0.497357 -5.499221 3.995348 0
M  V30 25 H -0.549657 -6.995193 3.051897 0
M  V30 26 H 0.489440 -4.198786 -0.284294 0
M  V30 27 H 0.061138 -1.901200 -0.832827 0
M  V30 28 H 1.009200 0.174186 -0.352123 0
M  V30 29 H 2.427407 1.122757 -1.471980 0
M  V30 30 H 3.991000 2.564633 -2.854685 0
M  V30 31 H 3.317219 4.954949 -3.385634 0
M  V30 32 H -1.260887 3.690076 -0.443585 0
M  V30 33 H -1.192062 -1.122098 3.124196 0
M  V30 34 H -0.757548 -3.494795 3.719629 0
M  V30 END ATOM
M  V30 BEGIN BOND
M  V30 1 1 1 2
M  V30 2 1 2 3
M  V30 3 2 3 4
M  V30 4 1 4 5
M  V30 5 2 5 6
M  V30 6 1 6 7
M  V30 7 1 7 8
M  V30 8 2 8 9
M  V30 9 1 9 10
M  V30 10 2 10 11
M  V30 11 1 11 12
M  V30 12 2 12 13
M  V30 13 1 13 14
M  V30 14 1 9 15
M  V30 15 1 15 16
M  V30 16 2 16 17
M  V30 17 1 16 18
M  V30 18 1 18 19
M  V30 19 3 19 20
M  V30 20 1 6 21
M  V30 21 2 21 22
M  V30 22 1 22 3
M  V30 23 2 18 7
M  V30 24 1 14 10
M  V30 25 1 1 23
M  V30 26 1 1 24
M  V30 27 1 1 25
M  V30 28 1 4 26
M  V30 29 1 5 27
M  V30 30 1 8 28
M  V30 31 1 11 29
M  V30 32 1 12 30
M  V30 33 1 13 31
M  V30 34 1 15 32
M  V30 35 1 21 33
M  V30 36 1 22 34
M  V30 END BOND
M  V30 END CTAB
M  END
>  <Dataset>  (503) 
ChEMBL_Kinases

>  <Ligand_Instance>  (503) 
nan

>  <PDB_ID>  (503) 
nan

>  <Standardized_SMILES>  (503) 
COc1ccc(-c2cc(-c3cccs3)[nH]c(=O)c2C#N)cc1

>  <Name>  (503) 
nan

>  <Pocket>  (503) 
nan

>  <ATP_Site>  (503) 
nan

>  <Peripheral>  (503) 
nan

>  <Num_H_Atoms_ProtBoundConf>  (503) 
nan

>  <Num_Resolved_Atoms>  (503) 
nan

>  <Num_Not_Resolved_Atoms>  (503) 
nan

$$$$
CHEMBL2235239
     RDKit          3D

  0  0  0  0  0  0  0  0  0  0999 V3000
M  V30 BEGIN CTAB
M  V30 COUNTS 36 38 0 0 0
M  V30 BEGIN ATOM
M  V30 1 C 0.039141 -5.494537 2.728248 0
M  V30 2 O -0.158142 -4.134552 2.491547 0
M  V30 3 C 0.249271 -3.433815 1.366961 0
M  V30 4 C 0.921807 -3.952013 0.280523 0
M  V30 5 C 1.264811 -3.136140 -0.770100 0
M  V30 6 O 1.932273 -3.653180 -1.847089 0
M  V30 7 C 0.935213 -1.797782 -0.736120 0
M  V30 8 C 1.263614 -0.947969 -1.773561 0
M  V30 9 O 1.882016 -1.372021 -2.796666 0
M  V30 10 C 0.901615 0.377550 -1.669833 0
M  V30 11 C 0.229286 0.889155 -0.580771 0
M  V30 12 C -0.172914 2.284868 -0.430094 0
M  V30 13 C -0.840233 2.632341 0.724917 0
M  V30 14 C -1.240803 3.954694 0.906120 0
M  V30 15 C -0.990054 4.931325 -0.036971 0
M  V30 16 C -0.313632 4.574962 -1.205837 0
M  V30 17 C 0.078617 3.257855 -1.373054 0
M  V30 18 O -0.064989 0.051582 0.383821 0
M  V30 19 C 0.255689 -1.226917 0.339877 0
M  V30 20 C -0.076071 -2.082936 1.386793 0
M  V30 21 O -0.753131 -1.493826 2.449539 0
M  V30 22 C 0.080312 -0.974142 3.484856 0
M  V30 23 H -0.834883 -5.974402 3.234241 0
M  V30 24 H 0.120213 -6.015610 1.756112 0
M  V30 25 H 0.962852 -5.727749 3.321430 0
M  V30 26 H 1.151574 -5.007786 0.313275 0
M  V30 27 H 2.921979 -3.565245 -2.012659 0
M  V30 28 H 1.154407 1.050568 -2.477097 0
M  V30 29 H -1.079446 1.932147 1.518180 0
M  V30 30 H -1.766206 4.247217 1.806807 0
M  V30 31 H -1.317354 5.955895 0.136790 0
M  V30 32 H -0.102981 5.324445 -1.965486 0
M  V30 33 H 0.599910 2.998317 -2.280784 0
M  V30 34 H -0.487153 -0.669040 4.367435 0
M  V30 35 H 0.653992 -0.132330 3.045731 0
M  V30 36 H 0.813064 -1.797800 3.707903 0
M  V30 END ATOM
M  V30 BEGIN BOND
M  V30 1 1 1 2
M  V30 2 1 2 3
M  V30 3 2 3 4
M  V30 4 1 4 5
M  V30 5 1 5 6
M  V30 6 2 5 7
M  V30 7 1 7 8
M  V30 8 2 8 9
M  V30 9 1 8 10
M  V30 10 2 10 11
M  V30 11 1 11 12
M  V30 12 2 12 13
M  V30 13 1 13 14
M  V30 14 2 14 15
M  V30 15 1 15 16
M  V30 16 2 16 17
M  V30 17 1 11 18
M  V30 18 1 18 19
M  V30 19 2 19 20
M  V30 20 1 20 21
M  V30 21 1 21 22
M  V30 22 1 20 3
M  V30 23 1 19 7
M  V30 24 1 17 12
M  V30 25 1 1 23
M  V30 26 1 1 24
M  V30 27 1 1 25
M  V30 28 1 4 26
M  V30 29 1 6 27
M  V30 30 1 10 28
M  V30 31 1 13 29
M  V30 32 1 14 30
M  V30 33 1 15 31
M  V30 34 1 16 32
M  V30 35 1 17 33
M  V30 36 1 22 34
M  V30 37 1 22 35
M  V30 38 1 22 36
M  V30 END BOND
M  V30 END CTAB
M  END
>  <Dataset>  (504) 
ChEMBL_Kinases

>  <Ligand_Instance>  (504) 
nan

>  <PDB_ID>  (504) 
nan

>  <Standardized_SMILES>  (504) 
COc1cc(O)c2c(=O)cc(-c3ccccc3)oc2c1OC

>  <Name>  (504) 
Moslosooflavone

>  <Pocket>  (504) 
nan

>  <ATP_Site>  (504) 
nan

>  <Peripheral>  (504) 
nan

>  <Num_H_Atoms_ProtBoundConf>  (504) 
nan

>  <Num_Resolved_Atoms>  (504) 
nan

>  <Num_Not_Resolved_Atoms>  (504) 
nan

$$$$
CHEMBL223672
     RDKit          3D

  0  0  0  0  0  0  0  0  0  0999 V3000
M  V30 BEGIN CTAB
M  V30 COUNTS 47 49 0 0 0
M  V30 BEGIN ATOM
M  V30 1 C -1.135105 -2.754955 -5.484785 0
M  V30 2 N -1.183530 -1.397917 -5.031717 0
M  V30 3 C -0.765408 -0.952381 -3.734594 0
M  V30 4 C -0.263282 -1.792258 -2.763516 0
M  V30 5 C 0.152092 -1.390317 -1.484217 0
M  V30 6 C 0.016438 -0.012133 -1.243110 0
M  V30 7 C -0.478390 0.812983 -2.206104 0
M  V30 8 C -0.876026 0.398357 -3.443759 0
M  V30 9 Cl -1.503503 1.514424 -4.631440 0
M  V30 10 N 0.330465 0.642121 -0.041218 0
M  V30 11 C -0.118021 1.267899 1.077054 0
M  V30 12 O -1.304402 1.297889 0.955679 0
M  V30 13 N -0.570938 1.900091 2.206814 0
M  V30 14 C 0.137558 2.344197 3.336404 0
M  V30 15 C 0.493989 3.538208 3.903952 0
M  V30 16 N 1.220354 3.494842 5.035484 0
M  V30 17 C 1.540891 2.289445 5.523593 0
M  V30 18 C 2.314949 2.217552 6.729872 0
M  V30 19 N 2.951048 2.172273 7.693168 0
M  V30 20 C 1.201646 1.081611 4.983554 0
M  V30 21 N 0.489785 1.180738 3.876062 0
M  V30 22 O 1.487728 -0.234379 5.415017 0
M  V30 23 C 0.740168 -1.325036 4.887165 0
M  V30 24 C 0.856753 -1.493886 3.407587 0
M  V30 25 C -0.135064 -2.498643 2.911499 0
M  V30 26 C -0.313263 -2.473530 1.425627 0
M  V30 27 C 0.846022 -2.654855 0.557903 0
M  V30 28 O 0.593431 -2.488225 -0.801758 0
M  V30 29 H -1.307346 -3.519564 -4.700446 0
M  V30 30 H -0.169028 -3.019821 -5.980380 0
M  V30 31 H -1.920441 -2.946774 -6.268288 0
M  V30 32 H -1.555092 -0.707692 -5.717975 0
M  V30 33 H -0.232819 -2.820333 -3.130900 0
M  V30 34 H -0.504349 1.838838 -1.890747 0
M  V30 35 H 1.321275 0.602036 -0.205991 0
M  V30 36 H -1.494532 2.183419 2.580076 0
M  V30 37 H 0.034859 4.222029 3.206782 0
M  V30 38 H 1.042322 -2.233946 5.449871 0
M  V30 39 H -0.326625 -1.170464 5.136321 0
M  V30 40 H 0.928191 -0.581155 2.888690 0
M  V30 41 H 1.893056 -2.023595 3.292462 0
M  V30 42 H -1.094749 -2.331107 3.427557 0
M  V30 43 H 0.214582 -3.500193 3.208410 0
M  V30 44 H -0.855256 -1.547090 1.152065 0
M  V30 45 H -1.052266 -3.286812 1.139663 0
M  V30 46 H 1.743997 -2.060905 0.797990 0
M  V30 47 H 1.197920 -3.725258 0.676221 0
M  V30 END ATOM
M  V30 BEGIN BOND
M  V30 1 1 1 2
M  V30 2 1 2 3
M  V30 3 2 3 4
M  V30 4 1 4 5
M  V30 5 2 5 6
M  V30 6 1 6 7
M  V30 7 2 7 8
M  V30 8 1 8 9
M  V30 9 1 6 10
M  V30 10 1 10 11
M  V30 11 2 11 12
M  V30 12 1 11 13
M  V30 13 1 13 14
M  V30 14 1 14 15
M  V30 15 2 15 16
M  V30 16 1 16 17
M  V30 17 1 17 18
M  V30 18 3 18 19
M  V30 19 2 17 20
M  V30 20 1 20 21
M  V30 21 1 20 22
M  V30 22 1 22 23
M  V30 23 1 23 24
M  V30 24 1 24 25
M  V30 25 1 25 26
M  V30 26 1 26 27
M  V30 27 1 27 28
M  V30 28 1 8 3
M  V30 29 2 21 14
M  V30 30 1 28 5
M  V30 31 1 1 29
M  V30 32 1 1 30
M  V30 33 1 1 31
M  V30 34 1 2 32
M  V30 35 1 4 33
M  V30 36 1 7 34
M  V30 37 1 10 35
M  V30 38 1 13 36
M  V30 39 1 15 37
M  V30 40 1 23 38
M  V30 41 1 23 39
M  V30 42 1 24 40
M  V30 43 1 24 41
M  V30 44 1 25 42
M  V30 45 1 25 43
M  V30 46 1 26 44
M  V30 47 1 26 45
M  V30 48 1 27 46
M  V30 49 1 27 47
M  V30 END BOND
M  V30 END CTAB
M  END
>  <Dataset>  (505) 
ChEMBL_Kinases

>  <Ligand_Instance>  (505) 
nan

>  <PDB_ID>  (505) 
nan

>  <Standardized_SMILES>  (505) 
CNc1cc2c(cc1Cl)NC(=O)Nc1cnc(C#N)c(n1)OCCCCCO2

>  <Name>  (505) 
nan

>  <Pocket>  (505) 
nan

>  <ATP_Site>  (505) 
nan

>  <Peripheral>  (505) 
nan

>  <Num_H_Atoms_ProtBoundConf>  (505) 
nan

>  <Num_Resolved_Atoms>  (505) 
nan

>  <Num_Not_Resolved_Atoms>  (505) 
nan

$$$$
CHEMBL223565
     RDKit          3D

  0  0  0  0  0  0  0  0  0  0999 V3000
M  V30 BEGIN CTAB
M  V30 COUNTS 54 57 0 0 0
M  V30 BEGIN ATOM
M  V30 1 N 4.305025 -2.280383 5.853524 0
M  V30 2 C 4.403151 -2.262124 4.708065 0
M  V30 3 C 4.520227 -2.262933 3.296218 0
M  V30 4 N 5.311352 -2.981835 2.490750 0
M  V30 5 C 5.200704 -2.753622 1.147259 0
M  V30 6 C 4.335685 -1.844964 0.643887 0
M  V30 7 N 3.498277 -1.078246 1.422810 0
M  V30 8 C 3.652377 -1.349436 2.747895 0
M  V30 9 O 2.712830 -0.452604 3.118952 0
M  V30 10 C 2.965175 0.875372 3.463194 0
M  V30 11 C 1.618231 1.513284 3.757659 0
M  V30 12 C 0.745963 1.334495 2.540805 0
M  V30 13 C 1.387593 1.997598 1.341290 0
M  V30 14 C 0.448280 1.679155 0.148562 0
M  V30 15 O 0.468449 0.280244 0.067406 0
M  V30 16 C -0.195802 -0.475989 -0.841503 0
M  V30 17 C -1.551857 -0.642722 -0.755677 0
M  V30 18 C -2.298066 -1.396441 -1.638596 0
M  V30 19 N -3.702086 -1.538594 -1.499748 0
M  V30 20 C -4.490512 -0.925155 -0.457305 0
M  V30 21 C -5.915553 -1.221311 -0.544111 0
M  V30 22 C -6.561352 -2.226239 0.004622 0
M  V30 23 C -7.606673 -2.931533 0.282277 0
M  V30 24 S -8.568691 -1.634564 -0.751803 0
M  V30 25 C -7.115844 -0.573367 -1.190902 0
M  V30 26 C -1.673559 -2.047497 -2.703674 0
M  V30 27 Cl -2.654609 -2.982851 -3.802313 0
M  V30 28 C -0.320322 -1.888621 -2.798615 0
M  V30 29 C 0.412760 -1.134210 -1.909495 0
M  V30 30 N 1.813127 -1.174091 -2.270575 0
M  V30 31 C 3.050667 -1.381407 -1.593019 0
M  V30 32 O 2.122518 -1.457612 -0.730270 0
M  V30 33 N 4.187550 -1.608968 -0.751641 0
M  V30 34 H 5.780793 -3.264278 0.428053 0
M  V30 35 H 3.583154 0.957181 4.399343 0
M  V30 36 H 3.468734 1.434600 2.683138 0
M  V30 37 H 1.186609 1.037679 4.654523 0
M  V30 38 H 1.757537 2.602782 3.946450 0
M  V30 39 H -0.215274 1.862675 2.780222 0
M  V30 40 H 0.466299 0.310253 2.318522 0
M  V30 41 H 1.449915 3.079421 1.531012 0
M  V30 42 H 2.349613 1.541923 1.074394 0
M  V30 43 H 0.828337 2.131672 -0.769224 0
M  V30 44 H -0.521601 2.103560 0.445589 0
M  V30 45 H -2.056825 -0.143882 0.074501 0
M  V30 46 H -4.243604 -2.120520 -2.171726 0
M  V30 47 H -4.061591 -1.280510 0.526725 0
M  V30 48 H -4.336589 0.179562 -0.415407 0
M  V30 49 H -5.968203 -2.970356 0.611617 0
M  V30 50 H -8.485097 -3.495290 0.496382 0
M  V30 51 H -6.830286 0.356604 -1.752347 0
M  V30 52 H 0.079798 -2.426856 -3.663117 0
M  V30 53 H 2.089828 -1.011680 -3.273769 0
M  V30 54 H 5.064397 -1.580819 -1.312106 0
M  V30 END ATOM
M  V30 BEGIN BOND
M  V30 1 3 1 2
M  V30 2 1 2 3
M  V30 3 2 3 4
M  V30 4 1 4 5
M  V30 5 2 5 6
M  V30 6 1 6 7
M  V30 7 2 7 8
M  V30 8 1 8 9
M  V30 9 1 9 10
M  V30 10 1 10 11
M  V30 11 1 11 12
M  V30 12 1 12 13
M  V30 13 1 13 14
M  V30 14 1 14 15
M  V30 15 1 15 16
M  V30 16 2 16 17
M  V30 17 1 17 18
M  V30 18 1 18 19
M  V30 19 1 19 20
M  V30 20 1 20 21
M  V30 21 1 21 22
M  V30 22 2 22 23
M  V30 23 1 23 24
M  V30 24 1 24 25
M  V30 25 2 18 26
M  V30 26 1 26 27
M  V30 27 1 26 28
M  V30 28 2 28 29
M  V30 29 1 29 30
M  V30 30 1 30 31
M  V30 31 2 31 32
M  V30 32 1 31 33
M  V30 33 1 8 3
M  V30 34 1 29 16
M  V30 35 1 33 6
M  V30 36 2 25 21
M  V30 37 1 5 34
M  V30 38 1 10 35
M  V30 39 1 10 36
M  V30 40 1 11 37
M  V30 41 1 11 38
M  V30 42 1 12 39
M  V30 43 1 12 40
M  V30 44 1 13 41
M  V30 45 1 13 42
M  V30 46 1 14 43
M  V30 47 1 14 44
M  V30 48 1 17 45
M  V30 49 1 19 46
M  V30 50 1 20 47
M  V30 51 1 20 48
M  V30 52 1 22 49
M  V30 53 1 23 50
M  V30 54 1 25 51
M  V30 55 1 28 52
M  V30 56 1 30 53
M  V30 57 1 33 54
M  V30 END BOND
M  V30 END CTAB
M  END
>  <Dataset>  (506) 
ChEMBL_Kinases

>  <Ligand_Instance>  (506) 
nan

>  <PDB_ID>  (506) 
nan

>  <Standardized_SMILES>  (506) 
N#Cc1ncc2nc1OCCCCCOc1cc(NCc3ccsc3)c(Cl)cc1NC(=O)N2

>  <Name>  (506) 
nan

>  <Pocket>  (506) 
nan

>  <ATP_Site>  (506) 
nan

>  <Peripheral>  (506) 
nan

>  <Num_H_Atoms_ProtBoundConf>  (506) 
nan

>  <Num_Resolved_Atoms>  (506) 
nan

>  <Num_Not_Resolved_Atoms>  (506) 
nan

$$$$
CHEMBL2235667
     RDKit          3D

  0  0  0  0  0  0  0  0  0  0999 V3000
M  V30 BEGIN CTAB
M  V30 COUNTS 42 45 0 0 0
M  V30 BEGIN ATOM
M  V30 1 C 2.456247 -3.230696 -0.293039 0
M  V30 2 N 2.331120 -1.788228 -0.425189 0
M  V30 3 C 2.394149 -1.426353 -1.823162 0
M  V30 4 C 2.333351 0.051792 -1.977540 0
M  V30 5 C 1.255865 0.888724 -2.134258 0
M  V30 6 C 1.496338 2.243153 -2.255194 0
M  V30 7 C 2.758870 2.762669 -2.223827 0
M  V30 8 F 2.933868 4.108648 -2.347831 0
M  V30 9 N 3.798864 1.936808 -2.071510 0
M  V30 10 C 3.603977 0.597542 -1.947892 0
M  V30 11 C 2.182489 -0.954189 0.721880 0
M  V30 12 C 3.134706 -0.185565 1.363743 0
M  V30 13 C 2.772816 0.542603 2.479275 0
M  V30 14 C 1.495443 0.509305 2.948377 0
M  V30 15 N 0.887685 1.117238 4.006556 0
M  V30 16 C -0.376404 0.715146 3.981402 0
M  V30 17 C -0.578282 -0.141376 2.918301 0
M  V30 18 C -1.834537 -0.797577 2.564309 0
M  V30 19 C -2.419478 -0.925946 1.319857 0
M  V30 20 C -3.625800 -1.595207 1.205578 0
M  V30 21 C -4.259377 -2.143077 2.321291 0
M  V30 22 C -5.514080 -2.837762 2.183758 0
M  V30 23 N -6.526982 -3.406408 2.079089 0
M  V30 24 C -3.688374 -2.027564 3.593589 0
M  V30 25 C -2.478172 -1.349489 3.675458 0
M  V30 26 N 0.620546 -0.259482 2.275942 0
M  V30 27 N 0.927677 -0.968040 1.207753 0
M  V30 28 H 3.273630 -3.657267 -0.876891 0
M  V30 29 H 2.600650 -3.536055 0.769106 0
M  V30 30 H 1.457458 -3.631444 -0.570292 0
M  V30 31 H 1.429479 -1.798279 -2.285626 0
M  V30 32 H 3.222772 -1.878825 -2.372778 0
M  V30 33 H 0.320819 0.361934 -2.145908 0
M  V30 34 H 0.615305 2.858067 -2.377142 0
M  V30 35 H 4.571258 0.091910 -1.833273 0
M  V30 36 H 4.110087 -0.242260 0.900036 0
M  V30 37 H 3.560587 1.127174 2.940271 0
M  V30 38 H -1.181273 0.981448 4.662791 0
M  V30 39 H -1.861926 -0.477224 0.530444 0
M  V30 40 H -4.056790 -1.676308 0.217393 0
M  V30 41 H -4.186228 -2.453597 4.440085 0
M  V30 42 H -2.093460 -1.298487 4.686783 0
M  V30 END ATOM
M  V30 BEGIN BOND
M  V30 1 1 1 2
M  V30 2 1 2 3
M  V30 3 1 3 4
M  V30 4 2 4 5
M  V30 5 1 5 6
M  V30 6 2 6 7
M  V30 7 1 7 8
M  V30 8 1 7 9
M  V30 9 2 9 10
M  V30 10 1 2 11
M  V30 11 1 11 12
M  V30 12 2 12 13
M  V30 13 1 13 14
M  V30 14 2 14 15
M  V30 15 1 15 16
M  V30 16 2 16 17
M  V30 17 1 17 18
M  V30 18 2 18 19
M  V30 19 1 19 20
M  V30 20 2 20 21
M  V30 21 1 21 22
M  V30 22 3 22 23
M  V30 23 1 21 24
M  V30 24 2 24 25
M  V30 25 1 17 26
M  V30 26 1 26 27
M  V30 27 1 10 4
M  V30 28 2 27 11
M  V30 29 1 26 14
M  V30 30 1 25 18
M  V30 31 1 1 28
M  V30 32 1 1 29
M  V30 33 1 1 30
M  V30 34 1 3 31
M  V30 35 1 3 32
M  V30 36 1 5 33
M  V30 37 1 6 34
M  V30 38 1 10 35
M  V30 39 1 12 36
M  V30 40 1 13 37
M  V30 41 1 16 38
M  V30 42 1 19 39
M  V30 43 1 20 40
M  V30 44 1 24 41
M  V30 45 1 25 42
M  V30 END BOND
M  V30 END CTAB
M  END
>  <Dataset>  (507) 
ChEMBL_Kinases

>  <Ligand_Instance>  (507) 
nan

>  <PDB_ID>  (507) 
nan

>  <Standardized_SMILES>  (507) 
CN(Cc1ccc(F)nc1)c1ccc2ncc(-c3ccc(C#N)cc3)n2n1

>  <Name>  (507) 
nan

>  <Pocket>  (507) 
nan

>  <ATP_Site>  (507) 
nan

>  <Peripheral>  (507) 
nan

>  <Num_H_Atoms_ProtBoundConf>  (507) 
nan

>  <Num_Resolved_Atoms>  (507) 
nan

>  <Num_Not_Resolved_Atoms>  (507) 
nan

$$$$
CHEMBL2235668
     RDKit          3D

  0  0  0  0  0  0  0  0  0  0999 V3000
M  V30 BEGIN CTAB
M  V30 COUNTS 45 48 0 0 0
M  V30 BEGIN ATOM
M  V30 1 C -0.913506 1.444684 -2.410646 0
M  V30 2 N 0.321416 1.284317 -1.657334 0
M  V30 3 C 1.505228 0.967717 -2.391317 0
M  V30 4 C 2.725616 0.816655 -1.571051 0
M  V30 5 C 3.599905 1.847088 -1.255641 0
M  V30 6 C 4.715448 1.583308 -0.475922 0
M  V30 7 C 4.946280 0.293689 -0.019406 0
M  V30 8 F 6.026323 0.025885 0.738448 0
M  V30 9 N 4.096228 -0.715394 -0.324353 0
M  V30 10 C 3.020576 -0.449539 -1.078944 0
M  V30 11 C -0.046910 1.510584 -0.286013 0
M  V30 12 C 0.001415 2.788936 0.248301 0
M  V30 13 C -0.338055 3.070666 1.553055 0
M  V30 14 C -0.742162 1.995246 2.335665 0
M  V30 15 N -1.123999 1.996759 3.630840 0
M  V30 16 C -1.424113 0.716237 3.949078 0
M  V30 17 C -1.208272 -0.029106 2.810491 0
M  V30 18 C -1.430511 -1.470080 2.777694 0
M  V30 19 C -0.435585 -2.202934 2.164323 0
M  V30 20 C -0.513153 -3.582773 2.060232 0
M  V30 21 C -1.617683 -4.215726 2.588316 0
M  V30 22 C -1.874476 -5.653058 2.574829 0
M  V30 23 N -0.864813 -6.437325 1.947888 0
M  V30 24 O -2.865942 -6.273935 3.043525 0
M  V30 25 C -2.620352 -3.492288 3.204886 0
M  V30 26 C -2.547587 -2.117430 3.310983 0
M  V30 27 N -0.784635 0.755544 1.802712 0
M  V30 28 N -0.450497 0.533773 0.548757 0
M  V30 29 H -1.314632 2.478919 -2.260082 0
M  V30 30 H -1.685660 0.716598 -2.054747 0
M  V30 31 H -0.756629 1.356914 -3.509753 0
M  V30 32 H 1.698466 1.824959 -3.094056 0
M  V30 33 H 1.323618 0.088610 -3.038079 0
M  V30 34 H 3.371782 2.827919 -1.636633 0
M  V30 35 H 5.392392 2.377716 -0.230906 0
M  V30 36 H 2.396801 -1.329643 -1.269341 0
M  V30 37 H 0.321798 3.615926 -0.386205 0
M  V30 38 H -0.282033 4.095454 1.923066 0
M  V30 39 H -1.759452 0.467306 4.949728 0
M  V30 40 H 0.436781 -1.751409 1.742241 0
M  V30 41 H 0.226803 -4.227289 1.593516 0
M  V30 42 H -0.311001 -6.816469 2.759159 0
M  V30 43 H -0.561241 -6.707536 0.980437 0
M  V30 44 H -3.525115 -3.895020 3.649609 0
M  V30 45 H -3.300029 -1.487459 3.782800 0
M  V30 END ATOM
M  V30 BEGIN BOND
M  V30 1 1 1 2
M  V30 2 1 2 3
M  V30 3 1 3 4
M  V30 4 2 4 5
M  V30 5 1 5 6
M  V30 6 2 6 7
M  V30 7 1 7 8
M  V30 8 1 7 9
M  V30 9 2 9 10
M  V30 10 1 2 11
M  V30 11 1 11 12
M  V30 12 2 12 13
M  V30 13 1 13 14
M  V30 14 2 14 15
M  V30 15 1 15 16
M  V30 16 2 16 17
M  V30 17 1 17 18
M  V30 18 2 18 19
M  V30 19 1 19 20
M  V30 20 2 20 21
M  V30 21 1 21 22
M  V30 22 1 22 23
M  V30 23 2 22 24
M  V30 24 1 21 25
M  V30 25 2 25 26
M  V30 26 1 17 27
M  V30 27 1 27 28
M  V30 28 1 10 4
M  V30 29 2 28 11
M  V30 30 1 27 14
M  V30 31 1 26 18
M  V30 32 1 1 29
M  V30 33 1 1 30
M  V30 34 1 1 31
M  V30 35 1 3 32
M  V30 36 1 3 33
M  V30 37 1 5 34
M  V30 38 1 6 35
M  V30 39 1 10 36
M  V30 40 1 12 37
M  V30 41 1 13 38
M  V30 42 1 16 39
M  V30 43 1 19 40
M  V30 44 1 20 41
M  V30 45 1 23 42
M  V30 46 1 23 43
M  V30 47 1 25 44
M  V30 48 1 26 45
M  V30 END BOND
M  V30 END CTAB
M  END
>  <Dataset>  (508) 
ChEMBL_Kinases

>  <Ligand_Instance>  (508) 
nan

>  <PDB_ID>  (508) 
nan

>  <Standardized_SMILES>  (508) 
CN(Cc1ccc(F)nc1)c1ccc2ncc(-c3ccc(C(N)=O)cc3)n2n1

>  <Name>  (508) 
nan

>  <Pocket>  (508) 
nan

>  <ATP_Site>  (508) 
nan

>  <Peripheral>  (508) 
nan

>  <Num_H_Atoms_ProtBoundConf>  (508) 
nan

>  <Num_Resolved_Atoms>  (508) 
nan

>  <Num_Not_Resolved_Atoms>  (508) 
nan

$$$$
CHEMBL223570
     RDKit          3D

  0  0  0  0  0  0  0  0  0  0999 V3000
M  V30 BEGIN CTAB
M  V30 COUNTS 65 68 0 0 0
M  V30 BEGIN ATOM
M  V30 1 C 10.288245 -2.719497 5.283032 0
M  V30 2 C 9.701305 -1.757160 4.863447 0
M  V30 3 C 8.943552 -0.524798 4.354466 0
M  V30 4 C 9.282226 -0.256384 3.059823 0
M  V30 5 C 8.263478 0.661838 2.621639 0
M  V30 6 C 7.243623 1.085547 3.424358 0
M  V30 7 C 6.089298 1.720101 2.949675 0
M  V30 8 C 5.077852 2.251974 2.548863 0
M  V30 9 C 3.796477 2.890291 2.049523 0
M  V30 10 C 2.868803 2.172093 2.788034 0
M  V30 11 C 1.485883 1.993269 2.853680 0
M  V30 12 C 1.190590 2.966415 1.686700 0
M  V30 13 C -0.157388 2.859986 1.174738 0
M  V30 14 C -1.267966 2.748039 0.755779 0
M  V30 15 C -2.620903 2.582634 0.249148 0
M  V30 16 C -3.747296 3.308556 0.329097 0
M  V30 17 C -4.959681 2.767747 -0.043770 0
M  V30 18 C -5.064982 1.497727 -0.499280 0
M  V30 19 C -6.246949 0.675036 -0.829446 0
M  V30 20 O -7.453455 0.878951 -0.897060 0
M  V30 21 O -6.461915 -0.506081 -1.142736 0
M  V30 22 C -6.724700 -1.795701 -1.487131 0
M  V30 23 C -5.389830 -2.537448 -1.668731 0
M  V30 24 C -4.686365 -2.846251 -0.405517 0
M  V30 25 O -5.568908 -3.607315 0.382528 0
M  V30 26 C -5.441076 -3.845963 -2.432220 0
M  V30 27 C -3.930608 -4.151743 -2.616652 0
M  V30 28 C -2.619123 -4.149054 -2.892284 0
M  V30 29 C -1.286102 -3.647290 -3.384517 0
M  V30 30 C -2.429520 -5.557625 -2.428283 0
M  V30 31 C -3.821731 -2.738937 -3.296959 0
M  V30 32 O -3.345850 -1.906605 -4.174998 0
M  V30 33 O -4.674716 -1.785039 -2.663017 0
M  V30 34 C -3.909296 0.799907 -0.576807 0
M  V30 35 C -2.652435 1.228402 -0.238518 0
M  V30 36 C 2.082059 3.671829 0.974586 0
M  V30 37 C 3.469060 3.810315 0.966469 0
M  V30 38 C 7.069809 0.690679 4.777243 0
M  V30 39 C 8.044132 -0.226394 5.290509 0
M  V30 40 H 10.804655 -3.577940 5.636094 0
M  V30 41 H 10.082212 -0.605379 2.483530 0
M  V30 42 H 8.342476 1.023857 1.582530 0
M  V30 43 H 2.970597 1.444881 3.676503 0
M  V30 44 H 0.638772 1.580465 3.256796 0
M  V30 45 H -3.551211 4.282970 0.687912 0
M  V30 46 H -5.869637 3.280958 -0.004049 0
M  V30 47 H -7.405168 -1.971194 -2.325266 0
M  V30 48 H -7.183638 -2.313934 -0.576169 0
M  V30 49 H -4.207683 -2.065022 0.158954 0
M  V30 50 H -3.853509 -3.588236 -0.645674 0
M  V30 51 H -5.137524 -4.073261 1.124619 0
M  V30 52 H -5.949944 -3.838932 -3.354822 0
M  V30 53 H -5.771025 -4.688351 -1.768547 0
M  V30 54 H -0.489901 -3.981916 -2.750083 0
M  V30 55 H -1.278635 -2.522412 -3.362053 0
M  V30 56 H -1.156363 -4.013351 -4.424885 0
M  V30 57 H -1.371370 -5.862102 -2.631290 0
M  V30 58 H -2.602472 -5.695943 -1.345297 0
M  V30 59 H -3.051909 -6.225606 -3.053524 0
M  V30 60 H -3.872472 -0.194641 -0.953777 0
M  V30 61 H -1.805106 0.519367 -0.375857 0
M  V30 62 H 1.903139 4.375762 0.156020 0
M  V30 63 H 4.482141 3.907871 0.964697 0
M  V30 64 H 6.299548 1.028476 5.433910 0
M  V30 65 H 7.917371 -0.536243 6.309111 0
M  V30 END ATOM
M  V30 BEGIN BOND
M  V30 1 3 1 2
M  V30 2 1 2 3
M  V30 3 2 3 4
M  V30 4 1 4 5
M  V30 5 2 5 6
M  V30 6 1 6 7
M  V30 7 3 7 8
M  V30 8 1 8 9
M  V30 9 2 9 10
M  V30 10 1 10 11
M  V30 11 2 11 12
M  V30 12 1 12 13
M  V30 13 3 13 14
M  V30 14 1 14 15
M  V30 15 2 15 16
M  V30 16 1 16 17
M  V30 17 2 17 18
M  V30 18 1 18 19
M  V30 19 2 19 20
M  V30 20 1 19 21
M  V30 21 1 21 22
M  V30 22 1 22 23
M  V30 23 1 23 24
M  V30 24 1 24 25
M  V30 25 1 23 26
M  V30 26 1 26 27
M  V30 27 2 27 28 CFG=2
M  V30 28 1 28 29
M  V30 29 1 28 30
M  V30 30 1 27 31
M  V30 31 2 31 32
M  V30 32 1 31 33
M  V30 33 1 18 34
M  V30 34 2 34 35
M  V30 35 1 12 36
M  V30 36 2 36 37
M  V30 37 1 6 38
M  V30 38 2 38 39
M  V30 39 1 39 3
M  V30 40 1 37 9
M  V30 41 1 35 15
M  V30 42 1 33 23
M  V30 43 1 1 40
M  V30 44 1 4 41
M  V30 45 1 5 42
M  V30 46 1 10 43
M  V30 47 1 11 44
M  V30 48 1 16 45
M  V30 49 1 17 46
M  V30 50 1 22 47
M  V30 51 1 22 48
M  V30 52 1 24 49
M  V30 53 1 24 50
M  V30 54 1 25 51
M  V30 55 1 26 52
M  V30 56 1 26 53
M  V30 57 1 29 54
M  V30 58 1 29 55
M  V30 59 1 29 56
M  V30 60 1 30 57
M  V30 61 1 30 58
M  V30 62 1 30 59
M  V30 63 1 34 60
M  V30 64 1 35 61
M  V30 65 1 36 62
M  V30 66 1 37 63
M  V30 67 1 38 64
M  V30 68 1 39 65
M  V30 END BOND
M  V30 END CTAB
M  END
>  <Dataset>  (509) 
ChEMBL_Kinases

>  <Ligand_Instance>  (509) 
nan

>  <PDB_ID>  (509) 
nan

>  <Standardized_SMILES>  (509) 
C#Cc1ccc(C#Cc2ccc(C#Cc3ccc(C(=O)OCC4(CO)CC(=C(C)C)C(=O)O4)cc3)cc2)cc1

>  <Name>  (509) 
nan

>  <Pocket>  (509) 
nan

>  <ATP_Site>  (509) 
nan

>  <Peripheral>  (509) 
nan

>  <Num_H_Atoms_ProtBoundConf>  (509) 
nan

>  <Num_Resolved_Atoms>  (509) 
nan

>  <Num_Not_Resolved_Atoms>  (509) 
nan

$$$$
CHEMBL223589
     RDKit          3D

  0  0  0  0  0  0  0  0  0  0999 V3000
M  V30 BEGIN CTAB
M  V30 COUNTS 67 70 0 0 0
M  V30 BEGIN ATOM
M  V30 1 N 5.798607 -2.822968 1.482280 0
M  V30 2 C 4.999787 -2.263506 2.105312 0
M  V30 3 C 4.021342 -1.593476 2.881318 0
M  V30 4 N 3.570340 -1.952756 4.090007 0
M  V30 5 C 2.629485 -1.187934 4.672349 0
M  V30 6 C 2.166337 -0.093613 4.041904 0
M  V30 7 N 2.608380 0.297714 2.807970 0
M  V30 8 C 3.542491 -0.478244 2.247612 0
M  V30 9 O 3.752808 0.187008 1.038201 0
M  V30 10 C 2.749896 0.079762 0.006549 0
M  V30 11 C 3.099230 0.845524 -1.208841 0
M  V30 12 C 3.343789 2.275181 -1.213847 0
M  V30 13 C 2.312691 3.295186 -1.015111 0
M  V30 14 C 1.659396 3.412352 0.298868 0
M  V30 15 O 0.839586 2.505141 0.842155 0
M  V30 16 C -0.355698 2.023712 0.469058 0
M  V30 17 C -0.848049 1.699133 -0.749263 0
M  V30 18 C -2.105921 1.225123 -0.889132 0
M  V30 19 N -2.706825 0.813145 -2.112194 0
M  V30 20 C -2.328722 -0.547769 -2.140838 0
M  V30 21 O -1.600869 -0.883547 -1.126250 0
M  V30 22 C -2.307647 -1.908803 -2.738194 0
M  V30 23 C -1.286774 -2.784363 -2.052701 0
M  V30 24 N -1.402847 -2.944151 -0.669748 0
M  V30 25 C -2.527269 -3.654889 -0.163106 0
M  V30 26 C -2.642671 -5.082890 -0.585014 0
M  V30 27 C -2.998184 -5.930716 0.607620 0
M  V30 28 C -3.237757 -4.943340 1.746579 0
M  V30 29 C -2.453139 -3.731136 1.368420 0
M  V30 30 C -3.002308 1.027394 0.176003 0
M  V30 31 Cl -4.636238 0.415787 -0.012170 0
M  V30 32 C -2.555267 1.343210 1.464930 0
M  V30 33 C -1.256153 1.822807 1.540245 0
M  V30 34 N -0.946194 2.039408 2.955561 0
M  V30 35 C 0.108618 1.435718 3.700323 0
M  V30 36 O 0.226618 0.936091 2.564140 0
M  V30 37 N 1.162022 0.836997 4.456055 0
M  V30 38 H 2.126491 -1.280463 5.611111 0
M  V30 39 H 2.777222 -1.041762 -0.297969 0
M  V30 40 H 1.790287 0.190000 0.466188 0
M  V30 41 H 2.264978 0.609181 -1.970076 0
M  V30 42 H 3.964256 0.276524 -1.740315 0
M  V30 43 H 4.197403 2.496662 -0.468158 0
M  V30 44 H 3.814973 2.542378 -2.250512 0
M  V30 45 H 2.857975 4.330254 -1.136119 0
M  V30 46 H 1.540821 3.293645 -1.851305 0
M  V30 47 H 2.526184 3.689852 1.021659 0
M  V30 48 H 1.139794 4.470404 0.259622 0
M  V30 49 H -0.227741 1.816656 -1.614725 0
M  V30 50 H -3.224334 0.820462 -2.990189 0
M  V30 51 H -3.310122 -2.353761 -2.601806 0
M  V30 52 H -2.013868 -1.880649 -3.809093 0
M  V30 53 H -1.340203 -3.797013 -2.535007 0
M  V30 54 H -0.247566 -2.423180 -2.301940 0
M  V30 55 H -0.518840 -3.340963 -0.282479 0
M  V30 56 H -3.479324 -3.100615 -0.404336 0
M  V30 57 H -1.704156 -5.429547 -1.067404 0
M  V30 58 H -3.507472 -5.173762 -1.321704 0
M  V30 59 H -2.116433 -6.560822 0.850286 0
M  V30 60 H -3.916722 -6.528571 0.438705 0
M  V30 61 H -4.317339 -4.735747 1.851482 0
M  V30 62 H -2.781888 -5.404223 2.663676 0
M  V30 63 H -2.804701 -2.803633 1.843392 0
M  V30 64 H -1.368956 -3.889069 1.618849 0
M  V30 65 H -3.223904 1.205653 2.290285 0
M  V30 66 H -1.551443 2.698078 3.490574 0
M  V30 67 H 1.272497 1.091529 5.455033 0
M  V30 END ATOM
M  V30 BEGIN BOND
M  V30 1 3 1 2
M  V30 2 1 2 3
M  V30 3 2 3 4
M  V30 4 1 4 5
M  V30 5 2 5 6
M  V30 6 1 6 7
M  V30 7 2 7 8
M  V30 8 1 8 9
M  V30 9 1 9 10
M  V30 10 1 10 11
M  V30 11 1 11 12
M  V30 12 1 12 13
M  V30 13 1 13 14
M  V30 14 1 14 15
M  V30 15 1 15 16
M  V30 16 2 16 17
M  V30 17 1 17 18
M  V30 18 1 18 19
M  V30 19 1 19 20
M  V30 20 2 20 21
M  V30 21 1 20 22
M  V30 22 1 22 23
M  V30 23 1 23 24
M  V30 24 1 24 25
M  V30 25 1 25 26
M  V30 26 1 26 27
M  V30 27 1 27 28
M  V30 28 1 28 29
M  V30 29 2 18 30
M  V30 30 1 30 31
M  V30 31 1 30 32
M  V30 32 2 32 33
M  V30 33 1 33 34
M  V30 34 1 34 35
M  V30 35 2 35 36
M  V30 36 1 35 37
M  V30 37 1 8 3
M  V30 38 1 33 16
M  V30 39 1 37 6
M  V30 40 1 29 25
M  V30 41 1 5 38
M  V30 42 1 10 39
M  V30 43 1 10 40
M  V30 44 1 11 41
M  V30 45 1 11 42
M  V30 46 1 12 43
M  V30 47 1 12 44
M  V30 48 1 13 45
M  V30 49 1 13 46
M  V30 50 1 14 47
M  V30 51 1 14 48
M  V30 52 1 17 49
M  V30 53 1 19 50
M  V30 54 1 22 51
M  V30 55 1 22 52
M  V30 56 1 23 53
M  V30 57 1 23 54
M  V30 58 1 24 55
M  V30 59 1 25 56
M  V30 60 1 26 57
M  V30 61 1 26 58
M  V30 62 1 27 59
M  V30 63 1 27 60
M  V30 64 1 28 61
M  V30 65 1 28 62
M  V30 66 1 29 63
M  V30 67 1 29 64
M  V30 68 1 32 65
M  V30 69 1 34 66
M  V30 70 1 37 67
M  V30 END BOND
M  V30 END CTAB
M  END
>  <Dataset>  (510) 
ChEMBL_Kinases

>  <Ligand_Instance>  (510) 
nan

>  <PDB_ID>  (510) 
nan

>  <Standardized_SMILES>  (510) 
N#Cc1ncc2nc1OCCCCCOc1cc(NC(=O)CCNC3CCCC3)c(Cl)cc1NC(=O)N2

>  <Name>  (510) 
nan

>  <Pocket>  (510) 
nan

>  <ATP_Site>  (510) 
nan

>  <Peripheral>  (510) 
nan

>  <Num_H_Atoms_ProtBoundConf>  (510) 
nan

>  <Num_Resolved_Atoms>  (510) 
nan

>  <Num_Not_Resolved_Atoms>  (510) 
nan

$$$$
CHEMBL2236083
     RDKit          3D

  0  0  0  0  0  0  0  0  0  0999 V3000
M  V30 BEGIN CTAB
M  V30 COUNTS 42 45 0 0 0
M  V30 BEGIN ATOM
M  V30 1 N 0.423382 -7.616795 -0.580627 0
M  V30 2 C 0.846105 -6.534431 -0.481670 0
M  V30 3 C 1.378366 -5.207896 -0.376414 0
M  V30 4 C 0.878009 -4.137507 -1.096226 0
M  V30 5 C 1.407823 -2.869464 -0.977440 0
M  V30 6 C 2.465205 -2.615841 -0.130292 0
M  V30 7 C 3.129870 -1.344722 0.104359 0
M  V30 8 C 4.518626 -1.255178 0.145196 0
M  V30 9 N 4.809467 0.034688 0.376359 0
M  V30 10 C 3.624009 0.678758 0.467685 0
M  V30 11 C 3.404910 2.014100 0.697575 0
M  V30 12 C 2.092068 2.423195 0.745442 0
M  V30 13 C 1.002335 1.563644 0.575168 0
M  V30 14 N -0.324671 2.032878 0.633280 0
M  V30 15 C -1.472064 1.163114 0.460119 0 CFG=1
M  V30 16 C -1.482487 0.071507 1.523290 0
M  V30 17 C -1.834258 0.762077 2.822660 0
M  V30 18 C -3.340312 1.017851 2.727496 0
M  V30 19 N -3.722765 1.413306 1.450323 0
M  V30 20 C -2.746960 1.924948 0.564046 0
M  V30 21 N 1.332714 0.286529 0.357488 0
M  V30 22 N 2.578972 -0.146001 0.304315 0
M  V30 23 C 2.942490 -3.721942 0.579118 0
M  V30 24 C 2.436933 -5.002480 0.484676 0
M  V30 25 H 0.057607 -4.308303 -1.760483 0
M  V30 26 H 1.045645 -2.006993 -1.521979 0
M  V30 27 H 5.273922 -2.038833 0.021622 0
M  V30 28 H 4.198785 2.739537 0.839002 0
M  V30 29 H 1.872101 3.482114 0.926911 0
M  V30 30 H -0.481443 3.049313 0.808472 0
M  V30 31 H -1.446806 0.666926 -0.543963 0
M  V30 32 H -0.561504 -0.513169 1.559834 0
M  V30 33 H -2.338327 -0.604128 1.231638 0
M  V30 34 H -1.356910 1.764222 2.858202 0
M  V30 35 H -1.609290 0.146512 3.716329 0
M  V30 36 H -3.831475 0.118199 3.142760 0
M  V30 37 H -3.574878 1.851346 3.446263 0
M  V30 38 H -4.662550 1.269373 1.125918 0
M  V30 39 H -2.503731 2.968472 0.922923 0
M  V30 40 H -3.187940 2.091530 -0.440285 0
M  V30 41 H 3.772247 -3.595781 1.263407 0
M  V30 42 H 2.851672 -5.807222 1.059216 0
M  V30 END ATOM
M  V30 BEGIN BOND
M  V30 1 3 1 2
M  V30 2 1 2 3
M  V30 3 2 3 4
M  V30 4 1 4 5
M  V30 5 2 5 6
M  V30 6 1 6 7
M  V30 7 2 7 8
M  V30 8 1 8 9
M  V30 9 2 9 10
M  V30 10 1 10 11
M  V30 11 2 11 12
M  V30 12 1 12 13
M  V30 13 1 13 14
M  V30 14 1 14 15
M  V30 15 1 15 16
M  V30 16 1 16 17
M  V30 17 1 17 18
M  V30 18 1 18 19
M  V30 19 1 19 20
M  V30 20 2 13 21
M  V30 21 1 21 22
M  V30 22 1 6 23
M  V30 23 2 23 24
M  V30 24 1 24 3
M  V30 25 1 22 7
M  V30 26 1 22 10
M  V30 27 1 20 15
M  V30 28 1 4 25
M  V30 29 1 5 26
M  V30 30 1 8 27
M  V30 31 1 11 28
M  V30 32 1 12 29
M  V30 33 1 14 30
M  V30 34 1 15 31 CFG=3
M  V30 35 1 16 32
M  V30 36 1 16 33
M  V30 37 1 17 34
M  V30 38 1 17 35
M  V30 39 1 18 36
M  V30 40 1 18 37
M  V30 41 1 19 38
M  V30 42 1 20 39
M  V30 43 1 20 40
M  V30 44 1 23 41
M  V30 45 1 24 42
M  V30 END BOND
M  V30 END CTAB
M  END
>  <Dataset>  (511) 
ChEMBL_Kinases

>  <Ligand_Instance>  (511) 
nan

>  <PDB_ID>  (511) 
nan

>  <Standardized_SMILES>  (511) 
N#Cc1ccc(-c2cnc3ccc(N[C@H]4CCCNC4)nn23)cc1

>  <Name>  (511) 
nan

>  <Pocket>  (511) 
nan

>  <ATP_Site>  (511) 
nan

>  <Peripheral>  (511) 
nan

>  <Num_H_Atoms_ProtBoundConf>  (511) 
nan

>  <Num_Resolved_Atoms>  (511) 
nan

>  <Num_Not_Resolved_Atoms>  (511) 
nan

$$$$
CHEMBL223640
     RDKit          3D

  0  0  0  0  0  0  0  0  0  0999 V3000
M  V30 BEGIN CTAB
M  V30 COUNTS 58 60 0 0 0
M  V30 BEGIN ATOM
M  V30 1 N -5.334885 -6.927184 -1.280703 0
M  V30 2 C -5.451590 -5.798393 -1.170870 0
M  V30 3 C -5.597271 -4.393943 -1.009788 0
M  V30 4 N -6.541204 -3.566727 -0.546762 0
M  V30 5 C -6.266476 -2.250770 -0.571346 0
M  V30 6 C -5.099156 -1.735944 -1.036358 0
M  V30 7 N -4.156596 -2.558005 -1.500479 0
M  V30 8 C -4.435662 -3.878289 -1.472042 0
M  V30 9 O -3.188154 -3.857048 -2.002277 0
M  V30 10 C -2.019844 -3.759473 -1.178429 0
M  V30 11 C -0.750428 -3.562687 -1.974709 0
M  V30 12 C -0.912417 -2.414359 -2.937087 0
M  V30 13 C 0.308919 -1.747406 -3.437176 0
M  V30 14 C 1.013098 -0.951175 -2.318669 0
M  V30 15 O 0.091286 -0.004370 -1.816556 0
M  V30 16 C 0.207072 0.911830 -0.816823 0
M  V30 17 C 1.375728 1.593035 -0.574780 0
M  V30 18 C 1.343708 2.484653 0.468954 0
M  V30 19 N 2.528956 3.226668 0.728971 0
M  V30 20 C 2.850255 4.599455 0.325870 0
M  V30 21 C 1.733066 5.109615 -0.527418 0
M  V30 22 O 1.646560 4.254707 -1.635606 0
M  V30 23 C 3.647145 2.767019 1.485670 0
M  V30 24 C 3.537858 1.394149 2.055087 0
M  V30 25 O 3.371705 0.435600 1.064112 0
M  V30 26 C 0.288344 2.775432 1.296011 0
M  V30 27 Cl 0.236282 3.887566 2.634725 0
M  V30 28 C -0.879100 2.085359 1.042465 0
M  V30 29 C -0.924481 1.173297 0.009502 0
M  V30 30 N -2.066183 0.469014 -0.298057 0
M  V30 31 C -3.236819 -0.049011 -0.728356 0
M  V30 32 O -3.716990 0.782634 -1.449688 0
M  V30 33 N -4.440085 -0.505023 -1.210399 0
M  V30 34 H -6.840164 -1.410050 -0.273642 0
M  V30 35 H -1.944987 -4.731617 -0.650840 0
M  V30 36 H -2.141246 -2.989286 -0.387289 0
M  V30 37 H 0.060926 -3.429710 -1.235461 0
M  V30 38 H -0.538212 -4.514386 -2.500115 0
M  V30 39 H -1.656627 -1.723383 -2.484405 0
M  V30 40 H -1.448313 -2.817125 -3.828002 0
M  V30 41 H 0.982574 -2.477185 -3.902442 0
M  V30 42 H 0.030835 -0.999611 -4.192081 0
M  V30 43 H 1.509348 -1.568136 -1.586200 0
M  V30 44 H 1.790200 -0.365570 -2.845980 0
M  V30 45 H 2.246887 1.427033 -1.184221 0
M  V30 46 H 2.887158 5.236288 1.232886 0
M  V30 47 H 3.837810 4.680875 -0.168319 0
M  V30 48 H 0.798465 5.189044 0.043164 0
M  V30 49 H 1.984374 6.151621 -0.884959 0
M  V30 50 H 2.100205 4.648778 -2.398191 0
M  V30 51 H 3.871236 3.463047 2.347127 0
M  V30 52 H 4.589833 2.830644 0.868435 0
M  V30 53 H 2.742657 1.324292 2.823551 0
M  V30 54 H 4.483437 1.118899 2.588494 0
M  V30 55 H 4.013016 -0.292971 1.096835 0
M  V30 56 H -1.840092 2.108684 1.538065 0
M  V30 57 H -1.809247 -0.282460 0.362300 0
M  V30 58 H -5.159917 -0.112759 -1.835955 0
M  V30 END ATOM
M  V30 BEGIN BOND
M  V30 1 3 1 2
M  V30 2 1 2 3
M  V30 3 2 3 4
M  V30 4 1 4 5
M  V30 5 2 5 6
M  V30 6 1 6 7
M  V30 7 2 7 8
M  V30 8 1 8 9
M  V30 9 1 9 10
M  V30 10 1 10 11
M  V30 11 1 11 12
M  V30 12 1 12 13
M  V30 13 1 13 14
M  V30 14 1 14 15
M  V30 15 1 15 16
M  V30 16 2 16 17
M  V30 17 1 17 18
M  V30 18 1 18 19
M  V30 19 1 19 20
M  V30 20 1 20 21
M  V30 21 1 21 22
M  V30 22 1 19 23
M  V30 23 1 23 24
M  V30 24 1 24 25
M  V30 25 2 18 26
M  V30 26 1 26 27
M  V30 27 1 26 28
M  V30 28 2 28 29
M  V30 29 1 29 30
M  V30 30 1 30 31
M  V30 31 2 31 32
M  V30 32 1 31 33
M  V30 33 1 8 3
M  V30 34 1 29 16
M  V30 35 1 33 6
M  V30 36 1 5 34
M  V30 37 1 10 35
M  V30 38 1 10 36
M  V30 39 1 11 37
M  V30 40 1 11 38
M  V30 41 1 12 39
M  V30 42 1 12 40
M  V30 43 1 13 41
M  V30 44 1 13 42
M  V30 45 1 14 43
M  V30 46 1 14 44
M  V30 47 1 17 45
M  V30 48 1 20 46
M  V30 49 1 20 47
M  V30 50 1 21 48
M  V30 51 1 21 49
M  V30 52 1 22 50
M  V30 53 1 23 51
M  V30 54 1 23 52
M  V30 55 1 24 53
M  V30 56 1 24 54
M  V30 57 1 25 55
M  V30 58 1 28 56
M  V30 59 1 30 57
M  V30 60 1 33 58
M  V30 END BOND
M  V30 END CTAB
M  END
>  <Dataset>  (512) 
ChEMBL_Kinases

>  <Ligand_Instance>  (512) 
nan

>  <PDB_ID>  (512) 
nan

>  <Standardized_SMILES>  (512) 
N#Cc1ncc2nc1OCCCCCOc1cc(N(CCO)CCO)c(Cl)cc1NC(=O)N2

>  <Name>  (512) 
nan

>  <Pocket>  (512) 
nan

>  <ATP_Site>  (512) 
nan

>  <Peripheral>  (512) 
nan

>  <Num_H_Atoms_ProtBoundConf>  (512) 
nan

>  <Num_Resolved_Atoms>  (512) 
nan

>  <Num_Not_Resolved_Atoms>  (512) 
nan

$$$$
CHEMBL223645
     RDKit          3D

  0  0  0  0  0  0  0  0  0  0999 V3000
M  V30 BEGIN CTAB
M  V30 COUNTS 53 55 0 0 0
M  V30 BEGIN ATOM
M  V30 1 C 1.634387 -4.795955 2.316059 0
M  V30 2 C 1.946286 -3.532099 2.453002 0
M  V30 3 C 2.994523 -2.667868 3.016262 0
M  V30 4 O 3.583648 -1.881673 2.063698 0
M  V30 5 C 2.779554 -1.019849 1.377394 0
M  V30 6 C 2.055516 0.000942 2.184231 0
M  V30 7 N 1.242301 0.854730 1.382638 0
M  V30 8 C 1.688995 2.018147 0.840436 0
M  V30 9 S 3.319972 2.750267 0.975859 0
M  V30 10 C 4.367246 2.137117 -0.381487 0
M  V30 11 N 0.676689 2.597533 0.133736 0
M  V30 12 C -0.429701 1.800672 0.222045 0
M  V30 13 C -1.664210 2.189638 -0.443338 0
M  V30 14 C -2.161534 3.391481 0.078425 0
M  V30 15 C -3.347881 3.910544 -0.451512 0
M  V30 16 C -4.047293 3.290552 -1.463766 0
M  V30 17 F -5.191685 3.836069 -1.943304 0
M  V30 18 C -3.532779 2.109444 -1.955803 0
M  V30 19 C -2.364932 1.592928 -1.438541 0
M  V30 20 C -0.041258 0.744882 0.994862 0
M  V30 21 C -0.918612 -0.344361 1.331062 0
M  V30 22 C -1.437897 -0.575978 2.585372 0
M  V30 23 C -2.280347 -1.678638 2.791856 0
M  V30 24 N -2.607743 -2.530340 1.808649 0
M  V30 25 C -2.123947 -2.351651 0.547050 0
M  V30 26 N -2.441140 -3.230652 -0.536641 0
M  V30 27 C -1.611860 -4.357459 -0.791704 0
M  V30 28 C -1.772080 -5.377283 -1.859103 0
M  V30 29 O -0.593895 -4.639824 -0.111723 0
M  V30 30 C -1.295257 -1.263638 0.350773 0
M  V30 31 H 0.960661 -5.566749 1.960816 0
M  V30 32 H 1.927643 -5.842297 2.511385 0
M  V30 33 H 1.086657 -3.068105 1.954978 0
M  V30 34 H 2.673574 -2.141927 3.941407 0
M  V30 35 H 3.804630 -3.368297 3.373968 0
M  V30 36 H 3.460022 -0.461409 0.678651 0
M  V30 37 H 2.063993 -1.544019 0.693173 0
M  V30 38 H 1.397972 -0.483437 2.965548 0
M  V30 39 H 2.816455 0.546995 2.783424 0
M  V30 40 H 3.860432 1.288511 -0.920072 0
M  V30 41 H 4.626844 2.913072 -1.108415 0
M  V30 42 H 5.332856 1.702781 -0.010380 0
M  V30 43 H -1.721734 3.997548 0.879811 0
M  V30 44 H -3.774678 4.834841 -0.084196 0
M  V30 45 H -4.035836 1.580730 -2.744911 0
M  V30 46 H -1.927349 0.683831 -1.790373 0
M  V30 47 H -1.183484 0.100501 3.388710 0
M  V30 48 H -2.693945 -1.862793 3.792808 0
M  V30 49 H -3.240025 -3.169020 -1.214269 0
M  V30 50 H -0.841471 -5.362585 -2.480963 0
M  V30 51 H -2.658936 -5.221538 -2.491750 0
M  V30 52 H -1.850878 -6.402258 -1.431192 0
M  V30 53 H -0.922404 -1.146033 -0.657041 0
M  V30 END ATOM
M  V30 BEGIN BOND
M  V30 1 2 1 2
M  V30 2 1 2 3
M  V30 3 1 3 4
M  V30 4 1 4 5
M  V30 5 1 5 6
M  V30 6 1 6 7
M  V30 7 1 7 8
M  V30 8 1 8 9
M  V30 9 1 9 10
M  V30 10 2 8 11
M  V30 11 1 11 12
M  V30 12 1 12 13
M  V30 13 2 13 14
M  V30 14 1 14 15
M  V30 15 2 15 16
M  V30 16 1 16 17
M  V30 17 1 16 18
M  V30 18 2 18 19
M  V30 19 2 12 20
M  V30 20 1 20 21
M  V30 21 2 21 22
M  V30 22 1 22 23
M  V30 23 2 23 24
M  V30 24 1 24 25
M  V30 25 1 25 26
M  V30 26 1 26 27
M  V30 27 1 27 28
M  V30 28 2 27 29
M  V30 29 2 25 30
M  V30 30 1 20 7
M  V30 31 1 30 21
M  V30 32 1 19 13
M  V30 33 1 1 31
M  V30 34 1 1 32
M  V30 35 1 2 33
M  V30 36 1 3 34
M  V30 37 1 3 35
M  V30 38 1 5 36
M  V30 39 1 5 37
M  V30 40 1 6 38
M  V30 41 1 6 39
M  V30 42 1 10 40
M  V30 43 1 10 41
M  V30 44 1 10 42
M  V30 45 1 14 43
M  V30 46 1 15 44
M  V30 47 1 18 45
M  V30 48 1 19 46
M  V30 49 1 22 47
M  V30 50 1 23 48
M  V30 51 1 26 49
M  V30 52 1 28 50
M  V30 53 1 28 51
M  V30 54 1 28 52
M  V30 55 1 30 53
M  V30 END BOND
M  V30 END CTAB
M  END
>  <Dataset>  (513) 
ChEMBL_Kinases

>  <Ligand_Instance>  (513) 
nan

>  <PDB_ID>  (513) 
nan

>  <Standardized_SMILES>  (513) 
C=CCOCCn1c(SC)nc(-c2ccc(F)cc2)c1-c1ccnc(NC(C)=O)c1

>  <Name>  (513) 
nan

>  <Pocket>  (513) 
nan

>  <ATP_Site>  (513) 
nan

>  <Peripheral>  (513) 
nan

>  <Num_H_Atoms_ProtBoundConf>  (513) 
nan

>  <Num_Resolved_Atoms>  (513) 
nan

>  <Num_Not_Resolved_Atoms>  (513) 
nan

$$$$
CHEMBL223542
     RDKit          3D

  0  0  0  0  0  0  0  0  0  0999 V3000
M  V30 BEGIN CTAB
M  V30 COUNTS 56 58 0 0 0
M  V30 BEGIN ATOM
M  V30 1 C 3.803979 -4.297003 3.654356 0
M  V30 2 C 5.126090 -3.594074 3.459361 0
M  V30 3 C 4.913526 -2.079907 3.506048 0
M  V30 4 C 3.956720 -1.753170 2.385588 0
M  V30 5 N 3.664491 -0.333885 2.314525 0
M  V30 6 C 2.781111 0.166359 1.318302 0
M  V30 7 C 2.132300 -0.615568 0.349950 0
M  V30 8 C 1.250465 -0.196985 -0.661133 0
M  V30 9 C 1.003041 1.156451 -0.689995 0
M  V30 10 C 1.634794 1.963193 0.261381 0
M  V30 11 C 2.513991 1.540332 1.268555 0
M  V30 12 Cl 3.287085 2.574133 2.444185 0
M  V30 13 N 0.231471 2.073903 -1.452040 0
M  V30 14 C -1.124874 2.461558 -1.486111 0
M  V30 15 O -0.970696 1.562390 -0.590884 0
M  V30 16 N -2.465595 2.879484 -1.556013 0
M  V30 17 C -3.624540 2.496469 -0.856032 0
M  V30 18 C -4.628689 3.198553 -0.278083 0
M  V30 19 N -5.655313 2.582730 0.334235 0
M  V30 20 C -5.660909 1.243307 0.359326 0
M  V30 21 C -6.647573 0.397644 0.951187 0
M  V30 22 N -7.456743 -0.270262 1.435011 0
M  V30 23 C -4.656668 0.541296 -0.217786 0
M  V30 24 N -3.650305 1.185964 -0.818883 0
M  V30 25 O -4.324733 -0.823707 -0.388244 0
M  V30 26 C -3.718483 -1.206650 -1.607797 0
M  V30 27 C -3.304198 -2.596902 -1.764504 0
M  V30 28 C -2.350031 -3.114445 -0.752424 0
M  V30 29 C -1.125053 -2.326761 -0.491849 0
M  V30 30 C -0.245826 -1.973594 -1.630448 0
M  V30 31 O 0.919897 -1.325998 -1.306068 0
M  V30 32 H 3.298375 -4.495579 2.670808 0
M  V30 33 H 3.916796 -5.290950 4.132916 0
M  V30 34 H 3.085787 -3.693086 4.236841 0
M  V30 35 H 5.883609 -3.917225 4.202025 0
M  V30 36 H 5.465536 -3.815336 2.419346 0
M  V30 37 H 5.871185 -1.580194 3.379769 0
M  V30 38 H 4.380464 -1.886204 4.443489 0
M  V30 39 H 4.475169 -2.003023 1.419380 0
M  V30 40 H 3.059109 -2.382007 2.404873 0
M  V30 41 H 4.086640 0.339735 2.978824 0
M  V30 42 H 2.446547 -1.659396 0.526279 0
M  V30 43 H 1.528793 3.050455 0.339818 0
M  V30 44 H 0.868938 2.554836 -2.124355 0
M  V30 45 H -2.757136 3.608156 -2.231358 0
M  V30 46 H -4.435664 4.249422 -0.408957 0
M  V30 47 H -2.843505 -0.521739 -1.738052 0
M  V30 48 H -4.454728 -0.867671 -2.401929 0
M  V30 49 H -4.226931 -3.250069 -1.680855 0
M  V30 50 H -2.920318 -2.849207 -2.785962 0
M  V30 51 H -2.060760 -4.152294 -1.106428 0
M  V30 52 H -2.880243 -3.268240 0.213631 0
M  V30 53 H -1.448310 -1.341831 -0.042058 0
M  V30 54 H -0.592220 -2.823091 0.350032 0
M  V30 55 H -0.779939 -1.393659 -2.405851 0
M  V30 56 H 0.047579 -2.932521 -2.163097 0
M  V30 END ATOM
M  V30 BEGIN BOND
M  V30 1 1 1 2
M  V30 2 1 2 3
M  V30 3 1 3 4
M  V30 4 1 4 5
M  V30 5 1 5 6
M  V30 6 2 6 7
M  V30 7 1 7 8
M  V30 8 2 8 9
M  V30 9 1 9 10
M  V30 10 2 10 11
M  V30 11 1 11 12
M  V30 12 1 9 13
M  V30 13 1 13 14
M  V30 14 2 14 15
M  V30 15 1 14 16
M  V30 16 1 16 17
M  V30 17 1 17 18
M  V30 18 2 18 19
M  V30 19 1 19 20
M  V30 20 1 20 21
M  V30 21 3 21 22
M  V30 22 2 20 23
M  V30 23 1 23 24
M  V30 24 1 23 25
M  V30 25 1 25 26
M  V30 26 1 26 27
M  V30 27 1 27 28
M  V30 28 1 28 29
M  V30 29 1 29 30
M  V30 30 1 30 31
M  V30 31 1 11 6
M  V30 32 2 24 17
M  V30 33 1 31 8
M  V30 34 1 1 32
M  V30 35 1 1 33
M  V30 36 1 1 34
M  V30 37 1 2 35
M  V30 38 1 2 36
M  V30 39 1 3 37
M  V30 40 1 3 38
M  V30 41 1 4 39
M  V30 42 1 4 40
M  V30 43 1 5 41
M  V30 44 1 7 42
M  V30 45 1 10 43
M  V30 46 1 13 44
M  V30 47 1 16 45
M  V30 48 1 18 46
M  V30 49 1 26 47
M  V30 50 1 26 48
M  V30 51 1 27 49
M  V30 52 1 27 50
M  V30 53 1 28 51
M  V30 54 1 28 52
M  V30 55 1 29 53
M  V30 56 1 29 54
M  V30 57 1 30 55
M  V30 58 1 30 56
M  V30 END BOND
M  V30 END CTAB
M  END
>  <Dataset>  (514) 
ChEMBL_Kinases

>  <Ligand_Instance>  (514) 
nan

>  <PDB_ID>  (514) 
nan

>  <Standardized_SMILES>  (514) 
CCCCNc1cc2c(cc1Cl)NC(=O)Nc1cnc(C#N)c(n1)OCCCCCO2

>  <Name>  (514) 
nan

>  <Pocket>  (514) 
nan

>  <ATP_Site>  (514) 
nan

>  <Peripheral>  (514) 
nan

>  <Num_H_Atoms_ProtBoundConf>  (514) 
nan

>  <Num_Resolved_Atoms>  (514) 
nan

>  <Num_Not_Resolved_Atoms>  (514) 
nan

$$$$
CHEMBL226332
     RDKit          3D

  0  0  0  0  0  0  0  0  0  0999 V3000
M  V30 BEGIN CTAB
M  V30 COUNTS 45 48 0 0 0
M  V30 BEGIN ATOM
M  V30 1 N -2.105319 -0.529222 4.787548 0
M  V30 2 C -1.831224 -1.427276 3.671116 0 CFG=2
M  V30 3 C -0.904956 -0.734773 2.708242 0
M  V30 4 O -1.481390 0.466589 2.199974 0
M  V30 5 C -0.719996 1.197746 1.298636 0
M  V30 6 C -1.357468 2.345571 0.859183 0
M  V30 7 N -0.713178 3.143807 -0.025335 0
M  V30 8 C 0.518590 2.817785 -0.459781 0
M  V30 9 C 1.181935 1.682514 -0.042615 0
M  V30 10 C 2.515996 1.290392 -0.486622 0
M  V30 11 C 3.259727 2.030324 -1.384448 0
M  V30 12 C 4.522139 1.689460 -1.825080 0
M  V30 13 C 5.427815 2.267504 -2.699273 0
M  V30 14 Cl 5.157797 3.776973 -3.579639 0
M  V30 15 N 6.515698 1.462724 -2.732281 0
M  V30 16 N 6.314985 0.420893 -1.918639 0
M  V30 17 C 5.100963 0.531213 -1.347348 0
M  V30 18 C 4.349635 -0.199394 -0.451803 0
M  V30 19 N 3.118657 0.160727 -0.040966 0
M  V30 20 C 0.540968 0.856784 0.858789 0
M  V30 21 C -3.083535 -1.809297 2.938223 0
M  V30 22 C -2.774093 -2.714576 1.819220 0
M  V30 23 C -2.807720 -4.044585 2.199225 0
M  V30 24 C -2.546986 -5.077307 1.301996 0
M  V30 25 C -2.248733 -4.717643 -0.002682 0
M  V30 26 C -2.208288 -3.384265 -0.411638 0
M  V30 27 C -2.474254 -2.386918 0.513716 0
M  V30 28 H -1.861647 0.463692 4.492076 0
M  V30 29 H -1.448354 -0.697854 5.595287 0
M  V30 30 H -1.273256 -2.322537 4.036015 0
M  V30 31 H 0.045716 -0.521352 3.248602 0
M  V30 32 H -0.671469 -1.428024 1.890518 0
M  V30 33 H -2.341046 2.662895 1.167421 0
M  V30 34 H 1.011867 3.471475 -1.165851 0
M  V30 35 H 2.871077 2.935153 -1.791466 0
M  V30 36 H 6.962617 -0.377489 -1.721677 0
M  V30 37 H 4.792259 -1.109896 -0.069668 0
M  V30 38 H 0.943558 -0.065173 1.270020 0
M  V30 39 H -3.884942 -2.200600 3.595626 0
M  V30 40 H -3.499761 -0.852388 2.507275 0
M  V30 41 H -3.032894 -4.424455 3.203757 0
M  V30 42 H -2.564500 -6.125845 1.564206 0
M  V30 43 H -2.038609 -5.489733 -0.736599 0
M  V30 44 H -1.978921 -3.084272 -1.419222 0
M  V30 45 H -2.470625 -1.322350 0.306110 0
M  V30 END ATOM
M  V30 BEGIN BOND
M  V30 1 1 1 2
M  V30 2 1 2 3
M  V30 3 1 3 4
M  V30 4 1 4 5
M  V30 5 2 5 6
M  V30 6 1 6 7
M  V30 7 2 7 8
M  V30 8 1 8 9
M  V30 9 1 9 10
M  V30 10 2 10 11
M  V30 11 1 11 12
M  V30 12 1 12 13
M  V30 13 1 13 14
M  V30 14 2 13 15
M  V30 15 1 15 16
M  V30 16 1 16 17
M  V30 17 1 17 18
M  V30 18 2 18 19
M  V30 19 2 9 20
M  V30 20 1 2 21
M  V30 21 1 21 22
M  V30 22 2 22 23
M  V30 23 1 23 24
M  V30 24 2 24 25
M  V30 25 1 25 26
M  V30 26 2 26 27
M  V30 27 1 20 5
M  V30 28 1 27 22
M  V30 29 1 19 10
M  V30 30 2 17 12
M  V30 31 1 1 28
M  V30 32 1 1 29
M  V30 33 1 2 30 CFG=1
M  V30 34 1 3 31
M  V30 35 1 3 32
M  V30 36 1 6 33
M  V30 37 1 8 34
M  V30 38 1 11 35
M  V30 39 1 16 36
M  V30 40 1 18 37
M  V30 41 1 20 38
M  V30 42 1 21 39
M  V30 43 1 21 40
M  V30 44 1 23 41
M  V30 45 1 24 42
M  V30 46 1 25 43
M  V30 47 1 26 44
M  V30 48 1 27 45
M  V30 END BOND
M  V30 END CTAB
M  END
>  <Dataset>  (515) 
ChEMBL_Kinases

>  <Ligand_Instance>  (515) 
nan

>  <PDB_ID>  (515) 
nan

>  <Standardized_SMILES>  (515) 
N[C@H](COc1cncc(-c2cc3c(Cl)n[nH]c3cn2)c1)Cc1ccccc1

>  <Name>  (515) 
nan

>  <Pocket>  (515) 
nan

>  <ATP_Site>  (515) 
nan

>  <Peripheral>  (515) 
nan

>  <Num_H_Atoms_ProtBoundConf>  (515) 
nan

>  <Num_Resolved_Atoms>  (515) 
nan

>  <Num_Not_Resolved_Atoms>  (515) 
nan

$$$$
CHEMBL226331
     RDKit          3D

  0  0  0  0  0  0  0  0  0  0999 V3000
M  V30 BEGIN CTAB
M  V30 COUNTS 45 48 0 0 0
M  V30 BEGIN ATOM
M  V30 1 N 2.250730 -4.212866 1.336101 0
M  V30 2 C 0.848511 -4.093567 1.097871 0 CFG=2
M  V30 3 C 0.580423 -3.694939 -0.370601 0
M  V30 4 O 1.146640 -2.595418 -0.813699 0
M  V30 5 C 1.445484 -1.332595 -0.888130 0
M  V30 6 C 2.339245 -1.221817 -1.977055 0
M  V30 7 N 2.892573 -0.031796 -2.385774 0
M  V30 8 C 2.552653 1.082074 -1.698004 0
M  V30 9 C 1.692231 1.077867 -0.625306 0
M  V30 10 C 1.275710 2.225547 0.165988 0
M  V30 11 C 1.737681 3.494884 -0.110255 0
M  V30 12 C 1.372812 4.624499 0.612249 0
M  V30 13 C 1.689749 5.965304 0.533883 0
M  V30 14 N 1.017263 6.608024 1.525085 0
M  V30 15 N 0.298280 5.715690 2.211233 0
M  V30 16 C 0.499798 4.495514 1.671162 0
M  V30 17 C 0.056406 3.213214 1.921159 0
M  V30 18 N 0.426537 2.137482 1.204832 0
M  V30 19 C 1.175669 -0.145091 -0.270121 0
M  V30 20 C 0.243137 -3.075848 2.017276 0
M  V30 21 C -1.229762 -2.957144 1.811604 0
M  V30 22 C -2.003012 -3.777798 2.632927 0
M  V30 23 C -3.378916 -3.858189 2.632257 0
M  V30 24 C -4.066707 -3.060481 1.744081 0
M  V30 25 C -3.336872 -2.237275 0.917102 0
M  V30 26 C -1.961950 -2.199199 0.962327 0
M  V30 27 H 2.498041 -5.021437 1.964163 0
M  V30 28 H 2.658300 -3.377185 1.841821 0
M  V30 29 H 0.307037 -5.073597 1.227428 0
M  V30 30 H 0.888651 -4.587202 -1.014777 0
M  V30 31 H -0.542859 -3.689557 -0.513508 0
M  V30 32 H 2.750782 -1.982404 -2.670563 0
M  V30 33 H 2.950609 2.047133 -1.966217 0
M  V30 34 H 2.413963 3.695474 -0.906734 0
M  V30 35 H 2.362641 6.414947 -0.199453 0
M  V30 36 H -0.323508 5.896933 3.030014 0
M  V30 37 H -0.635703 3.056737 2.747818 0
M  V30 38 H 0.510290 -0.239854 0.544378 0
M  V30 39 H 0.789531 -2.141488 1.903797 0
M  V30 40 H 0.442166 -3.401109 3.078854 0
M  V30 41 H -1.535574 -4.444858 3.368916 0
M  V30 42 H -3.928128 -4.508583 3.287142 0
M  V30 43 H -5.142195 -3.030107 1.644974 0
M  V30 44 H -3.809356 -1.571448 0.182078 0
M  V30 45 H -1.390168 -1.561476 0.311821 0
M  V30 END ATOM
M  V30 BEGIN BOND
M  V30 1 1 1 2
M  V30 2 1 2 3
M  V30 3 1 3 4
M  V30 4 1 4 5
M  V30 5 2 5 6
M  V30 6 1 6 7
M  V30 7 2 7 8
M  V30 8 1 8 9
M  V30 9 1 9 10
M  V30 10 2 10 11
M  V30 11 1 11 12
M  V30 12 1 12 13
M  V30 13 2 13 14
M  V30 14 1 14 15
M  V30 15 1 15 16
M  V30 16 1 16 17
M  V30 17 2 17 18
M  V30 18 2 9 19
M  V30 19 1 2 20
M  V30 20 1 20 21
M  V30 21 2 21 22
M  V30 22 1 22 23
M  V30 23 2 23 24
M  V30 24 1 24 25
M  V30 25 2 25 26
M  V30 26 1 19 5
M  V30 27 1 26 21
M  V30 28 1 18 10
M  V30 29 2 16 12
M  V30 30 1 1 27
M  V30 31 1 1 28
M  V30 32 1 2 29 CFG=1
M  V30 33 1 3 30
M  V30 34 1 3 31
M  V30 35 1 6 32
M  V30 36 1 8 33
M  V30 37 1 11 34
M  V30 38 1 13 35
M  V30 39 1 15 36
M  V30 40 1 17 37
M  V30 41 1 19 38
M  V30 42 1 20 39
M  V30 43 1 20 40
M  V30 44 1 22 41
M  V30 45 1 23 42
M  V30 46 1 24 43
M  V30 47 1 25 44
M  V30 48 1 26 45
M  V30 END BOND
M  V30 END CTAB
M  END
>  <Dataset>  (516) 
ChEMBL_Kinases

>  <Ligand_Instance>  (516) 
nan

>  <PDB_ID>  (516) 
nan

>  <Standardized_SMILES>  (516) 
N[C@H](COc1cncc(-c2cc3cn[nH]c3cn2)c1)Cc1ccccc1

>  <Name>  (516) 
nan

>  <Pocket>  (516) 
nan

>  <ATP_Site>  (516) 
nan

>  <Peripheral>  (516) 
nan

>  <Num_H_Atoms_ProtBoundConf>  (516) 
nan

>  <Num_Resolved_Atoms>  (516) 
nan

>  <Num_Not_Resolved_Atoms>  (516) 
nan

$$$$
CHEMBL226330
     RDKit          3D

  0  0  0  0  0  0  0  0  0  0999 V3000
M  V30 BEGIN CTAB
M  V30 COUNTS 49 53 0 0 0
M  V30 BEGIN ATOM
M  V30 1 N -1.431054 -2.853277 -0.331986 0
M  V30 2 C -1.600492 -1.757469 0.571642 0 CFG=2
M  V30 3 C -0.417144 -0.809911 0.459695 0
M  V30 4 O 0.792323 -1.473152 0.768785 0
M  V30 5 C 1.998468 -0.789052 0.735752 0
M  V30 6 C 3.222928 -1.346848 1.016337 0
M  V30 7 N 4.379373 -0.672694 0.980654 0
M  V30 8 C 4.418155 0.653593 0.653669 0
M  V30 9 C 3.226434 1.284016 0.358722 0
M  V30 10 C 3.132161 2.692605 -0.002356 0
M  V30 11 C 4.235355 3.516311 -0.080964 0
M  V30 12 C 4.138295 4.857708 -0.426528 0
M  V30 13 C 5.023853 5.908197 -0.586454 0
M  V30 14 N 4.310341 7.010378 -0.943085 0
M  V30 15 N 3.023577 6.726791 -1.020317 0
M  V30 16 C 2.910793 5.423796 -0.708656 0
M  V30 17 C 1.818077 4.575094 -0.622386 0
M  V30 18 N 1.952343 3.281128 -0.284334 0
M  V30 19 C 2.050325 0.559510 0.404468 0
M  V30 20 C -1.834007 -2.200669 1.978709 0
M  V30 21 C -3.055346 -3.035189 2.043677 0
M  V30 22 C -4.319353 -2.578671 2.425996 0
M  V30 23 N -5.261247 -3.534300 2.373908 0
M  V30 24 C -4.638477 -4.642839 1.956245 0
M  V30 25 C -5.124535 -5.920309 1.732500 0
M  V30 26 C -4.208855 -6.879987 1.300218 0
M  V30 27 C -2.882242 -6.610203 1.095088 0
M  V30 28 C -2.415151 -5.325866 1.324254 0
M  V30 29 C -3.317669 -4.363414 1.753775 0
M  V30 30 H -0.501746 -3.312707 -0.128859 0
M  V30 31 H -1.397666 -2.510854 -1.317594 0
M  V30 32 H -2.543501 -1.234184 0.250383 0
M  V30 33 H -0.544751 0.090450 1.083605 0
M  V30 34 H -0.407408 -0.470209 -0.606687 0
M  V30 35 H 3.232976 -2.404116 1.281530 0
M  V30 36 H 5.337927 1.194074 0.624125 0
M  V30 37 H 5.212688 3.156193 0.120734 0
M  V30 38 H 6.092455 5.830055 -0.444152 0
M  V30 39 H 2.237804 7.378480 -1.272473 0
M  V30 40 H 0.818556 4.940533 -0.828659 0
M  V30 41 H 1.107795 1.042623 0.175630 0
M  V30 42 H -1.998247 -1.320424 2.645136 0
M  V30 43 H -0.963386 -2.748525 2.404398 0
M  V30 44 H -4.497543 -1.536433 2.733599 0
M  V30 45 H -6.262721 -3.358446 2.628846 0
M  V30 46 H -6.170748 -6.098407 1.902467 0
M  V30 47 H -4.668532 -7.853226 1.148837 0
M  V30 48 H -2.255390 -7.444363 0.754952 0
M  V30 49 H -1.362893 -5.143244 1.162754 0
M  V30 END ATOM
M  V30 BEGIN BOND
M  V30 1 1 1 2
M  V30 2 1 2 3
M  V30 3 1 3 4
M  V30 4 1 4 5
M  V30 5 2 5 6
M  V30 6 1 6 7
M  V30 7 2 7 8
M  V30 8 1 8 9
M  V30 9 1 9 10
M  V30 10 2 10 11
M  V30 11 1 11 12
M  V30 12 1 12 13
M  V30 13 2 13 14
M  V30 14 1 14 15
M  V30 15 1 15 16
M  V30 16 1 16 17
M  V30 17 2 17 18
M  V30 18 2 9 19
M  V30 19 1 2 20
M  V30 20 1 20 21
M  V30 21 2 21 22
M  V30 22 1 22 23
M  V30 23 1 23 24
M  V30 24 2 24 25
M  V30 25 1 25 26
M  V30 26 2 26 27
M  V30 27 1 27 28
M  V30 28 2 28 29
M  V30 29 1 19 5
M  V30 30 1 29 21
M  V30 31 1 18 10
M  V30 32 1 29 24
M  V30 33 2 16 12
M  V30 34 1 1 30
M  V30 35 1 1 31
M  V30 36 1 2 32 CFG=3
M  V30 37 1 3 33
M  V30 38 1 3 34
M  V30 39 1 6 35
M  V30 40 1 8 36
M  V30 41 1 11 37
M  V30 42 1 13 38
M  V30 43 1 15 39
M  V30 44 1 17 40
M  V30 45 1 19 41
M  V30 46 1 20 42
M  V30 47 1 20 43
M  V30 48 1 22 44
M  V30 49 1 23 45
M  V30 50 1 25 46
M  V30 51 1 26 47
M  V30 52 1 27 48
M  V30 53 1 28 49
M  V30 END BOND
M  V30 END CTAB
M  END
>  <Dataset>  (517) 
ChEMBL_Kinases

>  <Ligand_Instance>  (517) 
nan

>  <PDB_ID>  (517) 
nan

>  <Standardized_SMILES>  (517) 
N[C@H](COc1cncc(-c2cc3cn[nH]c3cn2)c1)Cc1c[nH]c2ccccc12

>  <Name>  (517) 
nan

>  <Pocket>  (517) 
nan

>  <ATP_Site>  (517) 
nan

>  <Peripheral>  (517) 
nan

>  <Num_H_Atoms_ProtBoundConf>  (517) 
nan

>  <Num_Resolved_Atoms>  (517) 
nan

>  <Num_Not_Resolved_Atoms>  (517) 
nan

$$$$
CHEMBL226321
     RDKit          3D

  0  0  0  0  0  0  0  0  0  0999 V3000
M  V30 BEGIN CTAB
M  V30 COUNTS 57 61 0 0 0
M  V30 BEGIN ATOM
M  V30 1 O 1.583873 4.084334 2.354421 0
M  V30 2 C 1.358223 2.861140 2.535692 0
M  V30 3 N 1.981301 2.320506 3.694832 0
M  V30 4 C 2.793879 3.123790 4.567054 0
M  V30 5 C 3.990649 3.745698 3.915817 0
M  V30 6 C 4.924982 2.754304 3.347422 0
M  V30 7 C 4.807807 2.304242 2.037180 0
M  V30 8 C 5.702944 1.374333 1.541156 0
M  V30 9 C 6.720504 0.878955 2.328234 0
M  V30 10 C 6.855484 1.311498 3.630957 0
M  V30 11 C 5.963686 2.237934 4.125135 0
M  V30 12 C 0.529125 2.074104 1.631353 0
M  V30 13 C 0.239082 0.729267 1.766252 0
M  V30 14 C -0.560954 0.077351 0.847079 0
M  V30 15 C -1.106385 0.725478 -0.240998 0
M  V30 16 C -1.959208 0.096412 -1.250512 0
M  V30 17 C -2.301813 -1.239315 -1.202181 0
M  V30 18 C -3.104802 -1.838879 -2.151169 0
M  V30 19 C -3.441572 -3.258987 -2.059559 0
M  V30 20 C -3.023473 -4.125259 -1.070056 0
M  V30 21 C -3.578667 -5.331628 -1.395225 0
M  V30 22 C -4.332760 -5.242417 -2.561748 0
M  V30 23 N -4.209359 -3.953704 -2.917757 0
M  V30 24 C -5.063944 -6.379691 -3.178583 0
M  V30 25 C -4.369631 -7.675199 -2.809248 0
M  V30 26 N -4.230967 -7.726856 -1.369534 0
M  V30 27 C -3.510387 -6.655983 -0.738641 0
M  V30 28 O -2.845775 -6.835789 0.332054 0
M  V30 29 C -3.592898 -1.083590 -3.197902 0
M  V30 30 C -3.237846 0.250102 -3.226662 0
M  V30 31 N -2.451517 0.806015 -2.284315 0
M  V30 32 C -0.816579 2.068826 -0.375596 0
M  V30 33 C -0.017919 2.720101 0.541804 0
M  V30 34 H 1.828611 1.288954 3.904100 0
M  V30 35 H 3.131949 2.524795 5.410141 0
M  V30 36 H 2.189063 3.975683 4.982479 0
M  V30 37 H 4.539481 4.280844 4.717669 0
M  V30 38 H 3.733552 4.520528 3.160848 0
M  V30 39 H 4.025190 2.668377 1.391060 0
M  V30 40 H 5.681759 0.973517 0.535551 0
M  V30 41 H 7.443431 0.141577 1.960615 0
M  V30 42 H 7.672457 0.902787 4.236969 0
M  V30 43 H 6.059401 2.585038 5.146292 0
M  V30 44 H 0.664903 0.218841 2.617805 0
M  V30 45 H -0.771452 -0.971395 0.975685 0
M  V30 46 H -1.948617 -1.876837 -0.406405 0
M  V30 47 H -2.392686 -3.901449 -0.219374 0
M  V30 48 H -4.650714 -3.523679 -3.759301 0
M  V30 49 H -5.027403 -6.222543 -4.283456 0
M  V30 50 H -6.101693 -6.447466 -2.805933 0
M  V30 51 H -3.339502 -7.643163 -3.256046 0
M  V30 52 H -4.897118 -8.549954 -3.212201 0
M  V30 53 H -4.611604 -8.481687 -0.735310 0
M  V30 54 H -4.232638 -1.496504 -3.981392 0
M  V30 55 H -3.562096 0.933253 -3.997813 0
M  V30 56 H -1.227733 2.604036 -1.215600 0
M  V30 57 H 0.160386 3.785602 0.357954 0
M  V30 END ATOM
M  V30 BEGIN BOND
M  V30 1 2 1 2
M  V30 2 1 2 3
M  V30 3 1 3 4
M  V30 4 1 4 5
M  V30 5 1 5 6
M  V30 6 2 6 7
M  V30 7 1 7 8
M  V30 8 2 8 9
M  V30 9 1 9 10
M  V30 10 2 10 11
M  V30 11 1 2 12
M  V30 12 2 12 13
M  V30 13 1 13 14
M  V30 14 2 14 15
M  V30 15 1 15 16
M  V30 16 2 16 17
M  V30 17 1 17 18
M  V30 18 1 18 19
M  V30 19 2 19 20
M  V30 20 1 20 21
M  V30 21 2 21 22
M  V30 22 1 22 23
M  V30 23 1 22 24
M  V30 24 1 24 25
M  V30 25 1 25 26
M  V30 26 1 26 27
M  V30 27 2 27 28
M  V30 28 2 18 29
M  V30 29 1 29 30
M  V30 30 2 30 31
M  V30 31 1 15 32
M  V30 32 2 32 33
M  V30 33 1 11 6
M  V30 34 1 33 12
M  V30 35 1 31 16
M  V30 36 1 23 19
M  V30 37 1 27 21
M  V30 38 1 3 34
M  V30 39 1 4 35
M  V30 40 1 4 36
M  V30 41 1 5 37
M  V30 42 1 5 38
M  V30 43 1 7 39
M  V30 44 1 8 40
M  V30 45 1 9 41
M  V30 46 1 10 42
M  V30 47 1 11 43
M  V30 48 1 13 44
M  V30 49 1 14 45
M  V30 50 1 17 46
M  V30 51 1 20 47
M  V30 52 1 23 48
M  V30 53 1 24 49
M  V30 54 1 24 50
M  V30 55 1 25 51
M  V30 56 1 25 52
M  V30 57 1 26 53
M  V30 58 1 29 54
M  V30 59 1 30 55
M  V30 60 1 32 56
M  V30 61 1 33 57
M  V30 END BOND
M  V30 END CTAB
M  END
>  <Dataset>  (518) 
ChEMBL_Kinases

>  <Ligand_Instance>  (518) 
nan

>  <PDB_ID>  (518) 
nan

>  <Standardized_SMILES>  (518) 
O=C(NCCc1ccccc1)c1ccc(-c2cc(-c3cc4c([nH]3)CCNC4=O)ccn2)cc1

>  <Name>  (518) 
nan

>  <Pocket>  (518) 
nan

>  <ATP_Site>  (518) 
nan

>  <Peripheral>  (518) 
nan

>  <Num_H_Atoms_ProtBoundConf>  (518) 
nan

>  <Num_Resolved_Atoms>  (518) 
nan

>  <Num_Not_Resolved_Atoms>  (518) 
nan

$$$$
CHEMBL226261
     RDKit          3D

  0  0  0  0  0  0  0  0  0  0999 V3000
M  V30 BEGIN CTAB
M  V30 COUNTS 57 61 0 0 0
M  V30 BEGIN ATOM
M  V30 1 O 4.016989 2.691820 -0.524196 0
M  V30 2 C 3.567972 1.568535 -0.186831 0
M  V30 3 N 4.435784 0.511180 0.188710 0
M  V30 4 C 5.868076 0.746543 0.178542 0
M  V30 5 C 6.486668 -0.155639 -0.866921 0
M  V30 6 C 6.386377 -1.611086 -0.482149 0
M  V30 7 C 6.569823 -1.870952 0.977822 0
M  V30 8 C 7.237697 -0.727648 1.703383 0
M  V30 9 C 6.471223 0.540779 1.537788 0
M  V30 10 C 2.118438 1.404838 -0.199767 0
M  V30 11 C 1.337981 2.491163 -0.581156 0
M  V30 12 C -0.058419 2.387116 -0.610216 0
M  V30 13 C -0.704252 1.217883 -0.265984 0
M  V30 14 C -2.160986 1.182802 -0.318451 0
M  V30 15 C -2.908684 0.073570 0.002970 0
M  V30 16 C -4.288468 0.090275 -0.061787 0
M  V30 17 C -5.024213 -1.120165 0.292493 0
M  V30 18 C -6.401010 -1.275027 0.287049 0
M  V30 19 C -6.658125 -2.570916 0.688530 0
M  V30 20 C -5.448804 -3.193636 0.934362 0
M  V30 21 N -4.481255 -2.273154 0.680373 0
M  V30 22 C -5.359356 -4.625352 1.392184 0
M  V30 23 C -6.580000 -5.391598 0.984043 0
M  V30 24 N -7.810287 -4.705862 1.322393 0
M  V30 25 C -7.891136 -3.351282 0.888183 0
M  V30 26 O -9.024726 -2.804132 0.669340 0
M  V30 27 C -4.914180 1.245171 -0.456938 0
M  V30 28 C -4.148743 2.367843 -0.781967 0
M  V30 29 N -2.790636 2.304962 -0.703410 0
M  V30 30 C 0.089979 0.153727 0.108817 0
M  V30 31 C 1.467062 0.237940 0.143383 0
M  V30 32 H 4.074319 -0.426043 0.470545 0
M  V30 33 H 6.037226 1.789229 -0.147291 0
M  V30 34 H 5.882460 -0.025553 -1.799787 0
M  V30 35 H 7.526805 0.181427 -1.067717 0
M  V30 36 H 7.114533 -2.185894 -1.091806 0
M  V30 37 H 5.376421 -1.988782 -0.817017 0
M  V30 38 H 7.180822 -2.796697 1.084203 0
M  V30 39 H 5.600354 -2.050990 1.472625 0
M  V30 40 H 8.298596 -0.610522 1.388673 0
M  V30 41 H 7.249859 -0.985240 2.786887 0
M  V30 42 H 7.109159 1.419023 1.817017 0
M  V30 43 H 5.641912 0.535943 2.283440 0
M  V30 44 H 1.776943 3.431710 -0.861910 0
M  V30 45 H -0.614272 3.274919 -0.918074 0
M  V30 46 H -2.420314 -0.829418 0.311788 0
M  V30 47 H -7.146464 -0.519371 0.017427 0
M  V30 48 H -3.454949 -2.516723 0.798575 0
M  V30 49 H -5.335530 -4.662820 2.518263 0
M  V30 50 H -4.478695 -5.111245 0.970265 0
M  V30 51 H -6.573366 -5.684960 -0.087065 0
M  V30 52 H -6.577168 -6.341350 1.564361 0
M  V30 53 H -8.608148 -5.126826 1.843728 0
M  V30 54 H -6.003591 1.279091 -0.514700 0
M  V30 55 H -4.656487 3.289486 -1.097572 0
M  V30 56 H -0.387419 -0.776155 0.384080 0
M  V30 57 H 2.048218 -0.615688 0.441558 0
M  V30 END ATOM
M  V30 BEGIN BOND
M  V30 1 2 1 2
M  V30 2 1 2 3
M  V30 3 1 3 4
M  V30 4 1 4 5
M  V30 5 1 5 6
M  V30 6 1 6 7
M  V30 7 1 7 8
M  V30 8 1 8 9
M  V30 9 1 2 10
M  V30 10 2 10 11
M  V30 11 1 11 12
M  V30 12 2 12 13
M  V30 13 1 13 14
M  V30 14 2 14 15
M  V30 15 1 15 16
M  V30 16 1 16 17
M  V30 17 2 17 18
M  V30 18 1 18 19
M  V30 19 2 19 20
M  V30 20 1 20 21
M  V30 21 1 20 22
M  V30 22 1 22 23
M  V30 23 1 23 24
M  V30 24 1 24 25
M  V30 25 2 25 26
M  V30 26 2 16 27
M  V30 27 1 27 28
M  V30 28 2 28 29
M  V30 29 1 13 30
M  V30 30 2 30 31
M  V30 31 1 9 4
M  V30 32 1 31 10
M  V30 33 1 29 14
M  V30 34 1 21 17
M  V30 35 1 25 19
M  V30 36 1 3 32
M  V30 37 1 4 33
M  V30 38 1 5 34
M  V30 39 1 5 35
M  V30 40 1 6 36
M  V30 41 1 6 37
M  V30 42 1 7 38
M  V30 43 1 7 39
M  V30 44 1 8 40
M  V30 45 1 8 41
M  V30 46 1 9 42
M  V30 47 1 9 43
M  V30 48 1 11 44
M  V30 49 1 12 45
M  V30 50 1 15 46
M  V30 51 1 18 47
M  V30 52 1 21 48
M  V30 53 1 22 49
M  V30 54 1 22 50
M  V30 55 1 23 51
M  V30 56 1 23 52
M  V30 57 1 24 53
M  V30 58 1 27 54
M  V30 59 1 28 55
M  V30 60 1 30 56
M  V30 61 1 31 57
M  V30 END BOND
M  V30 END CTAB
M  END
>  <Dataset>  (519) 
ChEMBL_Kinases

>  <Ligand_Instance>  (519) 
nan

>  <PDB_ID>  (519) 
nan

>  <Standardized_SMILES>  (519) 
O=C(NC1CCCCC1)c1ccc(-c2cc(-c3cc4c([nH]3)CCNC4=O)ccn2)cc1

>  <Name>  (519) 
nan

>  <Pocket>  (519) 
nan

>  <ATP_Site>  (519) 
nan

>  <Peripheral>  (519) 
nan

>  <Num_H_Atoms_ProtBoundConf>  (519) 
nan

>  <Num_Resolved_Atoms>  (519) 
nan

>  <Num_Not_Resolved_Atoms>  (519) 
nan

$$$$
CHEMBL226206
     RDKit          3D

  0  0  0  0  0  0  0  0  0  0999 V3000
M  V30 BEGIN CTAB
M  V30 COUNTS 48 52 0 0 0
M  V30 BEGIN ATOM
M  V30 1 O 5.166634 -4.208405 1.914658 0
M  V30 2 C 4.709530 -3.032790 1.720347 0
M  V30 3 N 5.663982 -2.005047 1.769331 0
M  V30 4 C 7.049793 -2.241842 2.017588 0
M  V30 5 C 7.684310 -1.311384 3.025557 0
M  V30 6 C 8.099916 -1.283706 1.601216 0
M  V30 7 C 3.295309 -2.809402 1.468873 0
M  V30 8 C 2.731388 -1.552213 1.250075 0
M  V30 9 C 1.376932 -1.431681 1.018525 0
M  V30 10 C 0.525845 -2.516560 0.990725 0
M  V30 11 C -0.914042 -2.440966 0.749859 0
M  V30 12 C -1.578300 -1.253735 0.522309 0
M  V30 13 C -2.936123 -1.169162 0.294178 0
M  V30 14 C -3.569712 0.127227 0.060664 0
M  V30 15 C -4.912413 0.333726 -0.177654 0
M  V30 16 C -5.039195 1.683931 -0.334508 0
M  V30 17 C -3.826382 2.308642 -0.201153 0
M  V30 18 N -2.940249 1.315675 0.042612 0
M  V30 19 C -3.678524 3.783374 -0.326056 0
M  V30 20 C -4.740580 4.335642 -1.227148 0
M  V30 21 N -6.042167 3.915504 -0.722390 0
M  V30 22 C -6.232248 2.496971 -0.609886 0
M  V30 23 O -7.381529 1.975254 -0.743367 0
M  V30 24 C -3.695716 -2.321177 0.287886 0
M  V30 25 C -3.009555 -3.495188 0.517637 0
M  V30 26 N -1.686078 -3.541055 0.736291 0
M  V30 27 C 1.080720 -3.760658 1.206735 0
M  V30 28 C 2.444206 -3.895555 1.441205 0
M  V30 29 H 5.369876 -0.998790 1.618762 0
M  V30 30 H 7.313648 -3.323387 2.171979 0
M  V30 31 H 7.127204 -0.431428 3.410903 0
M  V30 32 H 8.369738 -1.724060 3.781686 0
M  V30 33 H 7.773007 -0.500216 0.900265 0
M  V30 34 H 9.090729 -1.732907 1.377557 0
M  V30 35 H 3.384718 -0.689426 1.268349 0
M  V30 36 H 0.958053 -0.450475 0.851142 0
M  V30 37 H -1.044575 -0.331848 0.515340 0
M  V30 38 H -5.634145 -0.445367 -0.215893 0
M  V30 39 H -1.904212 1.489818 0.192830 0
M  V30 40 H -3.777087 4.294752 0.654759 0
M  V30 41 H -2.688124 4.002354 -0.803329 0
M  V30 42 H -4.644137 3.968888 -2.268480 0
M  V30 43 H -4.646218 5.440845 -1.244254 0
M  V30 44 H -6.842336 4.540935 -0.437421 0
M  V30 45 H -4.763312 -2.323427 0.115439 0
M  V30 46 H -3.595194 -4.403889 0.514920 0
M  V30 47 H 0.450857 -4.639582 1.193862 0
M  V30 48 H 2.799781 -4.915419 1.602204 0
M  V30 END ATOM
M  V30 BEGIN BOND
M  V30 1 2 1 2
M  V30 2 1 2 3
M  V30 3 1 3 4
M  V30 4 1 4 5
M  V30 5 1 5 6
M  V30 6 1 2 7
M  V30 7 2 7 8
M  V30 8 1 8 9
M  V30 9 2 9 10
M  V30 10 1 10 11
M  V30 11 2 11 12
M  V30 12 1 12 13
M  V30 13 1 13 14
M  V30 14 2 14 15
M  V30 15 1 15 16
M  V30 16 2 16 17
M  V30 17 1 17 18
M  V30 18 1 17 19
M  V30 19 1 19 20
M  V30 20 1 20 21
M  V30 21 1 21 22
M  V30 22 2 22 23
M  V30 23 2 13 24
M  V30 24 1 24 25
M  V30 25 2 25 26
M  V30 26 1 10 27
M  V30 27 2 27 28
M  V30 28 1 6 4
M  V30 29 1 28 7
M  V30 30 1 26 11
M  V30 31 1 18 14
M  V30 32 1 22 16
M  V30 33 1 3 29
M  V30 34 1 4 30
M  V30 35 1 5 31
M  V30 36 1 5 32
M  V30 37 1 6 33
M  V30 38 1 6 34
M  V30 39 1 8 35
M  V30 40 1 9 36
M  V30 41 1 12 37
M  V30 42 1 15 38
M  V30 43 1 18 39
M  V30 44 1 19 40
M  V30 45 1 19 41
M  V30 46 1 20 42
M  V30 47 1 20 43
M  V30 48 1 21 44
M  V30 49 1 24 45
M  V30 50 1 25 46
M  V30 51 1 27 47
M  V30 52 1 28 48
M  V30 END BOND
M  V30 END CTAB
M  END
>  <Dataset>  (520) 
ChEMBL_Kinases

>  <Ligand_Instance>  (520) 
nan

>  <PDB_ID>  (520) 
nan

>  <Standardized_SMILES>  (520) 
O=C(NC1CC1)c1ccc(-c2cc(-c3cc4c([nH]3)CCNC4=O)ccn2)cc1

>  <Name>  (520) 
nan

>  <Pocket>  (520) 
nan

>  <ATP_Site>  (520) 
nan

>  <Peripheral>  (520) 
nan

>  <Num_H_Atoms_ProtBoundConf>  (520) 
nan

>  <Num_Resolved_Atoms>  (520) 
nan

>  <Num_Not_Resolved_Atoms>  (520) 
nan

$$$$
CHEMBL22618
     RDKit          3D

  0  0  0  0  0  0  0  0  0  0999 V3000
M  V30 BEGIN CTAB
M  V30 COUNTS 39 42 0 0 0
M  V30 BEGIN ATOM
M  V30 1 O 1.632296 -1.833991 4.394500 0
M  V30 2 C 1.514814 -0.606448 3.792366 0
M  V30 3 C 0.862145 -0.589533 2.454394 0
M  V30 4 N 1.085963 -1.590837 1.583276 0
M  V30 5 C 0.391123 -1.360716 0.441165 0
M  V30 6 C 0.214125 -2.036892 -0.830728 0
M  V30 7 C -0.922121 -2.576409 -1.390567 0
M  V30 8 C -0.845687 -3.181251 -2.639469 0
M  V30 9 C 0.341024 -3.257957 -3.339196 0
M  V30 10 F 0.248140 -3.881192 -4.546817 0
M  V30 11 C 1.475157 -2.719555 -2.780737 0
M  V30 12 C 1.414372 -2.110622 -1.531144 0
M  V30 13 C -0.281357 -0.172094 0.626327 0
M  V30 14 C -1.195994 0.664754 -0.159750 0
M  V30 15 C -2.475999 0.940548 0.336695 0
M  V30 16 C -3.437677 1.707386 -0.291265 0
M  V30 17 N -3.077287 2.223907 -1.493707 0
M  V30 18 C -1.853927 1.973180 -1.991478 0
M  V30 19 C -0.876056 1.212676 -1.387237 0
M  V30 20 N 0.017094 0.291829 1.868896 0
M  V30 21 C 2.876807 0.096705 3.824567 0
M  V30 22 C 2.485134 0.527943 5.232604 0
M  V30 23 C 1.040926 0.498836 4.713240 0
M  V30 24 H 2.368494 -2.366390 3.998762 0
M  V30 25 H -1.786054 -2.465704 -0.770717 0
M  V30 26 H -1.798650 -3.583108 -3.007634 0
M  V30 27 H 2.360868 -2.819473 -3.389879 0
M  V30 28 H 2.405663 -1.740185 -1.244373 0
M  V30 29 H -2.753185 0.516090 1.311086 0
M  V30 30 H -4.393836 1.855063 0.183160 0
M  V30 31 H -1.593627 2.400157 -2.955948 0
M  V30 32 H 0.091132 1.012408 -1.777132 0
M  V30 33 H -0.257531 1.137807 2.424448 0
M  V30 34 H 2.921073 0.986099 3.181344 0
M  V30 35 H 3.737639 -0.593624 3.807467 0
M  V30 36 H 2.673622 -0.329361 5.941069 0
M  V30 37 H 2.851099 1.502315 5.547557 0
M  V30 38 H 0.284405 0.214534 5.470679 0
M  V30 39 H 0.842837 1.412300 4.140289 0
M  V30 END ATOM
M  V30 BEGIN BOND
M  V30 1 1 1 2
M  V30 2 1 2 3
M  V30 3 2 3 4
M  V30 4 1 4 5
M  V30 5 1 5 6
M  V30 6 2 6 7
M  V30 7 1 7 8
M  V30 8 2 8 9
M  V30 9 1 9 10
M  V30 10 1 9 11
M  V30 11 2 11 12
M  V30 12 2 5 13
M  V30 13 1 13 14
M  V30 14 2 14 15
M  V30 15 1 15 16
M  V30 16 2 16 17
M  V30 17 1 17 18
M  V30 18 2 18 19
M  V30 19 1 13 20
M  V30 20 1 2 21
M  V30 21 1 21 22
M  V30 22 1 22 23
M  V30 23 1 23 2
M  V30 24 1 20 3
M  V30 25 1 12 6
M  V30 26 1 19 14
M  V30 27 1 1 24
M  V30 28 1 7 25
M  V30 29 1 8 26
M  V30 30 1 11 27
M  V30 31 1 12 28
M  V30 32 1 15 29
M  V30 33 1 16 30
M  V30 34 1 18 31
M  V30 35 1 19 32
M  V30 36 1 20 33
M  V30 37 1 21 34
M  V30 38 1 21 35
M  V30 39 1 22 36
M  V30 40 1 22 37
M  V30 41 1 23 38
M  V30 42 1 23 39
M  V30 END BOND
M  V30 END CTAB
M  END
>  <Dataset>  (521) 
ChEMBL_Kinases

>  <Ligand_Instance>  (521) 
nan

>  <PDB_ID>  (521) 
nan

>  <Standardized_SMILES>  (521) 
OC1(c2nc(-c3ccc(F)cc3)c(-c3ccncc3)[nH]2)CCC1

>  <Name>  (521) 
nan

>  <Pocket>  (521) 
nan

>  <ATP_Site>  (521) 
nan

>  <Peripheral>  (521) 
nan

>  <Num_H_Atoms_ProtBoundConf>  (521) 
nan

>  <Num_Resolved_Atoms>  (521) 
nan

>  <Num_Not_Resolved_Atoms>  (521) 
nan

$$$$
CHEMBL226148
     RDKit          3D

  0  0  0  0  0  0  0  0  0  0999 V3000
M  V30 BEGIN CTAB
M  V30 COUNTS 50 54 0 0 0
M  V30 BEGIN ATOM
M  V30 1 N -2.749773 -0.789745 0.952592 0
M  V30 2 C -1.973268 -1.388468 2.012967 0 CFG=2
M  V30 3 C -0.563357 -1.656203 1.619092 0
M  V30 4 O 0.091742 -0.434214 1.238616 0
M  V30 5 C 1.417444 -0.390890 0.826561 0
M  V30 6 C 2.326825 -1.439036 0.702654 0
M  V30 7 N 3.575806 -1.172720 0.281650 0
M  V30 8 C 3.997997 0.073133 -0.030652 0
M  V30 9 C 3.129501 1.154284 0.075823 0
M  V30 10 C 3.612883 2.486894 -0.267799 0
M  V30 11 C 4.563714 2.751945 -1.228955 0
M  V30 12 C 4.935907 4.065067 -1.457252 0
M  V30 13 C 4.394829 5.137293 -0.760680 0
M  V30 14 N 4.555750 6.474750 -0.764989 0
M  V30 15 N 3.752821 7.035450 0.142600 0
M  V30 16 C 3.048090 6.076184 0.761477 0
M  V30 17 Cl 1.855907 6.314882 2.036407 0
M  V30 18 C 3.431492 4.867315 0.212840 0
M  V30 19 C 3.061530 3.559395 0.439457 0
M  V30 20 C 1.854477 0.897900 0.503333 0
M  V30 21 C -2.689668 -2.443985 2.748820 0
M  V30 22 C -3.172810 -3.623286 2.087992 0
M  V30 23 C -3.861398 -4.507817 2.947540 0
M  V30 24 N -4.274964 -5.571409 2.266359 0
M  V30 25 C -3.929198 -5.509863 0.974268 0
M  V30 26 C -4.050022 -6.247932 -0.179957 0
M  V30 27 C -3.528758 -5.828645 -1.386866 0
M  V30 28 C -2.856832 -4.603598 -1.409773 0
M  V30 29 C -2.728519 -3.862931 -0.280814 0
M  V30 30 C -3.259204 -4.309796 0.901641 0
M  V30 31 H -3.445427 -0.108147 1.313272 0
M  V30 32 H -2.190209 -0.399901 0.191163 0
M  V30 33 H -1.881140 -0.498090 2.762612 0
M  V30 34 H 0.031889 -1.977479 2.534938 0
M  V30 35 H -0.381024 -2.453001 0.895570 0
M  V30 36 H 1.908781 -2.378194 0.968684 0
M  V30 37 H 5.027873 0.219588 -0.367163 0
M  V30 38 H 4.982751 1.927770 -1.767619 0
M  V30 39 H 5.678659 4.299448 -2.204837 0
M  V30 40 H 5.225254 6.948357 -1.406842 0
M  V30 41 H 2.298391 3.430879 1.221473 0
M  V30 42 H 1.224711 1.785910 0.565175 0
M  V30 43 H -2.070006 -2.712321 3.681299 0
M  V30 44 H -3.582564 -1.934146 3.266301 0
M  V30 45 H -4.118933 -4.505592 4.018880 0
M  V30 46 H -4.814879 -6.426029 2.577773 0
M  V30 47 H -4.594605 -7.195214 -0.058648 0
M  V30 48 H -3.692377 -6.503967 -2.224713 0
M  V30 49 H -2.468071 -4.311513 -2.356443 0
M  V30 50 H -2.206495 -2.963752 -0.406567 0
M  V30 END ATOM
M  V30 BEGIN BOND
M  V30 1 1 1 2
M  V30 2 1 2 3
M  V30 3 1 3 4
M  V30 4 1 4 5
M  V30 5 2 5 6
M  V30 6 1 6 7
M  V30 7 2 7 8
M  V30 8 1 8 9
M  V30 9 1 9 10
M  V30 10 2 10 11
M  V30 11 1 11 12
M  V30 12 2 12 13
M  V30 13 1 13 14
M  V30 14 1 14 15
M  V30 15 2 15 16
M  V30 16 1 16 17
M  V30 17 1 16 18
M  V30 18 2 18 19
M  V30 19 2 9 20
M  V30 20 1 2 21
M  V30 21 1 21 22
M  V30 22 2 22 23
M  V30 23 1 23 24
M  V30 24 1 24 25
M  V30 25 2 25 26
M  V30 26 1 26 27
M  V30 27 2 27 28
M  V30 28 1 28 29
M  V30 29 2 29 30
M  V30 30 1 20 5
M  V30 31 1 30 22
M  V30 32 1 19 10
M  V30 33 1 30 25
M  V30 34 1 18 13
M  V30 35 1 1 31
M  V30 36 1 1 32
M  V30 37 1 2 33 CFG=1
M  V30 38 1 3 34
M  V30 39 1 3 35
M  V30 40 1 6 36
M  V30 41 1 8 37
M  V30 42 1 11 38
M  V30 43 1 12 39
M  V30 44 1 14 40
M  V30 45 1 19 41
M  V30 46 1 20 42
M  V30 47 1 21 43
M  V30 48 1 21 44
M  V30 49 1 23 45
M  V30 50 1 24 46
M  V30 51 1 26 47
M  V30 52 1 27 48
M  V30 53 1 28 49
M  V30 54 1 29 50
M  V30 END BOND
M  V30 END CTAB
M  END
>  <Dataset>  (522) 
ChEMBL_Kinases

>  <Ligand_Instance>  (522) 
nan

>  <PDB_ID>  (522) 
nan

>  <Standardized_SMILES>  (522) 
N[C@H](COc1cncc(-c2ccc3[nH]nc(Cl)c3c2)c1)Cc1c[nH]c2ccccc12

>  <Name>  (522) 
nan

>  <Pocket>  (522) 
nan

>  <ATP_Site>  (522) 
nan

>  <Peripheral>  (522) 
nan

>  <Num_H_Atoms_ProtBoundConf>  (522) 
nan

>  <Num_Resolved_Atoms>  (522) 
nan

>  <Num_Not_Resolved_Atoms>  (522) 
nan

$$$$
CHEMBL225975
     RDKit          3D

  0  0  0  0  0  0  0  0  0  0999 V3000
M  V30 BEGIN CTAB
M  V30 COUNTS 36 39 0 0 0
M  V30 BEGIN ATOM
M  V30 1 O 0.109646 -3.382085 3.946833 0
M  V30 2 C 1.001099 -3.738927 3.111173 0
M  V30 3 N 1.836992 -4.902055 3.245970 0
M  V30 4 C 2.345294 -5.411484 2.016214 0
M  V30 5 C 2.968417 -4.390407 1.116359 0
M  V30 6 C 2.146666 -3.193320 0.924242 0
M  V30 7 N 2.035478 -2.228337 0.008019 0
M  V30 8 C 1.085878 -1.331086 0.324882 0
M  V30 9 C 0.697767 -0.152705 -0.445445 0
M  V30 10 C 1.343313 0.115913 -1.634818 0
M  V30 11 C 0.932669 1.257113 -2.332887 0
M  V30 12 N -0.061921 2.047310 -1.835317 0
M  V30 13 C -0.678318 1.765945 -0.672068 0
M  V30 14 C -1.726087 2.678579 -0.236881 0
M  V30 15 C -2.033924 3.770881 -1.022852 0
M  V30 16 C -3.032421 4.639487 -0.606893 0
M  V30 17 C -3.741771 4.451535 0.581219 0
M  V30 18 N -3.402385 3.381536 1.298891 0
M  V30 19 C -2.440294 2.516154 0.929640 0
M  V30 20 C -0.305373 0.663975 0.034573 0
M  V30 21 C 0.547991 -1.744962 1.526617 0
M  V30 22 C 1.199190 -2.902395 1.910336 0
M  V30 23 H 1.961801 -5.224157 4.250079 0
M  V30 24 H 3.126457 -6.175640 2.261718 0
M  V30 25 H 1.540370 -5.963253 1.490808 0
M  V30 26 H 3.104509 -4.860035 0.112930 0
M  V30 27 H 3.997815 -4.114475 1.442881 0
M  V30 28 H 2.658104 -2.248372 -0.829730 0
M  V30 29 H 2.140627 -0.505626 -2.046928 0
M  V30 30 H 1.378938 1.550587 -3.274593 0
M  V30 31 H -1.513147 3.975618 -1.969145 0
M  V30 32 H -3.254086 5.492867 -1.246983 0
M  V30 33 H -4.515528 5.163877 0.860041 0
M  V30 34 H -2.239186 1.692485 1.565159 0
M  V30 35 H -0.770520 0.416172 0.951737 0
M  V30 36 H -0.230393 -1.237582 2.039205 0
M  V30 END ATOM
M  V30 BEGIN BOND
M  V30 1 2 1 2
M  V30 2 1 2 3
M  V30 3 1 3 4
M  V30 4 1 4 5
M  V30 5 1 5 6
M  V30 6 1 6 7
M  V30 7 1 7 8
M  V30 8 1 8 9
M  V30 9 2 9 10
M  V30 10 1 10 11
M  V30 11 2 11 12
M  V30 12 1 12 13
M  V30 13 1 13 14
M  V30 14 2 14 15
M  V30 15 1 15 16
M  V30 16 2 16 17
M  V30 17 1 17 18
M  V30 18 2 18 19
M  V30 19 2 13 20
M  V30 20 2 8 21
M  V30 21 1 21 22
M  V30 22 1 22 2
M  V30 23 2 22 6
M  V30 24 1 20 9
M  V30 25 1 19 14
M  V30 26 1 3 23
M  V30 27 1 4 24
M  V30 28 1 4 25
M  V30 29 1 5 26
M  V30 30 1 5 27
M  V30 31 1 7 28
M  V30 32 1 10 29
M  V30 33 1 11 30
M  V30 34 1 15 31
M  V30 35 1 16 32
M  V30 36 1 17 33
M  V30 37 1 19 34
M  V30 38 1 20 35
M  V30 39 1 21 36
M  V30 END BOND
M  V30 END CTAB
M  END
>  <Dataset>  (523) 
ChEMBL_Kinases

>  <Ligand_Instance>  (523) 
nan

>  <PDB_ID>  (523) 
nan

>  <Standardized_SMILES>  (523) 
O=C1NCCc2[nH]c(-c3ccnc(-c4cccnc4)c3)cc21

>  <Name>  (523) 
nan

>  <Pocket>  (523) 
nan

>  <ATP_Site>  (523) 
nan

>  <Peripheral>  (523) 
nan

>  <Num_H_Atoms_ProtBoundConf>  (523) 
nan

>  <Num_Resolved_Atoms>  (523) 
nan

>  <Num_Not_Resolved_Atoms>  (523) 
nan

$$$$
CHEMBL225973
     RDKit          3D

  0  0  0  0  0  0  0  0  0  0999 V3000
M  V30 BEGIN CTAB
M  V30 COUNTS 36 39 0 0 0
M  V30 BEGIN ATOM
M  V30 1 O 0.637918 -2.866260 4.419613 0
M  V30 2 C 1.381909 -3.208128 3.482380 0
M  V30 3 N 2.318354 -4.298628 3.618210 0
M  V30 4 C 2.862522 -4.964673 2.478821 0
M  V30 5 C 3.170281 -4.072047 1.313408 0
M  V30 6 C 2.218462 -2.961844 1.171843 0
M  V30 7 N 2.011335 -2.187486 0.079487 0
M  V30 8 C 1.052690 -1.294678 0.385906 0
M  V30 9 C 0.550373 -0.281808 -0.539432 0
M  V30 10 C 1.064824 -0.203236 -1.814841 0
M  V30 11 C 0.532194 0.782566 -2.620192 0
M  V30 12 N -0.420471 1.622131 -2.220691 0
M  V30 13 C -0.958776 1.585340 -0.976647 0
M  V30 14 C -2.002947 2.512354 -0.552403 0
M  V30 15 C -2.584179 2.519206 0.698066 0
M  V30 16 C -3.564349 3.460082 0.955491 0
M  V30 17 N -3.949916 4.345200 0.030795 0
M  V30 18 C -3.404368 4.365746 -1.196650 0
M  V30 19 C -2.435144 3.445787 -1.471935 0
M  V30 20 C -0.436164 0.605240 -0.160862 0
M  V30 21 C 0.621266 -1.476606 1.686875 0
M  V30 22 C 1.376023 -2.547999 2.179816 0
M  V30 23 H 2.569583 -4.565634 4.616792 0
M  V30 24 H 3.757869 -5.517329 2.831132 0
M  V30 25 H 2.108209 -5.729072 2.144288 0
M  V30 26 H 4.187238 -3.627860 1.462769 0
M  V30 27 H 3.201528 -4.656494 0.374098 0
M  V30 28 H 2.505154 -2.255325 -0.859546 0
M  V30 29 H 1.838856 -0.859574 -2.190841 0
M  V30 30 H 0.930996 0.856424 -3.634676 0
M  V30 31 H -2.249308 1.789827 1.422770 0
M  V30 32 H -3.960352 3.381021 1.974269 0
M  V30 33 H -3.766652 5.113575 -1.898497 0
M  V30 34 H -2.016369 3.492097 -2.474994 0
M  V30 35 H -0.792116 0.494183 0.834518 0
M  V30 36 H -0.142809 -0.922970 2.245844 0
M  V30 END ATOM
M  V30 BEGIN BOND
M  V30 1 2 1 2
M  V30 2 1 2 3
M  V30 3 1 3 4
M  V30 4 1 4 5
M  V30 5 1 5 6
M  V30 6 1 6 7
M  V30 7 1 7 8
M  V30 8 1 8 9
M  V30 9 2 9 10
M  V30 10 1 10 11
M  V30 11 2 11 12
M  V30 12 1 12 13
M  V30 13 1 13 14
M  V30 14 2 14 15
M  V30 15 1 15 16
M  V30 16 2 16 17
M  V30 17 1 17 18
M  V30 18 2 18 19
M  V30 19 2 13 20
M  V30 20 2 8 21
M  V30 21 1 21 22
M  V30 22 1 22 2
M  V30 23 2 22 6
M  V30 24 1 20 9
M  V30 25 1 19 14
M  V30 26 1 3 23
M  V30 27 1 4 24
M  V30 28 1 4 25
M  V30 29 1 5 26
M  V30 30 1 5 27
M  V30 31 1 7 28
M  V30 32 1 10 29
M  V30 33 1 11 30
M  V30 34 1 15 31
M  V30 35 1 16 32
M  V30 36 1 18 33
M  V30 37 1 19 34
M  V30 38 1 20 35
M  V30 39 1 21 36
M  V30 END BOND
M  V30 END CTAB
M  END
>  <Dataset>  (524) 
ChEMBL_Kinases

>  <Ligand_Instance>  (524) 
nan

>  <PDB_ID>  (524) 
nan

>  <Standardized_SMILES>  (524) 
O=C1NCCc2[nH]c(-c3ccnc(-c4ccncc4)c3)cc21

>  <Name>  (524) 
nan

>  <Pocket>  (524) 
nan

>  <ATP_Site>  (524) 
nan

>  <Peripheral>  (524) 
nan

>  <Num_H_Atoms_ProtBoundConf>  (524) 
nan

>  <Num_Resolved_Atoms>  (524) 
nan

>  <Num_Not_Resolved_Atoms>  (524) 
nan

$$$$
CHEMBL225789
     RDKit          3D

  0  0  0  0  0  0  0  0  0  0999 V3000
M  V30 BEGIN CTAB
M  V30 COUNTS 52 56 0 0 0
M  V30 BEGIN ATOM
M  V30 1 N 2.582789 -0.183679 -2.458828 0
M  V30 2 C 3.324002 0.851947 -1.826722 0
M  V30 3 C 4.694900 0.774552 -1.948297 0
M  V30 4 C 5.563624 1.709487 -1.389568 0
M  V30 5 N 6.887983 1.906581 -1.331678 0
M  V30 6 N 7.102144 3.007057 -0.631813 0
M  V30 7 C 5.926840 3.535868 -0.228428 0
M  V30 8 Cl 5.849852 5.009286 0.727569 0
M  V30 9 C 4.903792 2.728580 -0.696456 0
M  V30 10 C 3.539935 2.852804 -0.544860 0
M  V30 11 C 2.745353 1.886369 -1.127862 0
M  V30 12 C 1.294621 1.952139 -1.006875 0
M  V30 13 C 0.507742 3.068662 -1.187680 0
M  V30 14 N -0.843641 2.976407 -1.038358 0
M  V30 15 C -1.373948 1.763864 -0.710310 0
M  V30 16 C -0.643349 0.571417 -0.506360 0
M  V30 17 O -1.567799 -0.345443 -0.209441 0
M  V30 18 C -1.537153 -1.662884 0.105168 0
M  V30 19 C -0.844091 -2.114251 1.341014 0 CFG=1
M  V30 20 N 0.536849 -1.847567 1.470073 0
M  V30 21 C -1.634729 -1.510165 2.517681 0
M  V30 22 C -3.029819 -2.019800 2.455199 0
M  V30 23 C -4.221356 -1.427791 2.038322 0
M  V30 24 N -5.225459 -2.325116 2.179033 0
M  V30 25 C -4.734127 -3.484393 2.673442 0
M  V30 26 C -5.361436 -4.673004 2.983212 0
M  V30 27 C -4.637199 -5.757431 3.492339 0
M  V30 28 C -3.278758 -5.531210 3.650099 0
M  V30 29 C -2.622598 -4.352816 3.349136 0
M  V30 30 C -3.374773 -3.310216 2.849690 0
M  V30 31 C 0.706679 0.752875 -0.676620 0
M  V30 32 H 2.299250 -1.174984 -2.415050 0
M  V30 33 H 2.130037 0.207594 -3.335271 0
M  V30 34 H 5.184616 -0.042032 -2.501648 0
M  V30 35 H 7.566330 1.245734 -1.793746 0
M  V30 36 H 3.135164 3.683570 0.012900 0
M  V30 37 H 1.086703 3.945800 -1.443375 0
M  V30 38 H -2.452973 1.984935 -0.658794 0
M  V30 39 H -2.614410 -2.038844 0.118009 0
M  V30 40 H -1.120391 -2.246866 -0.785068 0
M  V30 41 H -1.067593 -3.221387 1.433597 0
M  V30 42 H 0.686710 -1.178297 2.263297 0
M  V30 43 H 1.055579 -2.714371 1.743133 0
M  V30 44 H -1.639225 -0.426756 2.334384 0
M  V30 45 H -1.121803 -1.807039 3.445274 0
M  V30 46 H -4.250708 -0.399491 1.670900 0
M  V30 47 H -6.226589 -2.125573 1.933701 0
M  V30 48 H -6.424103 -4.828797 2.852469 0
M  V30 49 H -5.046107 -6.722378 3.761493 0
M  V30 50 H -2.690037 -6.355522 4.044196 0
M  V30 51 H -1.570664 -4.299358 3.514596 0
M  V30 52 H 1.207687 -0.184608 -0.523132 0
M  V30 END ATOM
M  V30 BEGIN BOND
M  V30 1 1 1 2
M  V30 2 2 2 3
M  V30 3 1 3 4
M  V30 4 1 4 5
M  V30 5 1 5 6
M  V30 6 2 6 7
M  V30 7 1 7 8
M  V30 8 1 7 9
M  V30 9 1 9 10
M  V30 10 2 10 11
M  V30 11 1 11 12
M  V30 12 2 12 13
M  V30 13 1 13 14
M  V30 14 2 14 15
M  V30 15 1 15 16
M  V30 16 1 16 17
M  V30 17 1 17 18
M  V30 18 1 18 19
M  V30 19 1 19 20
M  V30 20 1 19 21
M  V30 21 1 21 22
M  V30 22 2 22 23
M  V30 23 1 23 24
M  V30 24 1 24 25
M  V30 25 2 25 26
M  V30 26 1 26 27
M  V30 27 2 27 28
M  V30 28 1 28 29
M  V30 29 2 29 30
M  V30 30 2 16 31
M  V30 31 1 11 2
M  V30 32 1 31 12
M  V30 33 2 9 4
M  V30 34 1 30 22
M  V30 35 1 30 25
M  V30 36 1 1 32
M  V30 37 1 1 33
M  V30 38 1 3 34
M  V30 39 1 5 35
M  V30 40 1 10 36
M  V30 41 1 13 37
M  V30 42 1 15 38
M  V30 43 1 18 39
M  V30 44 1 18 40
M  V30 45 1 19 41 CFG=1
M  V30 46 1 20 42
M  V30 47 1 20 43
M  V30 48 1 21 44
M  V30 49 1 21 45
M  V30 50 1 23 46
M  V30 51 1 24 47
M  V30 52 1 26 48
M  V30 53 1 27 49
M  V30 54 1 28 50
M  V30 55 1 29 51
M  V30 56 1 31 52
M  V30 END BOND
M  V30 END CTAB
M  END
>  <Dataset>  (525) 
ChEMBL_Kinases

>  <Ligand_Instance>  (525) 
nan

>  <PDB_ID>  (525) 
nan

>  <Standardized_SMILES>  (525) 
Nc1cc2[nH]nc(Cl)c2cc1-c1cncc(OC[C@@H](N)Cc2c[nH]c3ccccc23)c1

>  <Name>  (525) 
nan

>  <Pocket>  (525) 
nan

>  <ATP_Site>  (525) 
nan

>  <Peripheral>  (525) 
nan

>  <Num_H_Atoms_ProtBoundConf>  (525) 
nan

>  <Num_Resolved_Atoms>  (525) 
nan

>  <Num_Not_Resolved_Atoms>  (525) 
nan

$$$$
CHEMBL225788
     RDKit          3D

  0  0  0  0  0  0  0  0  0  0999 V3000
M  V30 BEGIN CTAB
M  V30 COUNTS 52 56 0 0 0
M  V30 BEGIN ATOM
M  V30 1 N -1.999434 -3.227608 4.032441 0
M  V30 2 C -1.483217 -2.382884 2.939191 0 CFG=2
M  V30 3 C -2.191261 -1.062809 3.034861 0
M  V30 4 O -1.828072 -0.116003 2.083885 0
M  V30 5 C -0.582156 0.426577 1.996877 0
M  V30 6 C 0.634899 0.369919 2.634256 0
M  V30 7 N 1.700322 1.079552 2.251345 0
M  V30 8 C 1.694656 1.922591 1.204148 0
M  V30 9 C 0.517177 2.064808 0.479072 0
M  V30 10 C 0.549117 2.954951 -0.639018 0
M  V30 11 C 1.633724 2.752416 -1.491692 0
M  V30 12 C 1.824700 3.491930 -2.653395 0
M  V30 13 C 2.758694 3.533476 -3.667891 0
M  V30 14 N 2.351755 4.500334 -4.509502 0
M  V30 15 N 1.228883 5.065770 -4.091145 0
M  V30 16 C 0.868540 4.454226 -2.923971 0
M  V30 17 C -0.218309 4.686129 -2.106646 0
M  V30 18 C -0.363512 3.931541 -0.970898 0
M  V30 19 N -1.459305 4.141783 -0.137732 0 CHG=1 VAL=4
M  V30 20 O -2.574885 4.543474 -0.585298 0
M  V30 21 O -1.668839 4.003782 1.237511 0 CHG=-1 VAL=1
M  V30 22 C -0.593285 1.309005 0.897819 0
M  V30 23 C -1.927631 -3.106463 1.669968 0
M  V30 24 C -1.388728 -4.462694 1.561070 0
M  V30 25 C -1.957769 -5.703632 1.763704 0
M  V30 26 N -1.016278 -6.631038 1.522490 0
M  V30 27 C 0.159951 -6.038563 1.166317 0
M  V30 28 C 1.402835 -6.575936 0.825140 0
M  V30 29 C 2.433729 -5.741672 0.502597 0
M  V30 30 C 2.219576 -4.373569 0.521355 0
M  V30 31 C 0.991851 -3.826845 0.857107 0
M  V30 32 C -0.062881 -4.680659 1.187728 0
M  V30 33 H -1.254750 -3.846759 4.402050 0
M  V30 34 H -2.874278 -3.722321 3.752875 0
M  V30 35 H -0.409389 -2.301336 2.937490 0
M  V30 36 H -3.300068 -1.183845 3.054368 0
M  V30 37 H -1.964218 -0.694409 4.086008 0
M  V30 38 H 0.582464 -0.304490 3.472023 0
M  V30 39 H 2.626705 2.431650 1.006178 0
M  V30 40 H 2.400591 2.010733 -1.314925 0
M  V30 41 H 3.595361 2.871042 -3.666446 0
M  V30 42 H 0.707354 5.850697 -4.576956 0
M  V30 43 H -0.966463 5.434076 -2.311955 0
M  V30 44 H -1.427350 1.523823 0.221684 0
M  V30 45 H -3.044358 -3.132303 1.685961 0
M  V30 46 H -1.639994 -2.483032 0.803476 0
M  V30 47 H -2.990759 -5.826054 2.062845 0
M  V30 48 H -1.196678 -7.661417 1.606380 0
M  V30 49 H 1.588598 -7.628667 0.804433 0
M  V30 50 H 3.406684 -6.108293 0.233278 0
M  V30 51 H 3.006832 -3.662629 0.271362 0
M  V30 52 H 0.863206 -2.764900 0.861868 0
M  V30 END ATOM
M  V30 BEGIN BOND
M  V30 1 1 1 2
M  V30 2 1 2 3
M  V30 3 1 3 4
M  V30 4 1 4 5
M  V30 5 2 5 6
M  V30 6 1 6 7
M  V30 7 2 7 8
M  V30 8 1 8 9
M  V30 9 1 9 10
M  V30 10 2 10 11
M  V30 11 1 11 12
M  V30 12 1 12 13
M  V30 13 2 13 14
M  V30 14 1 14 15
M  V30 15 1 15 16
M  V30 16 1 16 17
M  V30 17 2 17 18
M  V30 18 1 18 19
M  V30 19 2 19 20
M  V30 20 1 19 21
M  V30 21 2 9 22
M  V30 22 1 2 23
M  V30 23 1 23 24
M  V30 24 2 24 25
M  V30 25 1 25 26
M  V30 26 1 26 27
M  V30 27 2 27 28
M  V30 28 1 28 29
M  V30 29 2 29 30
M  V30 30 1 30 31
M  V30 31 2 31 32
M  V30 32 1 22 5
M  V30 33 1 32 24
M  V30 34 1 18 10
M  V30 35 1 32 27
M  V30 36 2 16 12
M  V30 37 1 1 33
M  V30 38 1 1 34
M  V30 39 1 2 35 CFG=3
M  V30 40 1 3 36
M  V30 41 1 3 37
M  V30 42 1 6 38
M  V30 43 1 8 39
M  V30 44 1 11 40
M  V30 45 1 13 41
M  V30 46 1 15 42
M  V30 47 1 17 43
M  V30 48 1 22 44
M  V30 49 1 23 45
M  V30 50 1 23 46
M  V30 51 1 25 47
M  V30 52 1 26 48
M  V30 53 1 28 49
M  V30 54 1 29 50
M  V30 55 1 30 51
M  V30 56 1 31 52
M  V30 END BOND
M  V30 END CTAB
M  END
>  <Dataset>  (526) 
ChEMBL_Kinases

>  <Ligand_Instance>  (526) 
nan

>  <PDB_ID>  (526) 
nan

>  <Standardized_SMILES>  (526) 
N[C@H](COc1cncc(-c2cc3cn[nH]c3cc2[N+](=O)[O-])c1)Cc1c[nH]c2ccccc12

>  <Name>  (526) 
nan

>  <Pocket>  (526) 
nan

>  <ATP_Site>  (526) 
nan

>  <Peripheral>  (526) 
nan

>  <Num_H_Atoms_ProtBoundConf>  (526) 
nan

>  <Num_Resolved_Atoms>  (526) 
nan

>  <Num_Not_Resolved_Atoms>  (526) 
nan

$$$$
CHEMBL225548
     RDKit          3D

  0  0  0  0  0  0  0  0  0  0999 V3000
M  V30 BEGIN CTAB
M  V30 COUNTS 64 67 0 0 0
M  V30 BEGIN ATOM
M  V30 1 C 6.713741 -0.311466 3.251332 0
M  V30 2 C 5.581540 0.405023 2.614074 0
M  V30 3 O 4.774685 0.946846 3.445505 0
M  V30 4 N 5.257305 0.581327 1.231851 0
M  V30 5 C 4.062279 1.350189 1.128876 0
M  V30 6 C 2.900138 0.610736 1.119197 0
M  V30 7 C 1.679361 1.254142 1.025634 0
M  V30 8 C 0.310608 0.750884 0.988295 0
M  V30 9 C -0.578849 0.963413 -0.059096 0
M  V30 10 C -0.392998 1.687413 -1.315461 0
M  V30 11 C 0.514310 1.312096 -2.284364 0
M  V30 12 C 0.602453 2.080110 -3.429636 0
M  V30 13 C -0.176938 3.197267 -3.634729 0
M  V30 14 F -0.045988 3.917135 -4.783378 0
M  V30 15 C -1.076553 3.529650 -2.621442 0
M  V30 16 C -1.199591 2.795459 -1.464580 0
M  V30 17 N -1.707452 0.327373 0.347024 0
M  V30 18 C -1.536381 -0.236341 1.549289 0
M  V30 19 S -2.908784 -1.141980 2.303138 0
M  V30 20 C -4.357108 -1.100336 1.233504 0
M  V30 21 C -4.180223 -1.822433 -0.044467 0
M  V30 22 C -3.898354 -3.237604 -0.023699 0
M  V30 23 O -4.108085 -3.642478 1.176316 0
M  V30 24 N -3.492314 -4.352951 -0.769140 0
M  V30 25 C -3.154532 -4.189813 -2.178972 0
M  V30 26 C -2.044267 -5.204280 -2.485123 0
M  V30 27 O -1.246692 -5.330018 -1.328355 0
M  V30 28 C -1.935116 -6.243655 -0.507917 0
M  V30 29 C -3.346714 -5.724437 -0.368515 0
M  V30 30 N -0.293986 0.023815 1.944881 0
M  V30 31 C 0.235982 -0.436826 3.210020 0
M  V30 32 C 0.012404 0.565036 4.329933 0
M  V30 33 O -1.316997 0.847299 4.555351 0
M  V30 34 C 1.717032 2.653810 0.944760 0
M  V30 35 C 2.893561 3.369580 0.955624 0
M  V30 36 N 4.076726 2.699356 1.049153 0
M  V30 37 H 7.419214 0.378644 3.762608 0
M  V30 38 H 7.249652 -0.971680 2.530835 0
M  V30 39 H 6.269870 -0.990299 4.017772 0
M  V30 40 H 5.971351 0.102406 0.610348 0
M  V30 41 H 2.759715 -0.459773 1.174514 0
M  V30 42 H 1.125741 0.421775 -2.101253 0
M  V30 43 H 1.342398 1.727630 -4.159514 0
M  V30 44 H -1.655850 4.428253 -2.862171 0
M  V30 45 H -1.928244 3.138438 -0.738315 0
M  V30 46 H -5.222696 -1.431380 1.819940 0
M  V30 47 H -4.537972 -0.034294 0.991796 0
M  V30 48 H -3.402059 -1.325000 -0.685080 0
M  V30 49 H -5.142635 -1.683354 -0.626993 0
M  V30 50 H -2.765859 -3.179158 -2.387499 0
M  V30 51 H -4.030851 -4.468323 -2.778238 0
M  V30 52 H -1.453446 -4.913264 -3.354094 0
M  V30 53 H -2.452253 -6.212628 -2.690721 0
M  V30 54 H -1.901129 -7.213869 -1.061149 0
M  V30 55 H -1.420404 -6.401301 0.450512 0
M  V30 56 H -3.973656 -6.337493 -1.079425 0
M  V30 57 H -3.689430 -5.886115 0.688563 0
M  V30 58 H 1.339506 -0.570322 3.160197 0
M  V30 59 H -0.243146 -1.396468 3.527086 0
M  V30 60 H 0.570767 1.498018 4.027775 0
M  V30 61 H 0.525809 0.153164 5.215102 0
M  V30 62 H -1.651072 1.406895 3.815298 0
M  V30 63 H 0.834306 3.296659 0.870983 0
M  V30 64 H 2.938640 4.444119 0.889953 0
M  V30 END ATOM
M  V30 BEGIN BOND
M  V30 1 1 1 2
M  V30 2 2 2 3
M  V30 3 1 2 4
M  V30 4 1 4 5
M  V30 5 2 5 6
M  V30 6 1 6 7
M  V30 7 1 7 8
M  V30 8 2 8 9
M  V30 9 1 9 10
M  V30 10 2 10 11
M  V30 11 1 11 12
M  V30 12 2 12 13
M  V30 13 1 13 14
M  V30 14 1 13 15
M  V30 15 2 15 16
M  V30 16 1 9 17
M  V30 17 2 17 18
M  V30 18 1 18 19
M  V30 19 1 19 20
M  V30 20 1 20 21
M  V30 21 1 21 22
M  V30 22 2 22 23
M  V30 23 1 22 24
M  V30 24 1 24 25
M  V30 25 1 25 26
M  V30 26 1 26 27
M  V30 27 1 27 28
M  V30 28 1 28 29
M  V30 29 1 18 30
M  V30 30 1 30 31
M  V30 31 1 31 32
M  V30 32 1 32 33
M  V30 33 2 7 34
M  V30 34 1 34 35
M  V30 35 2 35 36
M  V30 36 1 36 5
M  V30 37 1 30 8
M  V30 38 1 16 10
M  V30 39 1 29 24
M  V30 40 1 1 37
M  V30 41 1 1 38
M  V30 42 1 1 39
M  V30 43 1 4 40
M  V30 44 1 6 41
M  V30 45 1 11 42
M  V30 46 1 12 43
M  V30 47 1 15 44
M  V30 48 1 16 45
M  V30 49 1 20 46
M  V30 50 1 20 47
M  V30 51 1 21 48
M  V30 52 1 21 49
M  V30 53 1 25 50
M  V30 54 1 25 51
M  V30 55 1 26 52
M  V30 56 1 26 53
M  V30 57 1 28 54
M  V30 58 1 28 55
M  V30 59 1 29 56
M  V30 60 1 29 57
M  V30 61 1 31 58
M  V30 62 1 31 59
M  V30 63 1 32 60
M  V30 64 1 32 61
M  V30 65 1 33 62
M  V30 66 1 34 63
M  V30 67 1 35 64
M  V30 END BOND
M  V30 END CTAB
M  END
>  <Dataset>  (527) 
ChEMBL_Kinases

>  <Ligand_Instance>  (527) 
nan

>  <PDB_ID>  (527) 
nan

>  <Standardized_SMILES>  (527) 
CC(=O)Nc1cc(-c2c(-c3ccc(F)cc3)nc(SCCC(=O)N3CCOCC3)n2CCO)ccn1

>  <Name>  (527) 
nan

>  <Pocket>  (527) 
nan

>  <ATP_Site>  (527) 
nan

>  <Peripheral>  (527) 
nan

>  <Num_H_Atoms_ProtBoundConf>  (527) 
nan

>  <Num_Resolved_Atoms>  (527) 
nan

>  <Num_Not_Resolved_Atoms>  (527) 
nan

$$$$
CHEMBL225458
     RDKit          3D

  0  0  0  0  0  0  0  0  0  0999 V3000
M  V30 BEGIN CTAB
M  V30 COUNTS 57 60 0 0 0
M  V30 BEGIN ATOM
M  V30 1 C 1.294959 -3.998078 4.732433 0
M  V30 2 S 1.208135 -4.294365 2.923351 0
M  V30 3 C 1.219840 -2.646602 2.178881 0
M  V30 4 N 2.408687 -2.098316 1.872625 0
M  V30 5 C 2.114811 -0.887218 1.348190 0
M  V30 6 C 3.099956 0.090918 0.861174 0
M  V30 7 C 3.136778 0.480461 -0.469288 0
M  V30 8 C 4.069584 1.399990 -0.902479 0
M  V30 9 C 4.970336 1.926470 0.023796 0
M  V30 10 F 5.857419 2.814603 -0.435181 0
M  V30 11 C 4.935957 1.537975 1.358738 0
M  V30 12 C 3.984670 0.612027 1.756608 0
M  V30 13 C 0.721707 -0.754808 1.361651 0
M  V30 14 C 0.092635 0.463255 0.868142 0
M  V30 15 C 0.188871 1.447121 1.861038 0
M  V30 16 C -0.325729 2.733998 1.668631 0
M  V30 17 N -0.927811 3.001587 0.475310 0
M  V30 18 C -1.016047 2.044613 -0.478599 0
M  V30 19 N -1.643782 2.314758 -1.728294 0
M  V30 20 C -3.030113 1.977738 -1.532359 0
M  V30 21 C -4.207976 2.037907 -2.463191 0
M  V30 22 O -3.430179 1.540422 -0.398809 0
M  V30 23 C -0.520590 0.784699 -0.309586 0
M  V30 24 N 0.162335 -1.859808 1.882961 0
M  V30 25 C -1.213321 -2.163978 2.099475 0
M  V30 26 C -1.923952 -2.849054 0.985515 0
M  V30 27 C -1.342790 -4.182958 0.589838 0
M  V30 28 O -2.051897 -4.397632 -0.619082 0
M  V30 29 C -2.072773 -3.140509 -1.220120 0
M  V30 30 C -3.292139 -2.964637 -2.089872 0
M  V30 31 C -0.857897 -3.058443 -2.143079 0
M  V30 32 O -1.972530 -2.187595 -0.210056 0
M  V30 33 H 1.524812 -4.938009 5.260314 0
M  V30 34 H 0.323338 -3.622556 5.087325 0
M  V30 35 H 2.069161 -3.236255 4.959759 0
M  V30 36 H 2.393023 0.016102 -1.127237 0
M  V30 37 H 4.081215 1.694020 -1.955237 0
M  V30 38 H 5.655296 1.967844 2.063067 0
M  V30 39 H 3.993032 0.332685 2.820109 0
M  V30 40 H 0.643143 1.370960 2.861530 0
M  V30 41 H -0.279563 3.529085 2.398347 0
M  V30 42 H -1.508379 2.646188 -2.694626 0
M  V30 43 H -4.938516 2.740230 -1.969921 0
M  V30 44 H -3.902666 2.409205 -3.445516 0
M  V30 45 H -4.730991 1.058192 -2.502985 0
M  V30 46 H -0.529560 -0.030803 -0.985855 0
M  V30 47 H -1.251309 -2.877264 2.976302 0
M  V30 48 H -1.809757 -1.292663 2.451845 0
M  V30 49 H -3.003718 -3.066819 1.255071 0
M  V30 50 H -0.256435 -4.105047 0.332813 0
M  V30 51 H -1.567594 -4.956297 1.323951 0
M  V30 52 H -4.198554 -3.409874 -1.655337 0
M  V30 53 H -3.455449 -1.910364 -2.337030 0
M  V30 54 H -3.075617 -3.484727 -3.069135 0
M  V30 55 H -0.002644 -2.602328 -1.625177 0
M  V30 56 H -0.651723 -4.067039 -2.550320 0
M  V30 57 H -1.095686 -2.402758 -3.029328 0
M  V30 END ATOM
M  V30 BEGIN BOND
M  V30 1 1 1 2
M  V30 2 1 2 3
M  V30 3 2 3 4
M  V30 4 1 4 5
M  V30 5 1 5 6
M  V30 6 2 6 7
M  V30 7 1 7 8
M  V30 8 2 8 9
M  V30 9 1 9 10
M  V30 10 1 9 11
M  V30 11 2 11 12
M  V30 12 2 5 13
M  V30 13 1 13 14
M  V30 14 2 14 15
M  V30 15 1 15 16
M  V30 16 2 16 17
M  V30 17 1 17 18
M  V30 18 1 18 19
M  V30 19 1 19 20
M  V30 20 1 20 21
M  V30 21 2 20 22
M  V30 22 2 18 23
M  V30 23 1 13 24
M  V30 24 1 24 25
M  V30 25 1 25 26
M  V30 26 1 26 27
M  V30 27 1 27 28
M  V30 28 1 28 29
M  V30 29 1 29 30
M  V30 30 1 29 31
M  V30 31 1 29 32
M  V30 32 1 24 3
M  V30 33 1 32 26
M  V30 34 1 12 6
M  V30 35 1 23 14
M  V30 36 1 1 33
M  V30 37 1 1 34
M  V30 38 1 1 35
M  V30 39 1 7 36
M  V30 40 1 8 37
M  V30 41 1 11 38
M  V30 42 1 12 39
M  V30 43 1 15 40
M  V30 44 1 16 41
M  V30 45 1 19 42
M  V30 46 1 21 43
M  V30 47 1 21 44
M  V30 48 1 21 45
M  V30 49 1 23 46
M  V30 50 1 25 47
M  V30 51 1 25 48
M  V30 52 1 26 49
M  V30 53 1 27 50
M  V30 54 1 27 51
M  V30 55 1 30 52
M  V30 56 1 30 53
M  V30 57 1 30 54
M  V30 58 1 31 55
M  V30 59 1 31 56
M  V30 60 1 31 57
M  V30 END BOND
M  V30 END CTAB
M  END
>  <Dataset>  (528) 
ChEMBL_Kinases

>  <Ligand_Instance>  (528) 
nan

>  <PDB_ID>  (528) 
nan

>  <Standardized_SMILES>  (528) 
CSc1nc(-c2ccc(F)cc2)c(-c2ccnc(NC(C)=O)c2)n1CC1COC(C)(C)O1

>  <Name>  (528) 
nan

>  <Pocket>  (528) 
nan

>  <ATP_Site>  (528) 
nan

>  <Peripheral>  (528) 
nan

>  <Num_H_Atoms_ProtBoundConf>  (528) 
nan

>  <Num_Resolved_Atoms>  (528) 
nan

>  <Num_Not_Resolved_Atoms>  (528) 
nan

$$$$
CHEMBL225419
     RDKit          3D

  0  0  0  0  0  0  0  0  0  0999 V3000
M  V30 BEGIN CTAB
M  V30 COUNTS 63 65 0 0 0
M  V30 BEGIN ATOM
M  V30 1 C 2.756227 4.557453 -0.014113 0
M  V30 2 C 3.107966 3.266507 0.631382 0
M  V30 3 C 4.336849 3.058686 1.223869 0
M  V30 4 C 4.622295 1.836590 1.812268 0
M  V30 5 C 3.668704 0.837912 1.797707 0
M  V30 6 C 3.881450 -0.491321 2.405759 0
M  V30 7 O 2.998757 -1.412880 2.359395 0
M  V30 8 N 5.052044 -0.880242 3.087732 0
M  V30 9 O 4.885299 -2.171131 3.509144 0
M  V30 10 C 2.439175 1.049752 1.203203 0
M  V30 11 C 2.154677 2.261950 0.619311 0
M  V30 12 N 0.847814 2.382359 0.044246 0
M  V30 13 C -0.113489 1.333270 0.012339 0
M  V30 14 N -0.909208 1.116023 1.073744 0
M  V30 15 C -1.832593 0.113213 1.036900 0
M  V30 16 N -2.687630 -0.156379 2.140461 0
M  V30 17 C -3.686470 -1.187478 2.187991 0 CFG=1
M  V30 18 C -4.400018 -1.209612 3.546127 0
M  V30 19 C -5.580994 -2.113879 3.166114 0
M  V30 20 N -5.999035 -1.617554 1.874673 0
M  V30 21 C -4.880981 -0.908111 1.299841 0
M  V30 22 N -1.924046 -0.644262 -0.080286 0
M  V30 23 C -1.106290 -0.408883 -1.151445 0
M  V30 24 N -1.354951 -1.298907 -2.232388 0
M  V30 25 C -2.318329 -0.771867 -3.213303 0
M  V30 26 C -0.885656 -2.579044 -2.576180 0
M  V30 27 C 0.082833 -3.266776 -1.684984 0
M  V30 28 C 1.348777 -2.443508 -1.551275 0
M  V30 29 C 0.514058 -4.589822 -2.322623 0
M  V30 30 C -0.396890 -3.568484 -0.315551 0
M  V30 31 N -0.197643 0.584419 -1.102828 0
M  V30 32 H 3.135446 4.513238 -1.056121 0
M  V30 33 H 1.670343 4.720938 -0.053321 0
M  V30 34 H 3.276099 5.415486 0.466114 0
M  V30 35 H 5.087311 3.836510 1.238065 0
M  V30 36 H 5.575957 1.637345 2.286472 0
M  V30 37 H 5.830738 -0.181625 3.173111 0
M  V30 38 H 4.053342 -2.243768 4.059422 0
M  V30 39 H 1.695808 0.240959 1.203040 0
M  V30 40 H 0.380911 3.184498 -0.420804 0
M  V30 41 H -2.574682 0.459375 3.000605 0
M  V30 42 H -3.323292 -2.197160 1.996790 0
M  V30 43 H -3.755911 -1.665056 4.319674 0
M  V30 44 H -4.806182 -0.225190 3.793896 0
M  V30 45 H -6.358028 -2.150067 3.927016 0
M  V30 46 H -5.120108 -3.120532 2.974238 0
M  V30 47 H -6.319994 -2.386411 1.251692 0
M  V30 48 H -4.641359 -1.283037 0.286412 0
M  V30 49 H -5.099333 0.175849 1.202886 0
M  V30 50 H -2.106185 -1.117679 -4.243170 0
M  V30 51 H -3.340794 -1.152325 -2.947230 0
M  V30 52 H -2.325968 0.348678 -3.216725 0
M  V30 53 H -1.765594 -3.238167 -2.726730 0
M  V30 54 H -0.425075 -2.502009 -3.605632 0
M  V30 55 H 1.258713 -1.756572 -0.685315 0
M  V30 56 H 1.512662 -1.895433 -2.495793 0
M  V30 57 H 2.184200 -3.159733 -1.330820 0
M  V30 58 H 1.120887 -5.191702 -1.599262 0
M  V30 59 H 1.026389 -4.449692 -3.284207 0
M  V30 60 H -0.447585 -5.160540 -2.481772 0
M  V30 61 H 0.079959 -4.509502 0.028992 0
M  V30 62 H -1.489374 -3.740183 -0.276333 0
M  V30 63 H -0.067468 -2.817057 0.447873 0
M  V30 END ATOM
M  V30 BEGIN BOND
M  V30 1 1 1 2
M  V30 2 2 2 3
M  V30 3 1 3 4
M  V30 4 2 4 5
M  V30 5 1 5 6
M  V30 6 2 6 7
M  V30 7 1 6 8
M  V30 8 1 8 9
M  V30 9 1 5 10
M  V30 10 2 10 11
M  V30 11 1 11 12
M  V30 12 1 12 13
M  V30 13 2 13 14
M  V30 14 1 14 15
M  V30 15 1 15 16
M  V30 16 1 16 17
M  V30 17 1 17 18
M  V30 18 1 18 19
M  V30 19 1 19 20
M  V30 20 1 20 21
M  V30 21 2 15 22
M  V30 22 1 22 23
M  V30 23 1 23 24
M  V30 24 1 24 25
M  V30 25 1 24 26
M  V30 26 1 26 27
M  V30 27 1 27 28
M  V30 28 1 27 29
M  V30 29 1 27 30
M  V30 30 2 23 31
M  V30 31 1 11 2
M  V30 32 1 31 13
M  V30 33 1 21 17
M  V30 34 1 1 32
M  V30 35 1 1 33
M  V30 36 1 1 34
M  V30 37 1 3 35
M  V30 38 1 4 36
M  V30 39 1 8 37
M  V30 40 1 9 38
M  V30 41 1 10 39
M  V30 42 1 12 40
M  V30 43 1 16 41
M  V30 44 1 17 42 CFG=3
M  V30 45 1 18 43
M  V30 46 1 18 44
M  V30 47 1 19 45
M  V30 48 1 19 46
M  V30 49 1 20 47
M  V30 50 1 21 48
M  V30 51 1 21 49
M  V30 52 1 25 50
M  V30 53 1 25 51
M  V30 54 1 25 52
M  V30 55 1 26 53
M  V30 56 1 26 54
M  V30 57 1 28 55
M  V30 58 1 28 56
M  V30 59 1 28 57
M  V30 60 1 29 58
M  V30 61 1 29 59
M  V30 62 1 29 60
M  V30 63 1 30 61
M  V30 64 1 30 62
M  V30 65 1 30 63
M  V30 END BOND
M  V30 END CTAB
M  END
>  <Dataset>  (529) 
ChEMBL_Kinases

>  <Ligand_Instance>  (529) 
nan

>  <PDB_ID>  (529) 
nan

>  <Standardized_SMILES>  (529) 
Cc1ccc(C(=O)NO)cc1Nc1nc(N[C@H]2CCNC2)nc(N(C)CC(C)(C)C)n1

>  <Name>  (529) 
nan

>  <Pocket>  (529) 
nan

>  <ATP_Site>  (529) 
nan

>  <Peripheral>  (529) 
nan

>  <Num_H_Atoms_ProtBoundConf>  (529) 
nan

>  <Num_Resolved_Atoms>  (529) 
nan

>  <Num_Not_Resolved_Atoms>  (529) 
nan

$$$$
CHEMBL2236808
     RDKit          3D

  0  0  0  0  0  0  0  0  0  0999 V3000
M  V30 BEGIN CTAB
M  V30 COUNTS 58 63 0 0 0
M  V30 BEGIN ATOM
M  V30 1 O 0.588592 -5.432554 2.824301 0
M  V30 2 C 1.033482 -4.238477 2.768759 0
M  V30 3 N 2.065025 -3.976523 3.709452 0
M  V30 4 C 2.451556 -2.617208 3.523815 0
M  V30 5 O 3.326598 -1.963318 4.140859 0
M  V30 6 C 1.617736 -2.064615 2.437025 0
M  V30 7 C 1.630124 -0.712402 1.910584 0
M  V30 8 C 0.618540 0.222986 1.667792 0
M  V30 9 N 1.164932 1.326269 1.161344 0
M  V30 10 C 2.508734 1.200151 1.040038 0
M  V30 11 C 3.492990 2.055783 0.570711 0
M  V30 12 C 4.818752 1.686946 0.543819 0
M  V30 13 C 5.134115 0.428778 1.001951 0
M  V30 14 C 4.131772 -0.396075 1.460444 0
M  V30 15 C 2.795129 -0.054748 1.500637 0
M  V30 16 C 0.170061 2.322095 0.905728 0
M  V30 17 C -1.121249 1.598317 0.927643 0 CFG=1
M  V30 18 C -1.578688 1.079597 -0.413630 0
M  V30 19 N -2.851776 0.425279 -0.177063 0
M  V30 20 C -3.910710 1.322032 0.172263 0
M  V30 21 C -5.145712 0.442743 0.123940 0
M  V30 22 C -4.813771 -0.538677 -0.950183 0
M  V30 23 C -3.341573 -0.349085 -1.268576 0
M  V30 24 C -0.846924 0.391116 1.793090 0
M  V30 25 C 0.802693 -2.998747 2.002662 0
M  V30 26 N -0.206417 -3.154555 1.020927 0
M  V30 27 C 0.106405 -3.143239 -0.362248 0
M  V30 28 C 1.369584 -2.906907 -0.851215 0
M  V30 29 C 1.721587 -2.892440 -2.201788 0
M  V30 30 C 0.651787 -3.145565 -3.054685 0
M  V30 31 C -0.637554 -3.391338 -2.650812 0
M  V30 32 C -0.904526 -3.388452 -1.296623 0
M  V30 33 H 2.560394 -4.543898 4.455811 0
M  V30 34 H 3.248581 3.061088 0.204391 0
M  V30 35 H 5.542925 2.394235 0.166406 0
M  V30 36 H 6.174603 0.148514 0.974749 0
M  V30 37 H 4.491701 -1.356720 1.785492 0
M  V30 38 H 0.341033 2.921187 -0.011177 0
M  V30 39 H 0.153417 3.028133 1.789189 0
M  V30 40 H -1.927020 2.236328 1.343472 0
M  V30 41 H -0.878767 0.325505 -0.788185 0
M  V30 42 H -1.666637 1.892430 -1.155716 0
M  V30 43 H -3.870042 1.699641 1.226217 0
M  V30 44 H -4.050149 2.165016 -0.543308 0
M  V30 45 H -6.057614 1.036213 -0.112418 0
M  V30 46 H -5.269604 -0.056469 1.110429 0
M  V30 47 H -5.459631 -0.333260 -1.819201 0
M  V30 48 H -5.060323 -1.551078 -0.592884 0
M  V30 49 H -3.229370 0.086533 -2.266948 0
M  V30 50 H -2.905824 -1.378499 -1.210854 0
M  V30 51 H -1.098683 0.570342 2.858647 0
M  V30 52 H -1.350576 -0.508913 1.389365 0
M  V30 53 H -1.208262 -3.279400 1.316722 0
M  V30 54 H 2.160122 -2.716836 -0.139158 0
M  V30 55 H 2.722707 -2.703506 -2.551146 0
M  V30 56 H 0.865271 -3.147292 -4.104595 0
M  V30 57 H -1.392839 -3.577194 -3.414066 0
M  V30 58 H -1.932102 -3.587121 -1.004930 0
M  V30 END ATOM
M  V30 BEGIN BOND
M  V30 1 2 1 2
M  V30 2 1 2 3
M  V30 3 1 3 4
M  V30 4 2 4 5
M  V30 5 1 4 6
M  V30 6 1 6 7
M  V30 7 2 7 8
M  V30 8 1 8 9
M  V30 9 1 9 10
M  V30 10 2 10 11
M  V30 11 1 11 12
M  V30 12 2 12 13
M  V30 13 1 13 14
M  V30 14 2 14 15
M  V30 15 1 9 16
M  V30 16 1 16 17
M  V30 17 1 17 18
M  V30 18 1 18 19
M  V30 19 1 19 20
M  V30 20 1 20 21
M  V30 21 1 21 22
M  V30 22 1 22 23
M  V30 23 1 17 24
M  V30 24 2 6 25
M  V30 25 1 25 26
M  V30 26 1 26 27
M  V30 27 2 27 28
M  V30 28 1 28 29
M  V30 29 2 29 30
M  V30 30 1 30 31
M  V30 31 2 31 32
M  V30 32 1 25 2
M  V30 33 1 32 27
M  V30 34 1 15 7
M  V30 35 1 23 19
M  V30 36 1 24 8
M  V30 37 1 15 10
M  V30 38 1 3 33
M  V30 39 1 11 34
M  V30 40 1 12 35
M  V30 41 1 13 36
M  V30 42 1 14 37
M  V30 43 1 16 38
M  V30 44 1 16 39
M  V30 45 1 17 40 CFG=1
M  V30 46 1 18 41
M  V30 47 1 18 42
M  V30 48 1 20 43
M  V30 49 1 20 44
M  V30 50 1 21 45
M  V30 51 1 21 46
M  V30 52 1 22 47
M  V30 53 1 22 48
M  V30 54 1 23 49
M  V30 55 1 23 50
M  V30 56 1 24 51
M  V30 57 1 24 52
M  V30 58 1 26 53
M  V30 59 1 28 54
M  V30 60 1 29 55
M  V30 61 1 30 56
M  V30 62 1 31 57
M  V30 63 1 32 58
M  V30 END BOND
M  V30 END CTAB
M  END
>  <Dataset>  (530) 
ChEMBL_Kinases

>  <Ligand_Instance>  (530) 
nan

>  <PDB_ID>  (530) 
nan

>  <Standardized_SMILES>  (530) 
O=C1NC(=O)C(c2c3n(c4ccccc24)C[C@@H](CN2CCCC2)C3)=C1Nc1ccccc1

>  <Name>  (530) 
nan

>  <Pocket>  (530) 
nan

>  <ATP_Site>  (530) 
nan

>  <Peripheral>  (530) 
nan

>  <Num_H_Atoms_ProtBoundConf>  (530) 
nan

>  <Num_Resolved_Atoms>  (530) 
nan

>  <Num_Not_Resolved_Atoms>  (530) 
nan

$$$$
CHEMBL2236809
     RDKit          3D

  0  0  0  0  0  0  0  0  0  0999 V3000
M  V30 BEGIN CTAB
M  V30 COUNTS 51 55 0 0 0
M  V30 BEGIN ATOM
M  V30 1 C 3.501053 0.904814 2.592270 0
M  V30 2 N 2.583793 -0.165937 2.338285 0
M  V30 3 C 2.130594 -0.887621 3.471306 0
M  V30 4 C 1.016708 -1.889034 3.191959 0 CFG=1
M  V30 5 C -0.130977 -1.043264 2.633070 0
M  V30 6 C -0.546329 -1.856020 1.471911 0
M  V30 7 C -1.608798 -1.758295 0.613050 0
M  V30 8 C -2.646905 -0.748803 0.506651 0
M  V30 9 C -2.162895 0.308989 -0.175094 0
M  V30 10 N -0.866183 0.479312 -0.727332 0
M  V30 11 C 0.147220 1.445765 -0.632996 0
M  V30 12 C 1.344906 1.209331 -1.318442 0
M  V30 13 C 2.349811 2.144565 -1.259725 0
M  V30 14 C 2.230662 3.321328 -0.547198 0
M  V30 15 C 1.060305 3.553532 0.124613 0
M  V30 16 C 0.049613 2.622551 0.071205 0
M  V30 17 C -3.191663 1.342838 -0.286815 0
M  V30 18 O -3.205190 2.480182 -0.822303 0
M  V30 19 N -4.350101 0.857166 0.372976 0
M  V30 20 C -4.016296 -0.446059 0.869360 0
M  V30 21 O -4.581207 -1.371177 1.518087 0
M  V30 22 C -1.455049 -2.850634 -0.244889 0
M  V30 23 C -2.255293 -3.235608 -1.323953 0
M  V30 24 C -1.883682 -4.356946 -2.032118 0
M  V30 25 C -0.756321 -5.054165 -1.665851 0
M  V30 26 C 0.011825 -4.644255 -0.591854 0
M  V30 27 C -0.305444 -3.535701 0.153868 0
M  V30 28 N 0.242454 -2.892880 1.227460 0
M  V30 29 C 1.349289 -2.929123 2.177883 0
M  V30 30 H 3.343600 1.302743 3.647233 0
M  V30 31 H 3.290424 1.806559 1.948759 0
M  V30 32 H 4.548886 0.568370 2.491463 0
M  V30 33 H 2.013063 -0.126024 1.504421 0
M  V30 34 H 1.666822 -0.151211 4.191453 0
M  V30 35 H 3.011894 -1.391287 3.942499 0
M  V30 36 H 0.704949 -2.410334 4.112017 0
M  V30 37 H -0.897774 -0.983789 3.428436 0
M  V30 38 H 0.167456 -0.045924 2.322389 0
M  V30 39 H -0.698559 -0.348054 -1.352368 0
M  V30 40 H 1.482277 0.293135 -1.890247 0
M  V30 41 H 3.254921 1.893966 -1.819243 0
M  V30 42 H 3.102478 3.941199 -0.603160 0
M  V30 43 H 0.992580 4.480483 0.676317 0
M  V30 44 H -0.839117 2.845892 0.609273 0
M  V30 45 H -5.316129 1.206254 0.561140 0
M  V30 46 H -3.125182 -2.658634 -1.582061 0
M  V30 47 H -2.541283 -4.597512 -2.858657 0
M  V30 48 H -0.520608 -5.924393 -2.261129 0
M  V30 49 H 0.878178 -5.204461 -0.327772 0
M  V30 50 H 2.303051 -2.671139 1.689075 0
M  V30 51 H 1.369879 -3.957394 2.589438 0
M  V30 END ATOM
M  V30 BEGIN BOND
M  V30 1 1 1 2
M  V30 2 1 2 3
M  V30 3 1 3 4
M  V30 4 1 4 5
M  V30 5 1 5 6
M  V30 6 2 6 7
M  V30 7 1 7 8
M  V30 8 2 8 9
M  V30 9 1 9 10
M  V30 10 1 10 11
M  V30 11 2 11 12
M  V30 12 1 12 13
M  V30 13 2 13 14
M  V30 14 1 14 15
M  V30 15 2 15 16
M  V30 16 1 9 17
M  V30 17 2 17 18
M  V30 18 1 17 19
M  V30 19 1 19 20
M  V30 20 2 20 21
M  V30 21 1 7 22
M  V30 22 2 22 23
M  V30 23 1 23 24
M  V30 24 2 24 25
M  V30 25 1 25 26
M  V30 26 2 26 27
M  V30 27 1 27 28
M  V30 28 1 28 29
M  V30 29 1 29 4
M  V30 30 1 28 6
M  V30 31 1 20 8
M  V30 32 1 27 22
M  V30 33 1 16 11
M  V30 34 1 1 30
M  V30 35 1 1 31
M  V30 36 1 1 32
M  V30 37 1 2 33
M  V30 38 1 3 34
M  V30 39 1 3 35
M  V30 40 1 4 36 CFG=1
M  V30 41 1 5 37
M  V30 42 1 5 38
M  V30 43 1 10 39
M  V30 44 1 12 40
M  V30 45 1 13 41
M  V30 46 1 14 42
M  V30 47 1 15 43
M  V30 48 1 16 44
M  V30 49 1 19 45
M  V30 50 1 23 46
M  V30 51 1 24 47
M  V30 52 1 25 48
M  V30 53 1 26 49
M  V30 54 1 29 50
M  V30 55 1 29 51
M  V30 END BOND
M  V30 END CTAB
M  END
>  <Dataset>  (531) 
ChEMBL_Kinases

>  <Ligand_Instance>  (531) 
nan

>  <PDB_ID>  (531) 
nan

>  <Standardized_SMILES>  (531) 
CNC[C@H]1Cc2c(C3=C(Nc4ccccc4)C(=O)NC3=O)c3ccccc3n2C1

>  <Name>  (531) 
nan

>  <Pocket>  (531) 
nan

>  <ATP_Site>  (531) 
nan

>  <Peripheral>  (531) 
nan

>  <Num_H_Atoms_ProtBoundConf>  (531) 
nan

>  <Num_Resolved_Atoms>  (531) 
nan

>  <Num_Not_Resolved_Atoms>  (531) 
nan

$$$$
CHEMBL223747
     RDKit          3D

  0  0  0  0  0  0  0  0  0  0999 V3000
M  V30 BEGIN CTAB
M  V30 COUNTS 53 55 0 0 0
M  V30 BEGIN ATOM
M  V30 1 C 4.705313 -9.946597 -4.867159 0
M  V30 2 C 4.404182 -8.899772 -4.313173 0
M  V30 3 C 4.031460 -7.692012 -3.673305 0
M  V30 4 C 4.323550 -6.509159 -4.330093 0
M  V30 5 C 3.991705 -5.280870 -3.771694 0
M  V30 6 C 3.364588 -5.319408 -2.544168 0
M  V30 7 C 3.006742 -4.047448 -1.937407 0
M  V30 8 C 2.693560 -2.995606 -1.427194 0
M  V30 9 C 2.320262 -1.731131 -0.841640 0
M  V30 10 C 1.266056 -1.649957 0.047148 0
M  V30 11 C 0.829224 -0.491307 0.662152 0
M  V30 12 C 1.527283 0.680455 0.342323 0
M  V30 13 C 1.168106 1.991598 0.927576 0
M  V30 14 O 1.741883 3.089753 0.694414 0
M  V30 15 O 0.108938 2.005397 1.806825 0
M  V30 16 C -0.406671 3.119257 2.478808 0
M  V30 17 C -1.584293 2.750073 3.376010 0
M  V30 18 C -1.091583 1.754134 4.404828 0
M  V30 19 O -2.080651 1.391680 5.302139 0
M  V30 20 C -2.748993 2.225320 2.592453 0
M  V30 21 C -3.914294 3.060713 2.974650 0
M  V30 22 C -5.140808 2.705168 2.705100 0
M  V30 23 C -5.157674 1.400867 1.994781 0
M  V30 24 C -6.380717 3.454175 3.034789 0
M  V30 25 C -3.354454 4.226108 3.643594 0
M  V30 26 O -4.013785 5.292444 3.826476 0
M  V30 27 O -2.034659 3.926108 4.007620 0
M  V30 28 C 2.601902 0.655705 -0.551052 0
M  V30 29 C 2.982199 -0.551440 -1.129957 0
M  V30 30 C 3.045129 -6.461237 -1.836915 0
M  V30 31 C 3.395176 -7.648811 -2.433773 0
M  V30 32 H 4.970349 -10.849883 -5.360080 0
M  V30 33 H 4.818112 -6.487288 -5.297462 0
M  V30 34 H 4.211098 -4.354660 -4.267995 0
M  V30 35 H 0.680256 -2.536927 0.336792 0
M  V30 36 H 0.011490 -0.445460 1.347687 0
M  V30 37 H -0.839839 3.798129 1.695572 0
M  V30 38 H 0.353704 3.641932 3.060118 0
M  V30 39 H -0.298562 2.259888 4.997806 0
M  V30 40 H -0.658627 0.867728 3.944641 0
M  V30 41 H -2.751800 0.860812 4.842647 0
M  V30 42 H -2.556486 2.455227 1.521387 0
M  V30 43 H -2.937651 1.153652 2.777038 0
M  V30 44 H -4.459398 1.338662 1.151358 0
M  V30 45 H -6.180222 1.237303 1.592192 0
M  V30 46 H -4.905599 0.602204 2.724802 0
M  V30 47 H -6.170654 4.296110 3.696831 0
M  V30 48 H -6.859257 3.883835 2.116910 0
M  V30 49 H -7.155345 2.793983 3.497427 0
M  V30 50 H 3.148770 1.554552 -0.805612 0
M  V30 51 H 3.825287 -0.564872 -1.829503 0
M  V30 52 H 2.552565 -6.420583 -0.877586 0
M  V30 53 H 3.189199 -8.602528 -1.961523 0
M  V30 END ATOM
M  V30 BEGIN BOND
M  V30 1 3 1 2
M  V30 2 1 2 3
M  V30 3 2 3 4
M  V30 4 1 4 5
M  V30 5 2 5 6
M  V30 6 1 6 7
M  V30 7 3 7 8
M  V30 8 1 8 9
M  V30 9 2 9 10
M  V30 10 1 10 11
M  V30 11 2 11 12
M  V30 12 1 12 13
M  V30 13 2 13 14
M  V30 14 1 13 15
M  V30 15 1 15 16
M  V30 16 1 16 17
M  V30 17 1 17 18
M  V30 18 1 18 19
M  V30 19 1 17 20
M  V30 20 1 20 21
M  V30 21 2 21 22 CFG=2
M  V30 22 1 22 23
M  V30 23 1 22 24
M  V30 24 1 21 25
M  V30 25 2 25 26
M  V30 26 1 25 27
M  V30 27 1 12 28
M  V30 28 2 28 29
M  V30 29 1 6 30
M  V30 30 2 30 31
M  V30 31 1 31 3
M  V30 32 1 29 9
M  V30 33 1 27 17
M  V30 34 1 1 32
M  V30 35 1 4 33
M  V30 36 1 5 34
M  V30 37 1 10 35
M  V30 38 1 11 36
M  V30 39 1 16 37
M  V30 40 1 16 38
M  V30 41 1 18 39
M  V30 42 1 18 40
M  V30 43 1 19 41
M  V30 44 1 20 42
M  V30 45 1 20 43
M  V30 46 1 23 44
M  V30 47 1 23 45
M  V30 48 1 23 46
M  V30 49 1 24 47
M  V30 50 1 24 48
M  V30 51 1 24 49
M  V30 52 1 28 50
M  V30 53 1 29 51
M  V30 54 1 30 52
M  V30 55 1 31 53
M  V30 END BOND
M  V30 END CTAB
M  END
>  <Dataset>  (532) 
ChEMBL_Kinases

>  <Ligand_Instance>  (532) 
nan

>  <PDB_ID>  (532) 
nan

>  <Standardized_SMILES>  (532) 
C#Cc1ccc(C#Cc2ccc(C(=O)OCC3(CO)CC(=C(C)C)C(=O)O3)cc2)cc1

>  <Name>  (532) 
nan

>  <Pocket>  (532) 
nan

>  <ATP_Site>  (532) 
nan

>  <Peripheral>  (532) 
nan

>  <Num_H_Atoms_ProtBoundConf>  (532) 
nan

>  <Num_Resolved_Atoms>  (532) 
nan

>  <Num_Not_Resolved_Atoms>  (532) 
nan

$$$$
CHEMBL223833
     RDKit          3D

  0  0  0  0  0  0  0  0  0  0999 V3000
M  V30 BEGIN CTAB
M  V30 COUNTS 52 54 0 0 0
M  V30 BEGIN ATOM
M  V30 1 C 6.244497 -2.768533 -1.315459 0
M  V30 2 C 4.873105 -2.478816 -1.890600 0
M  V30 3 C 4.912267 -2.824218 -3.364147 0
M  V30 4 O 4.526805 -1.153712 -1.652702 0
M  V30 5 C 3.416987 -0.686031 -0.975907 0
M  V30 6 C 2.377323 -1.333309 -0.365010 0
M  V30 7 C 1.331715 -0.706615 0.276150 0
M  V30 8 C 1.385989 0.694144 0.271926 0
M  V30 9 C 2.405414 1.372025 -0.324989 0
M  V30 10 C 3.443409 0.713145 -0.962094 0
M  V30 11 Cl 4.603737 1.833427 -1.635199 0
M  V30 12 N 0.253829 1.197768 0.949044 0
M  V30 13 C -1.035237 1.449864 0.519843 0
M  V30 14 O -0.925251 1.177563 -0.631961 0
M  V30 15 N -2.281986 1.686916 0.072349 0
M  V30 16 C -3.493320 2.072737 0.652118 0
M  V30 17 C -4.300428 3.170870 0.689358 0
M  V30 18 N -5.420702 3.074727 1.423558 0
M  V30 19 C -5.652460 1.915122 2.053937 0
M  V30 20 C -6.843399 1.807372 2.835216 0
M  V30 21 N -7.800082 1.734634 3.476814 0
M  V30 22 C -4.850522 0.806081 2.022769 0
M  V30 23 N -3.740861 0.900399 1.297292 0
M  V30 24 O -5.005717 -0.425423 2.632012 0
M  V30 25 C -4.182891 -1.523588 2.417285 0
M  V30 26 C -2.735285 -1.368329 2.798088 0
M  V30 27 C -2.042588 -2.645872 2.393723 0
M  V30 28 C -0.609763 -2.745219 2.732847 0
M  V30 29 C 0.321645 -1.734051 2.192270 0
M  V30 30 O 0.420150 -1.643116 0.808294 0
M  V30 31 H 6.319406 -3.792296 -0.943137 0
M  V30 32 H 6.470453 -2.036713 -0.493197 0
M  V30 33 H 6.988187 -2.648232 -2.138856 0
M  V30 34 H 4.102029 -3.137812 -1.445195 0
M  V30 35 H 3.963250 -3.317102 -3.691369 0
M  V30 36 H 5.700469 -3.588264 -3.513691 0
M  V30 37 H 5.176107 -1.958440 -4.008781 0
M  V30 38 H 2.491515 -2.419103 -0.456449 0
M  V30 39 H 2.148406 2.417300 -0.136988 0
M  V30 40 H 0.726157 1.332129 1.822640 0
M  V30 41 H -2.676452 1.600990 -0.889799 0
M  V30 42 H -3.719713 3.816017 0.050881 0
M  V30 43 H -4.558366 -2.386818 3.045725 0
M  V30 44 H -4.266857 -1.923241 1.371067 0
M  V30 45 H -2.695918 -1.308417 3.912720 0
M  V30 46 H -2.283520 -0.476628 2.388170 0
M  V30 47 H -2.234985 -2.857021 1.322241 0
M  V30 48 H -2.571940 -3.459759 2.954497 0
M  V30 49 H -0.487003 -2.841812 3.840888 0
M  V30 50 H -0.256869 -3.745478 2.349785 0
M  V30 51 H 1.365637 -1.965979 2.559294 0
M  V30 52 H 0.067965 -0.769826 2.686416 0
M  V30 END ATOM
M  V30 BEGIN BOND
M  V30 1 1 1 2
M  V30 2 1 2 3
M  V30 3 1 2 4
M  V30 4 1 4 5
M  V30 5 2 5 6
M  V30 6 1 6 7
M  V30 7 2 7 8
M  V30 8 1 8 9
M  V30 9 2 9 10
M  V30 10 1 10 11
M  V30 11 1 8 12
M  V30 12 1 12 13
M  V30 13 2 13 14
M  V30 14 1 13 15
M  V30 15 1 15 16
M  V30 16 1 16 17
M  V30 17 2 17 18
M  V30 18 1 18 19
M  V30 19 1 19 20
M  V30 20 3 20 21
M  V30 21 2 19 22
M  V30 22 1 22 23
M  V30 23 1 22 24
M  V30 24 1 24 25
M  V30 25 1 25 26
M  V30 26 1 26 27
M  V30 27 1 27 28
M  V30 28 1 28 29
M  V30 29 1 29 30
M  V30 30 1 10 5
M  V30 31 2 23 16
M  V30 32 1 30 7
M  V30 33 1 1 31
M  V30 34 1 1 32
M  V30 35 1 1 33
M  V30 36 1 2 34
M  V30 37 1 3 35
M  V30 38 1 3 36
M  V30 39 1 3 37
M  V30 40 1 6 38
M  V30 41 1 9 39
M  V30 42 1 12 40
M  V30 43 1 15 41
M  V30 44 1 17 42
M  V30 45 1 25 43
M  V30 46 1 25 44
M  V30 47 1 26 45
M  V30 48 1 26 46
M  V30 49 1 27 47
M  V30 50 1 27 48
M  V30 51 1 28 49
M  V30 52 1 28 50
M  V30 53 1 29 51
M  V30 54 1 29 52
M  V30 END BOND
M  V30 END CTAB
M  END
>  <Dataset>  (533) 
ChEMBL_Kinases

>  <Ligand_Instance>  (533) 
nan

>  <PDB_ID>  (533) 
nan

>  <Standardized_SMILES>  (533) 
CC(C)Oc1cc2c(cc1Cl)NC(=O)Nc1cnc(C#N)c(n1)OCCCCCO2

>  <Name>  (533) 
nan

>  <Pocket>  (533) 
nan

>  <ATP_Site>  (533) 
nan

>  <Peripheral>  (533) 
nan

>  <Num_H_Atoms_ProtBoundConf>  (533) 
nan

>  <Num_Resolved_Atoms>  (533) 
nan

>  <Num_Not_Resolved_Atoms>  (533) 
nan

$$$$
CHEMBL223877
     RDKit          3D

  0  0  0  0  0  0  0  0  0  0999 V3000
M  V30 BEGIN CTAB
M  V30 COUNTS 65 69 0 0 0
M  V30 BEGIN ATOM
M  V30 1 N 4.928654 -0.770928 5.841292 0
M  V30 2 C 4.481697 -0.721572 4.757823 0
M  V30 3 C 3.962242 -0.651447 3.442303 0
M  V30 4 C 4.750041 -0.338976 2.352430 0
M  V30 5 N 4.151058 -0.298253 1.130708 0
M  V30 6 C 2.845647 -0.552197 0.992893 0
M  V30 7 C 2.291234 -0.497062 -0.267098 0
M  V30 8 C 0.959797 -0.744153 -0.497106 0
M  V30 9 O 0.422618 -0.682750 -1.776606 0
M  V30 10 C 1.275813 -0.358227 -2.855410 0
M  V30 11 C 0.521674 -0.336286 -4.173473 0
M  V30 12 C -0.560432 0.693295 -4.084935 0
M  V30 13 N -1.372275 0.857076 -5.243276 0
M  V30 14 C -2.333221 1.924809 -4.989940 0
M  V30 15 C -3.163641 1.557381 -3.794841 0
M  V30 16 O -3.519643 0.226773 -3.721683 0
M  V30 17 C -3.425192 -0.448062 -4.930162 0
M  V30 18 C -2.070554 -0.341816 -5.586510 0
M  V30 19 C 0.084939 -1.069022 0.549145 0
M  V30 20 N -1.286286 -1.324421 0.405667 0
M  V30 21 C -2.339707 -1.674914 1.304522 0
M  V30 22 C -2.182664 -3.023278 1.921841 0
M  V30 23 C -1.652805 -3.539253 3.081836 0
M  V30 24 N -1.759667 -4.872905 3.146220 0
M  V30 25 C -2.366772 -5.206433 2.009626 0
M  V30 26 N -2.631870 -4.132139 1.259987 0
M  V30 27 C 0.675468 -1.113351 1.787202 0
M  V30 28 C 2.006310 -0.869696 2.040364 0
M  V30 29 C 2.608607 -0.912063 3.279398 0
M  V30 30 N 1.750479 -1.242270 4.392612 0
M  V30 31 C 1.099674 -0.176107 5.074909 0
M  V30 32 C 1.323048 1.116585 4.645006 0
M  V30 33 C 0.684424 2.166948 5.313489 0
M  V30 34 C -0.148926 1.890575 6.380364 0
M  V30 35 F -0.821052 2.817912 7.105083 0
M  V30 36 C -0.356356 0.590387 6.791436 0
M  V30 37 Cl -1.401355 0.160319 8.138366 0
M  V30 38 C 0.268238 -0.479047 6.142608 0
M  V30 39 H 5.791358 -0.152581 2.580958 0
M  V30 40 H 2.871381 -0.256411 -1.146584 0
M  V30 41 H 2.107648 -1.097215 -2.880877 0
M  V30 42 H 1.762774 0.644111 -2.683503 0
M  V30 43 H 1.266743 -0.025861 -4.954658 0
M  V30 44 H 0.217281 -1.347094 -4.428384 0
M  V30 45 H -0.091732 1.652424 -3.777668 0
M  V30 46 H -1.243557 0.385647 -3.244182 0
M  V30 47 H -1.750900 2.831542 -4.731760 0
M  V30 48 H -2.986077 2.128585 -5.840372 0
M  V30 49 H -2.645561 1.824028 -2.847118 0
M  V30 50 H -4.082997 2.213148 -3.827779 0
M  V30 51 H -3.601425 -1.522505 -4.717319 0
M  V30 52 H -4.247993 -0.166896 -5.631552 0
M  V30 53 H -2.280158 -0.265959 -6.697776 0
M  V30 54 H -1.497547 -1.254792 -5.437555 0
M  V30 55 H -1.564994 -1.224752 -0.622243 0
M  V30 56 H -3.299048 -1.673072 0.751905 0
M  V30 57 H -2.494145 -0.902352 2.103447 0
M  V30 58 H -1.220751 -2.883751 3.814959 0
M  V30 59 H -1.404965 -5.421315 3.964258 0
M  V30 60 H -2.603213 -6.247941 1.755969 0
M  V30 61 H 0.158273 -1.336904 2.692641 0
M  V30 62 H 1.623289 -2.238680 4.673546 0
M  V30 63 H 1.956654 1.392927 3.826316 0
M  V30 64 H 0.773638 3.215292 5.078993 0
M  V30 65 H 0.105713 -1.502861 6.465040 0
M  V30 END ATOM
M  V30 BEGIN BOND
M  V30 1 3 1 2
M  V30 2 1 2 3
M  V30 3 2 3 4
M  V30 4 1 4 5
M  V30 5 2 5 6
M  V30 6 1 6 7
M  V30 7 2 7 8
M  V30 8 1 8 9
M  V30 9 1 9 10
M  V30 10 1 10 11
M  V30 11 1 11 12
M  V30 12 1 12 13
M  V30 13 1 13 14
M  V30 14 1 14 15
M  V30 15 1 15 16
M  V30 16 1 16 17
M  V30 17 1 17 18
M  V30 18 1 8 19
M  V30 19 1 19 20
M  V30 20 1 20 21
M  V30 21 1 21 22
M  V30 22 2 22 23
M  V30 23 1 23 24
M  V30 24 1 24 25
M  V30 25 2 25 26
M  V30 26 2 19 27
M  V30 27 1 27 28
M  V30 28 2 28 29
M  V30 29 1 29 30
M  V30 30 1 30 31
M  V30 31 2 31 32
M  V30 32 1 32 33
M  V30 33 2 33 34
M  V30 34 1 34 35
M  V30 35 1 34 36
M  V30 36 1 36 37
M  V30 37 2 36 38
M  V30 38 1 29 3
M  V30 39 1 38 31
M  V30 40 1 28 6
M  V30 41 1 18 13
M  V30 42 1 26 22
M  V30 43 1 4 39
M  V30 44 1 7 40
M  V30 45 1 10 41
M  V30 46 1 10 42
M  V30 47 1 11 43
M  V30 48 1 11 44
M  V30 49 1 12 45
M  V30 50 1 12 46
M  V30 51 1 14 47
M  V30 52 1 14 48
M  V30 53 1 15 49
M  V30 54 1 15 50
M  V30 55 1 17 51
M  V30 56 1 17 52
M  V30 57 1 18 53
M  V30 58 1 18 54
M  V30 59 1 20 55
M  V30 60 1 21 56
M  V30 61 1 21 57
M  V30 62 1 23 58
M  V30 63 1 24 59
M  V30 64 1 25 60
M  V30 65 1 27 61
M  V30 66 1 30 62
M  V30 67 1 32 63
M  V30 68 1 33 64
M  V30 69 1 38 65
M  V30 END BOND
M  V30 END CTAB
M  END
>  <Dataset>  (534) 
ChEMBL_Kinases

>  <Ligand_Instance>  (534) 
nan

>  <PDB_ID>  (534) 
nan

>  <Standardized_SMILES>  (534) 
N#Cc1cnc2cc(OCCCN3CCOCC3)c(NCc3c[nH]cn3)cc2c1Nc1ccc(F)c(Cl)c1

>  <Name>  (534) 
nan

>  <Pocket>  (534) 
nan

>  <ATP_Site>  (534) 
nan

>  <Peripheral>  (534) 
nan

>  <Num_H_Atoms_ProtBoundConf>  (534) 
nan

>  <Num_Resolved_Atoms>  (534) 
nan

>  <Num_Not_Resolved_Atoms>  (534) 
nan

$$$$
CHEMBL223879
     RDKit          3D

  0  0  0  0  0  0  0  0  0  0999 V3000
M  V30 BEGIN CTAB
M  V30 COUNTS 56 58 0 0 0
M  V30 BEGIN ATOM
M  V30 1 C 3.220703 -1.135335 5.277122 0
M  V30 2 C 4.212706 -1.468501 4.171010 0
M  V30 3 C 4.416768 -2.980901 4.215743 0
M  V30 4 C 3.511995 -1.182456 2.865843 0
M  V30 5 N 3.095400 0.201418 2.732213 0
M  V30 6 C 2.421007 0.654710 1.565673 0
M  V30 7 C 2.123170 -0.172372 0.503293 0
M  V30 8 C 1.465340 0.196309 -0.674386 0
M  V30 9 C 1.107012 1.530099 -0.710133 0
M  V30 10 C 1.389611 2.380984 0.330920 0
M  V30 11 C 2.042691 1.978051 1.479448 0
M  V30 12 Cl 2.349234 3.148722 2.741456 0
M  V30 13 N 0.389100 2.130975 -1.829449 0
M  V30 14 C -0.965225 1.923548 -2.066039 0
M  V30 15 O -0.743414 1.287819 -1.069632 0
M  V30 16 N -2.214433 2.037623 -2.720200 0
M  V30 17 C -3.356875 1.361221 -2.173495 0
M  V30 18 C -4.649928 1.709563 -2.465569 0
M  V30 19 N -5.690741 1.049204 -1.919349 0
M  V30 20 C -5.405150 0.038451 -1.078951 0
M  V30 21 C -6.449971 -0.730053 -0.442706 0
M  V30 22 N -7.308200 -1.339493 0.062060 0
M  V30 23 C -4.130623 -0.371281 -0.735708 0
M  V30 24 N -3.159242 0.337410 -1.322666 0
M  V30 25 O -3.689126 -1.365496 0.092320 0
M  V30 26 C -3.694161 -2.719677 -0.110385 0
M  V30 27 C -2.955926 -3.317443 -1.226409 0
M  V30 28 C -1.494687 -3.249107 -1.298838 0
M  V30 29 C -0.813630 -1.934645 -1.335179 0
M  V30 30 C 0.683551 -2.052679 -1.488117 0
M  V30 31 O 1.325378 -0.848027 -1.533236 0
M  V30 32 H 3.356164 -1.749182 6.182133 0
M  V30 33 H 2.190510 -1.338463 4.897050 0
M  V30 34 H 3.241420 -0.058514 5.534169 0
M  V30 35 H 5.143605 -0.911821 4.291120 0
M  V30 36 H 3.451472 -3.474555 4.437634 0
M  V30 37 H 5.109314 -3.229531 5.042496 0
M  V30 38 H 4.750910 -3.345535 3.231488 0
M  V30 39 H 4.195015 -1.428984 2.034012 0
M  V30 40 H 2.618057 -1.828687 2.790691 0
M  V30 41 H 3.299412 0.863098 3.509624 0
M  V30 42 H 2.472687 -1.201646 0.685529 0
M  V30 43 H 1.070308 3.421947 0.200646 0
M  V30 44 H 1.146412 2.680405 -2.283627 0
M  V30 45 H -2.383043 2.601189 -3.596755 0
M  V30 46 H -4.686175 2.543370 -3.156233 0
M  V30 47 H -4.769999 -3.061135 -0.226225 0
M  V30 48 H -3.396313 -3.202342 0.870684 0
M  V30 49 H -3.390636 -2.976128 -2.223153 0
M  V30 50 H -3.228868 -4.423631 -1.239571 0
M  V30 51 H -1.047653 -3.932333 -0.519997 0
M  V30 52 H -1.197803 -3.778505 -2.260239 0
M  V30 53 H -1.168028 -1.387937 -2.231558 0
M  V30 54 H -1.114832 -1.359079 -0.449889 0
M  V30 55 H 0.827600 -2.554221 -2.488309 0
M  V30 56 H 1.101635 -2.772286 -0.745529 0
M  V30 END ATOM
M  V30 BEGIN BOND
M  V30 1 1 1 2
M  V30 2 1 2 3
M  V30 3 1 2 4
M  V30 4 1 4 5
M  V30 5 1 5 6
M  V30 6 2 6 7
M  V30 7 1 7 8
M  V30 8 2 8 9
M  V30 9 1 9 10
M  V30 10 2 10 11
M  V30 11 1 11 12
M  V30 12 1 9 13
M  V30 13 1 13 14
M  V30 14 2 14 15
M  V30 15 1 14 16
M  V30 16 1 16 17
M  V30 17 1 17 18
M  V30 18 2 18 19
M  V30 19 1 19 20
M  V30 20 1 20 21
M  V30 21 3 21 22
M  V30 22 2 20 23
M  V30 23 1 23 24
M  V30 24 1 23 25
M  V30 25 1 25 26
M  V30 26 1 26 27
M  V30 27 1 27 28
M  V30 28 1 28 29
M  V30 29 1 29 30
M  V30 30 1 30 31
M  V30 31 1 11 6
M  V30 32 2 24 17
M  V30 33 1 31 8
M  V30 34 1 1 32
M  V30 35 1 1 33
M  V30 36 1 1 34
M  V30 37 1 2 35
M  V30 38 1 3 36
M  V30 39 1 3 37
M  V30 40 1 3 38
M  V30 41 1 4 39
M  V30 42 1 4 40
M  V30 43 1 5 41
M  V30 44 1 7 42
M  V30 45 1 10 43
M  V30 46 1 13 44
M  V30 47 1 16 45
M  V30 48 1 18 46
M  V30 49 1 26 47
M  V30 50 1 26 48
M  V30 51 1 27 49
M  V30 52 1 27 50
M  V30 53 1 28 51
M  V30 54 1 28 52
M  V30 55 1 29 53
M  V30 56 1 29 54
M  V30 57 1 30 55
M  V30 58 1 30 56
M  V30 END BOND
M  V30 END CTAB
M  END
>  <Dataset>  (535) 
ChEMBL_Kinases

>  <Ligand_Instance>  (535) 
nan

>  <PDB_ID>  (535) 
nan

>  <Standardized_SMILES>  (535) 
CC(C)CNc1cc2c(cc1Cl)NC(=O)Nc1cnc(C#N)c(n1)OCCCCCO2

>  <Name>  (535) 
nan

>  <Pocket>  (535) 
nan

>  <ATP_Site>  (535) 
nan

>  <Peripheral>  (535) 
nan

>  <Num_H_Atoms_ProtBoundConf>  (535) 
nan

>  <Num_Resolved_Atoms>  (535) 
nan

>  <Num_Not_Resolved_Atoms>  (535) 
nan

$$$$
CHEMBL224956
     RDKit          3D

  0  0  0  0  0  0  0  0  0  0999 V3000
M  V30 BEGIN CTAB
M  V30 COUNTS 70 74 0 0 0
M  V30 BEGIN ATOM
M  V30 1 C 2.780770 -2.998097 -1.408909 0
M  V30 2 C 3.188365 -2.140755 -0.265543 0
M  V30 3 C 4.433797 -2.308763 0.300968 0
M  V30 4 C 4.900700 -1.563666 1.362183 0
M  V30 5 C 4.092995 -0.581884 1.911995 0
M  V30 6 C 4.433164 0.299718 3.031292 0
M  V30 7 N 5.746744 0.089022 3.517147 0
M  V30 8 O 3.725476 1.174898 3.577368 0
M  V30 9 C 2.828530 -0.415186 1.333045 0
M  V30 10 C 2.370204 -1.167710 0.268578 0
M  V30 11 N 1.078470 -0.944379 -0.279911 0
M  V30 12 C 0.081778 -0.012209 0.111068 0
M  V30 13 N -0.933125 -0.175549 0.962474 0
M  V30 14 C -1.788265 0.797444 1.233122 0
M  V30 15 N -2.883182 0.635470 2.142431 0
M  V30 16 C -3.345909 -0.548025 2.807078 0
M  V30 17 C -4.110414 -1.434801 1.905337 0 CFG=2
M  V30 18 C -4.603104 -2.701744 2.597161 0
M  V30 19 C -4.378014 -3.944593 1.798395 0
M  V30 20 C -4.144117 -3.673161 0.337913 0 CFG=1
M  V30 21 C -4.827136 -2.409412 -0.128509 0
M  V30 22 C -3.630642 -1.672109 0.531799 0 CFG=2
M  V30 23 C -2.857802 -2.875260 0.218898 0
M  V30 24 C -2.424559 -2.847771 -1.240830 0
M  V30 25 C -1.732811 -3.348262 1.061172 0
M  V30 26 N -1.600961 1.953776 0.623312 0
M  V30 27 C -0.615612 2.200340 -0.238586 0
M  V30 28 N -0.477583 3.456367 -0.849112 0
M  V30 29 C 0.592306 3.729400 -1.780797 0 CFG=1
M  V30 30 C 1.952540 3.559572 -1.186330 0
M  V30 31 C 2.707221 2.654398 -2.130238 0
M  V30 32 N 1.961645 2.742704 -3.346496 0
M  V30 33 C 0.552016 2.833795 -3.009204 0
M  V30 34 N 0.255732 1.190342 -0.507140 0
M  V30 35 H 3.380075 -3.950731 -1.391710 0
M  V30 36 H 2.994587 -2.506919 -2.356383 0
M  V30 37 H 1.728271 -3.309768 -1.253427 0
M  V30 38 H 5.134694 -3.051941 -0.061248 0
M  V30 39 H 5.872457 -1.679664 1.819786 0
M  V30 40 H 6.722896 0.062240 3.866280 0
M  V30 41 H 6.297665 0.965411 3.639536 0
M  V30 42 H 2.218481 0.346335 1.769308 0
M  V30 43 H 0.759252 -1.516829 -1.090212 0
M  V30 44 H -3.427249 1.521124 2.349774 0
M  V30 45 H -2.443097 -1.019267 3.258463 0
M  V30 46 H -4.051562 -0.233253 3.624986 0
M  V30 47 H -5.086431 -0.857284 1.739219 0
M  V30 48 H -4.099684 -2.780636 3.605927 0
M  V30 49 H -5.677606 -2.661404 2.863413 0
M  V30 50 H -3.491726 -4.483818 2.190824 0
M  V30 51 H -5.222235 -4.679330 1.845996 0
M  V30 52 H -4.239169 -4.549046 -0.286435 0
M  V30 53 H -4.834651 -2.309154 -1.220863 0
M  V30 54 H -5.801961 -2.170841 0.286954 0
M  V30 55 H -3.421241 -0.714839 0.013517 0
M  V30 56 H -2.587999 -3.826210 -1.739120 0
M  V30 57 H -1.333358 -2.658015 -1.280699 0
M  V30 58 H -2.890219 -2.027755 -1.811735 0
M  V30 59 H -1.711467 -3.014080 2.098126 0
M  V30 60 H -1.757079 -4.470403 1.111142 0
M  V30 61 H -0.743550 -3.109387 0.609597 0
M  V30 62 H -1.156349 4.216564 -0.632937 0
M  V30 63 H 0.520499 4.767108 -2.179389 0
M  V30 64 H 2.508733 4.528170 -1.147505 0
M  V30 65 H 1.930362 3.154786 -0.152815 0
M  V30 66 H 3.738702 3.038518 -2.305756 0
M  V30 67 H 2.823375 1.620489 -1.741992 0
M  V30 68 H 2.176747 1.997644 -4.045701 0
M  V30 69 H 0.091499 1.873775 -2.778294 0
M  V30 70 H 0.030886 3.300177 -3.859255 0
M  V30 END ATOM
M  V30 BEGIN BOND
M  V30 1 1 1 2
M  V30 2 2 2 3
M  V30 3 1 3 4
M  V30 4 2 4 5
M  V30 5 1 5 6
M  V30 6 1 6 7
M  V30 7 2 6 8
M  V30 8 1 5 9
M  V30 9 2 9 10
M  V30 10 1 10 11
M  V30 11 1 11 12
M  V30 12 2 12 13
M  V30 13 1 13 14
M  V30 14 1 14 15
M  V30 15 1 15 16
M  V30 16 1 16 17
M  V30 17 1 17 18
M  V30 18 1 18 19
M  V30 19 1 19 20
M  V30 20 1 20 21
M  V30 21 1 21 22
M  V30 22 1 22 23
M  V30 23 1 23 24
M  V30 24 1 23 25
M  V30 25 2 14 26
M  V30 26 1 26 27
M  V30 27 1 27 28
M  V30 28 1 28 29
M  V30 29 1 29 30
M  V30 30 1 30 31
M  V30 31 1 31 32
M  V30 32 1 32 33
M  V30 33 2 27 34
M  V30 34 1 10 2
M  V30 35 1 34 12
M  V30 36 1 22 17
M  V30 37 1 33 29
M  V30 38 1 23 20
M  V30 39 1 1 35
M  V30 40 1 1 36
M  V30 41 1 1 37
M  V30 42 1 3 38
M  V30 43 1 4 39
M  V30 44 1 7 40
M  V30 45 1 7 41
M  V30 46 1 9 42
M  V30 47 1 11 43
M  V30 48 1 15 44
M  V30 49 1 16 45
M  V30 50 1 16 46
M  V30 51 1 17 47 CFG=3
M  V30 52 1 18 48
M  V30 53 1 18 49
M  V30 54 1 19 50
M  V30 55 1 19 51
M  V30 56 1 20 52 CFG=3
M  V30 57 1 21 53
M  V30 58 1 21 54
M  V30 59 1 22 55 CFG=3
M  V30 60 1 24 56
M  V30 61 1 24 57
M  V30 62 1 24 58
M  V30 63 1 25 59
M  V30 64 1 25 60
M  V30 65 1 25 61
M  V30 66 1 28 62
M  V30 67 1 29 63 CFG=3
M  V30 68 1 30 64
M  V30 69 1 30 65
M  V30 70 1 31 66
M  V30 71 1 31 67
M  V30 72 1 32 68
M  V30 73 1 33 69
M  V30 74 1 33 70
M  V30 END BOND
M  V30 END CTAB
M  END
>  <Dataset>  (536) 
ChEMBL_Kinases

>  <Ligand_Instance>  (536) 
nan

>  <PDB_ID>  (536) 
nan

>  <Standardized_SMILES>  (536) 
Cc1ccc(C(N)=O)cc1Nc1nc(NC[C@@H]2CC[C@H]3C[C@@H]2C3(C)C)nc(N[C@H]2CCNC2)n1

>  <Name>  (536) 
nan

>  <Pocket>  (536) 
nan

>  <ATP_Site>  (536) 
nan

>  <Peripheral>  (536) 
nan

>  <Num_H_Atoms_ProtBoundConf>  (536) 
nan

>  <Num_Resolved_Atoms>  (536) 
nan

>  <Num_Not_Resolved_Atoms>  (536) 
nan

$$$$
CHEMBL224957
     RDKit          3D

  0  0  0  0  0  0  0  0  0  0999 V3000
M  V30 BEGIN CTAB
M  V30 COUNTS 60 63 0 0 0
M  V30 BEGIN ATOM
M  V30 1 C 4.523982 1.421660 -1.222540 0
M  V30 2 C 3.794524 1.188446 0.053607 0
M  V30 3 C 4.417000 1.423728 1.255579 0
M  V30 4 C 3.743772 1.209232 2.431141 0
M  V30 5 C 2.454148 0.760129 2.310932 0
M  V30 6 C 1.661375 0.503350 3.502360 0
M  V30 7 N 2.324120 0.658377 4.770999 0
M  V30 8 O 0.611444 0.188366 4.090390 0
M  V30 9 C 1.764080 0.501552 1.142764 0
M  V30 10 C 2.477058 0.729789 -0.039911 0
M  V30 11 N 1.882477 0.518775 -1.295726 0
M  V30 12 C 0.554791 0.012015 -1.352891 0
M  V30 13 N -0.447154 0.807743 -0.882158 0
M  V30 14 C -1.733098 0.418628 -0.903171 0
M  V30 15 N -2.640546 1.369147 -0.364110 0
M  V30 16 C -2.874177 1.038936 1.048569 0
M  V30 17 C -3.548090 -0.300181 1.217766 0
M  V30 18 C -3.795780 -0.681887 2.617190 0
M  V30 19 C -4.956960 -0.335988 3.317024 0
M  V30 20 C -5.155344 -0.713436 4.632321 0
M  V30 21 C -4.217181 -1.444161 5.300913 0
M  V30 22 F -4.377939 -1.831542 6.586716 0
M  V30 23 C -3.070663 -1.793596 4.630645 0
M  V30 24 C -2.845562 -1.428232 3.311472 0
M  V30 25 N -2.073438 -0.776609 -1.392599 0
M  V30 26 C -1.116536 -1.595413 -1.867940 0
M  V30 27 N -1.375141 -2.890846 -2.399662 0
M  V30 28 C -0.389482 -3.786505 -2.939159 0 CFG=1
M  V30 29 C 0.309360 -3.212777 -4.177384 0
M  V30 30 C 1.743253 -3.760852 -4.038526 0
M  V30 31 N 1.970857 -3.732027 -2.610100 0
M  V30 32 C 0.737275 -4.140654 -2.050100 0
M  V30 33 N 0.155425 -1.185288 -1.836131 0
M  V30 34 H 4.148203 2.262718 -1.810523 0
M  V30 35 H 5.619371 1.514584 -1.009930 0
M  V30 36 H 4.422367 0.461337 -1.791066 0
M  V30 37 H 5.435896 1.777000 1.324731 0
M  V30 38 H 4.193517 1.382026 3.400723 0
M  V30 39 H 3.122101 0.871659 5.356958 0
M  V30 40 H 2.474144 0.671276 5.784609 0
M  V30 41 H 0.745334 0.146369 1.144852 0
M  V30 42 H 2.435411 0.741434 -2.156463 0
M  V30 43 H -2.895638 2.043274 -1.116647 0
M  V30 44 H -1.911200 1.110522 1.564026 0
M  V30 45 H -3.533963 1.832312 1.451307 0
M  V30 46 H -4.555167 -0.253881 0.715252 0
M  V30 47 H -3.024381 -1.141515 0.744159 0
M  V30 48 H -5.710817 0.245012 2.797427 0
M  V30 49 H -6.072198 -0.422228 5.134334 0
M  V30 50 H -2.295752 -2.383756 5.142042 0
M  V30 51 H -1.921105 -1.726480 2.809468 0
M  V30 52 H -2.395553 -3.149465 -2.362129 0
M  V30 53 H -0.963259 -4.710408 -3.247818 0
M  V30 54 H 0.287024 -2.125984 -4.213342 0
M  V30 55 H -0.112809 -3.729577 -5.069047 0
M  V30 56 H 2.479749 -3.144249 -4.548921 0
M  V30 57 H 1.748705 -4.838201 -4.323475 0
M  V30 58 H 2.352908 -2.826942 -2.341432 0
M  V30 59 H 0.783353 -5.269542 -1.971534 0
M  V30 60 H 0.592580 -3.822136 -0.990972 0
M  V30 END ATOM
M  V30 BEGIN BOND
M  V30 1 1 1 2
M  V30 2 2 2 3
M  V30 3 1 3 4
M  V30 4 2 4 5
M  V30 5 1 5 6
M  V30 6 1 6 7
M  V30 7 2 6 8
M  V30 8 1 5 9
M  V30 9 2 9 10
M  V30 10 1 10 11
M  V30 11 1 11 12
M  V30 12 2 12 13
M  V30 13 1 13 14
M  V30 14 1 14 15
M  V30 15 1 15 16
M  V30 16 1 16 17
M  V30 17 1 17 18
M  V30 18 2 18 19
M  V30 19 1 19 20
M  V30 20 2 20 21
M  V30 21 1 21 22
M  V30 22 1 21 23
M  V30 23 2 23 24
M  V30 24 2 14 25
M  V30 25 1 25 26
M  V30 26 1 26 27
M  V30 27 1 27 28
M  V30 28 1 28 29
M  V30 29 1 29 30
M  V30 30 1 30 31
M  V30 31 1 31 32
M  V30 32 2 26 33
M  V30 33 1 10 2
M  V30 34 1 33 12
M  V30 35 1 24 18
M  V30 36 1 32 28
M  V30 37 1 1 34
M  V30 38 1 1 35
M  V30 39 1 1 36
M  V30 40 1 3 37
M  V30 41 1 4 38
M  V30 42 1 7 39
M  V30 43 1 7 40
M  V30 44 1 9 41
M  V30 45 1 11 42
M  V30 46 1 15 43
M  V30 47 1 16 44
M  V30 48 1 16 45
M  V30 49 1 17 46
M  V30 50 1 17 47
M  V30 51 1 19 48
M  V30 52 1 20 49
M  V30 53 1 23 50
M  V30 54 1 24 51
M  V30 55 1 27 52
M  V30 56 1 28 53 CFG=3
M  V30 57 1 29 54
M  V30 58 1 29 55
M  V30 59 1 30 56
M  V30 60 1 30 57
M  V30 61 1 31 58
M  V30 62 1 32 59
M  V30 63 1 32 60
M  V30 END BOND
M  V30 END CTAB
M  END
>  <Dataset>  (537) 
ChEMBL_Kinases

>  <Ligand_Instance>  (537) 
nan

>  <PDB_ID>  (537) 
nan

>  <Standardized_SMILES>  (537) 
Cc1ccc(C(N)=O)cc1Nc1nc(NCCc2ccc(F)cc2)nc(N[C@H]2CCNC2)n1

>  <Name>  (537) 
nan

>  <Pocket>  (537) 
nan

>  <ATP_Site>  (537) 
nan

>  <Peripheral>  (537) 
nan

>  <Num_H_Atoms_ProtBoundConf>  (537) 
nan

>  <Num_Resolved_Atoms>  (537) 
nan

>  <Num_Not_Resolved_Atoms>  (537) 
nan

$$$$
CHEMBL225418
     RDKit          3D

  0  0  0  0  0  0  0  0  0  0999 V3000
M  V30 BEGIN CTAB
M  V30 COUNTS 66 68 0 0 0
M  V30 BEGIN ATOM
M  V30 1 C 0.584290 -1.367857 4.986566 0
M  V30 2 O 1.163024 -2.103123 3.962876 0
M  V30 3 N 1.502888 -1.253988 2.964610 0
M  V30 4 C 2.760576 -0.625340 2.925669 0
M  V30 5 O 3.686405 -0.790313 3.795002 0
M  V30 6 C 3.143327 0.290530 1.880102 0
M  V30 7 C 4.363845 0.908952 1.808637 0
M  V30 8 C 4.688033 1.795497 0.777610 0
M  V30 9 C 3.759434 2.070104 -0.211306 0
M  V30 10 C 4.120062 3.011668 -1.293367 0
M  V30 11 C 2.517665 1.498677 -0.215245 0
M  V30 12 N 1.502146 1.743491 -1.176434 0
M  V30 13 C 0.286028 1.003373 -1.048717 0
M  V30 14 N -0.672735 1.394258 -0.175263 0
M  V30 15 C -1.774763 0.634060 -0.148475 0
M  V30 16 N -2.823243 0.937634 0.790835 0
M  V30 17 C -2.873112 1.961068 1.784192 0 CFG=1
M  V30 18 C -4.197750 1.946219 2.549515 0
M  V30 19 C -3.997245 0.815381 3.516181 0
M  V30 20 N -2.598565 0.509093 3.542662 0
M  V30 21 C -1.906099 1.606599 2.925902 0
M  V30 22 N -1.934207 -0.449013 -0.930368 0
M  V30 23 C -0.964286 -0.805951 -1.777799 0
M  V30 24 N -1.340533 -2.003991 -2.498231 0
M  V30 25 C -2.745621 -2.174913 -2.868616 0
M  V30 26 C -0.275324 -2.975526 -2.724843 0
M  V30 27 C -0.383371 -4.137534 -1.787804 0
M  V30 28 C 0.762976 -5.102790 -2.109981 0
M  V30 29 C -1.666225 -4.888174 -1.897101 0
M  V30 30 C -0.157627 -3.653161 -0.355093 0
M  V30 31 N 0.159574 -0.082287 -1.846804 0
M  V30 32 C 2.284218 0.628081 0.850646 0
M  V30 33 H -0.003897 -0.526271 4.619029 0
M  V30 34 H -0.077410 -2.042210 5.545338 0
M  V30 35 H 1.326999 -0.998420 5.724436 0
M  V30 36 H 0.751330 -1.122375 2.263852 0
M  V30 37 H 5.103954 0.711785 2.571553 0
M  V30 38 H 5.669077 2.236492 0.784464 0
M  V30 39 H 4.104556 2.467252 -2.255446 0
M  V30 40 H 3.476065 3.892820 -1.281409 0
M  V30 41 H 5.180746 3.357989 -1.170357 0
M  V30 42 H 1.747749 2.455114 -1.904863 0
M  V30 43 H -3.687107 0.338574 0.757504 0
M  V30 44 H -2.685832 2.934114 1.382622 0
M  V30 45 H -5.045490 1.808028 1.854199 0
M  V30 46 H -4.330069 2.898453 3.102121 0
M  V30 47 H -4.599446 -0.060546 3.206200 0
M  V30 48 H -4.299589 1.147946 4.534279 0
M  V30 49 H -2.448308 -0.332150 2.925309 0
M  V30 50 H -0.951305 1.369912 2.460691 0
M  V30 51 H -1.817296 2.513659 3.561967 0
M  V30 52 H -2.984690 -1.354668 -3.600274 0
M  V30 53 H -3.382723 -2.086075 -1.995865 0
M  V30 54 H -2.862692 -3.108725 -3.442363 0
M  V30 55 H 0.692010 -2.481757 -2.589856 0
M  V30 56 H -0.363870 -3.297955 -3.782458 0
M  V30 57 H 1.641306 -4.520850 -2.412200 0
M  V30 58 H 1.021305 -5.598466 -1.150341 0
M  V30 59 H 0.455073 -5.786511 -2.909748 0
M  V30 60 H -2.520252 -4.302779 -1.468664 0
M  V30 61 H -1.894547 -5.180692 -2.911522 0
M  V30 62 H -1.604392 -5.794141 -1.217665 0
M  V30 63 H -1.109839 -3.304094 0.049411 0
M  V30 64 H 0.566470 -2.818779 -0.451890 0
M  V30 65 H 0.209336 -4.490443 0.245113 0
M  V30 66 H 1.305777 0.160741 0.878514 0
M  V30 END ATOM
M  V30 BEGIN BOND
M  V30 1 1 1 2
M  V30 2 1 2 3
M  V30 3 1 3 4
M  V30 4 2 4 5
M  V30 5 1 4 6
M  V30 6 2 6 7
M  V30 7 1 7 8
M  V30 8 2 8 9
M  V30 9 1 9 10
M  V30 10 1 9 11
M  V30 11 1 11 12
M  V30 12 1 12 13
M  V30 13 2 13 14
M  V30 14 1 14 15
M  V30 15 1 15 16
M  V30 16 1 16 17
M  V30 17 1 17 18
M  V30 18 1 18 19
M  V30 19 1 19 20
M  V30 20 1 20 21
M  V30 21 2 15 22
M  V30 22 1 22 23
M  V30 23 1 23 24
M  V30 24 1 24 25
M  V30 25 1 24 26
M  V30 26 1 26 27
M  V30 27 1 27 28
M  V30 28 1 27 29
M  V30 29 1 27 30
M  V30 30 2 23 31
M  V30 31 2 11 32
M  V30 32 1 32 6
M  V30 33 1 31 13
M  V30 34 1 21 17
M  V30 35 1 1 33
M  V30 36 1 1 34
M  V30 37 1 1 35
M  V30 38 1 3 36
M  V30 39 1 7 37
M  V30 40 1 8 38
M  V30 41 1 10 39
M  V30 42 1 10 40
M  V30 43 1 10 41
M  V30 44 1 12 42
M  V30 45 1 16 43
M  V30 46 1 17 44 CFG=3
M  V30 47 1 18 45
M  V30 48 1 18 46
M  V30 49 1 19 47
M  V30 50 1 19 48
M  V30 51 1 20 49
M  V30 52 1 21 50
M  V30 53 1 21 51
M  V30 54 1 25 52
M  V30 55 1 25 53
M  V30 56 1 25 54
M  V30 57 1 26 55
M  V30 58 1 26 56
M  V30 59 1 28 57
M  V30 60 1 28 58
M  V30 61 1 28 59
M  V30 62 1 29 60
M  V30 63 1 29 61
M  V30 64 1 29 62
M  V30 65 1 30 63
M  V30 66 1 30 64
M  V30 67 1 30 65
M  V30 68 1 32 66
M  V30 END BOND
M  V30 END CTAB
M  END
>  <Dataset>  (538) 
ChEMBL_Kinases

>  <Ligand_Instance>  (538) 
nan

>  <PDB_ID>  (538) 
nan

>  <Standardized_SMILES>  (538) 
CONC(=O)c1ccc(C)c(Nc2nc(N[C@H]3CCNC3)nc(N(C)CC(C)(C)C)n2)c1

>  <Name>  (538) 
nan

>  <Pocket>  (538) 
nan

>  <ATP_Site>  (538) 
nan

>  <Peripheral>  (538) 
nan

>  <Num_H_Atoms_ProtBoundConf>  (538) 
nan

>  <Num_Resolved_Atoms>  (538) 
nan

>  <Num_Not_Resolved_Atoms>  (538) 
nan

$$$$
CHEMBL225101
     RDKit          3D

  0  0  0  0  0  0  0  0  0  0999 V3000
M  V30 BEGIN CTAB
M  V30 COUNTS 66 69 0 0 0
M  V30 BEGIN ATOM
M  V30 1 C 4.387854 3.043329 1.891235 0
M  V30 2 C 4.196481 1.853178 1.872711 0
M  V30 3 C 3.985462 0.399261 1.849314 0
M  V30 4 O 3.102515 0.015962 0.859257 0
M  V30 5 C 1.865291 0.649780 1.100093 0
M  V30 6 C 0.932687 0.204674 -0.001631 0
M  V30 7 N 0.731606 -1.208052 -0.041124 0
M  V30 8 C 1.396252 -2.189730 -0.676371 0
M  V30 9 S 2.825264 -1.940424 -1.717845 0
M  V30 10 C 2.370427 -1.669406 -3.429981 0
M  V30 11 C 1.629188 -0.417210 -3.676108 0
M  V30 12 C 2.164357 0.814371 -3.986338 0
M  V30 13 C 1.322772 1.891820 -4.185487 0
M  V30 14 C -0.045521 1.765083 -4.081127 0
M  V30 15 S -1.176941 3.080390 -4.318250 0 CHG=1 VAL=3
M  V30 16 C -1.496880 3.919079 -2.783465 0
M  V30 17 O -0.678431 4.166530 -5.471244 0 CHG=-1 VAL=1
M  V30 18 C -0.598881 0.542232 -3.771956 0
M  V30 19 C 0.239244 -0.536504 -3.572357 0
M  V30 20 N 0.831399 -3.393907 -0.424328 0
M  V30 21 C -0.222916 -3.126250 0.400977 0
M  V30 22 C -1.046397 -4.264651 0.855730 0
M  V30 23 C -1.751561 -5.072315 -0.010078 0
M  V30 24 C -2.520639 -6.133611 0.396660 0
M  V30 25 C -2.597914 -6.415459 1.749005 0
M  V30 26 F -3.338722 -7.447826 2.214702 0
M  V30 27 C -1.887154 -5.598973 2.602981 0
M  V30 28 C -1.108600 -4.528791 2.222661 0
M  V30 29 C -0.289868 -1.748173 0.645411 0
M  V30 30 C -1.380386 -1.322793 1.506728 0
M  V30 31 C -2.647110 -1.476210 0.958639 0
M  V30 32 C -3.700215 -1.083825 1.758327 0
M  V30 33 N -3.535369 -0.582889 2.990865 0
M  V30 34 C -2.328097 -0.419190 3.555786 0
M  V30 35 N -2.243597 0.109428 4.846358 0
M  V30 36 C -1.128065 0.387852 5.673826 0
M  V30 37 C -1.190339 0.952499 7.032393 0
M  V30 38 O 0.009067 0.133022 5.213466 0
M  V30 39 C -1.265489 -0.803926 2.776272 0
M  V30 40 H 4.542216 4.110411 1.915576 0
M  V30 41 H 4.986431 -0.055124 1.641188 0
M  V30 42 H 3.704362 0.083299 2.865812 0
M  V30 43 H 1.577192 0.359429 2.105780 0
M  V30 44 H 1.987440 1.742434 1.057761 0
M  V30 45 H 1.450710 0.515919 -0.948495 0
M  V30 46 H -0.009810 0.789082 -0.013456 0
M  V30 47 H 3.313828 -1.720972 -4.040999 0
M  V30 48 H 1.784949 -2.557157 -3.778032 0
M  V30 49 H 3.224796 0.865437 -4.056796 0
M  V30 50 H 1.725043 2.857706 -4.428175 0
M  V30 51 H -0.735768 4.690545 -2.660508 0
M  V30 52 H -1.442447 3.166213 -1.967408 0
M  V30 53 H -2.481411 4.412849 -2.840453 0
M  V30 54 H -1.685672 0.396640 -3.678751 0
M  V30 55 H -0.245970 -1.491842 -3.327966 0
M  V30 56 H -1.650522 -4.798929 -1.065628 0
M  V30 57 H -3.056512 -6.739245 -0.321605 0
M  V30 58 H -1.962369 -5.839994 3.668253 0
M  V30 59 H -0.574208 -3.923289 2.925844 0
M  V30 60 H -2.814448 -1.877556 -0.033688 0
M  V30 61 H -4.720940 -1.165888 1.416310 0
M  V30 62 H -3.135928 0.367001 5.346397 0
M  V30 63 H -2.279278 1.106106 7.293154 0
M  V30 64 H -0.745571 1.976913 7.072190 0
M  V30 65 H -0.734502 0.326944 7.817808 0
M  V30 66 H -0.275601 -0.719610 3.127417 0
M  V30 END ATOM
M  V30 BEGIN BOND
M  V30 1 3 1 2
M  V30 2 1 2 3
M  V30 3 1 3 4
M  V30 4 1 4 5
M  V30 5 1 5 6
M  V30 6 1 6 7
M  V30 7 1 7 8
M  V30 8 1 8 9
M  V30 9 1 9 10
M  V30 10 1 10 11
M  V30 11 2 11 12
M  V30 12 1 12 13
M  V30 13 2 13 14
M  V30 14 1 14 15
M  V30 15 1 15 16
M  V30 16 1 15 17
M  V30 17 1 14 18
M  V30 18 2 18 19
M  V30 19 2 8 20
M  V30 20 1 20 21
M  V30 21 1 21 22
M  V30 22 2 22 23
M  V30 23 1 23 24
M  V30 24 2 24 25
M  V30 25 1 25 26
M  V30 26 1 25 27
M  V30 27 2 27 28
M  V30 28 2 21 29
M  V30 29 1 29 30
M  V30 30 2 30 31
M  V30 31 1 31 32
M  V30 32 2 32 33
M  V30 33 1 33 34
M  V30 34 1 34 35
M  V30 35 1 35 36
M  V30 36 1 36 37
M  V30 37 2 36 38
M  V30 38 2 34 39
M  V30 39 1 29 7
M  V30 40 1 39 30
M  V30 41 1 19 11
M  V30 42 1 28 22
M  V30 43 1 1 40
M  V30 44 1 3 41
M  V30 45 1 3 42
M  V30 46 1 5 43
M  V30 47 1 5 44
M  V30 48 1 6 45
M  V30 49 1 6 46
M  V30 50 1 10 47
M  V30 51 1 10 48
M  V30 52 1 12 49
M  V30 53 1 13 50
M  V30 54 1 16 51
M  V30 55 1 16 52
M  V30 56 1 16 53
M  V30 57 1 18 54
M  V30 58 1 19 55
M  V30 59 1 23 56
M  V30 60 1 24 57
M  V30 61 1 27 58
M  V30 62 1 28 59
M  V30 63 1 31 60
M  V30 64 1 32 61
M  V30 65 1 35 62
M  V30 66 1 37 63
M  V30 67 1 37 64
M  V30 68 1 37 65
M  V30 69 1 39 66
M  V30 END BOND
M  V30 END CTAB
M  END
>  <Dataset>  (539) 
ChEMBL_Kinases

>  <Ligand_Instance>  (539) 
nan

>  <PDB_ID>  (539) 
nan

>  <Standardized_SMILES>  (539) 
C#CCOCCn1c(SCc2ccc([S+](C)[O-])cc2)nc(-c2ccc(F)cc2)c1-c1ccnc(NC(C)=O)c1

>  <Name>  (539) 
nan

>  <Pocket>  (539) 
nan

>  <ATP_Site>  (539) 
nan

>  <Peripheral>  (539) 
nan

>  <Num_H_Atoms_ProtBoundConf>  (539) 
nan

>  <Num_Resolved_Atoms>  (539) 
nan

>  <Num_Not_Resolved_Atoms>  (539) 
nan

$$$$
CHEMBL225166
     RDKit          3D

  0  0  0  0  0  0  0  0  0  0999 V3000
M  V30 BEGIN CTAB
M  V30 COUNTS 42 45 0 0 0
M  V30 BEGIN ATOM
M  V30 1 C 1.587625 -3.673222 3.328065 0
M  V30 2 C 1.227518 -3.665124 1.966440 0
M  V30 3 C -0.093031 -3.708527 1.635146 0
M  V30 4 C -0.583870 -3.708262 0.234185 0
M  V30 5 N -0.807434 -2.382722 -0.219083 0
M  V30 6 C -1.747146 -1.597240 0.482525 0
M  V30 7 C -2.229859 -0.422505 -0.283753 0
M  V30 8 C -1.304611 0.206302 -1.242144 0
M  V30 9 C -0.019811 -0.464602 -1.550069 0
M  V30 10 N 1.137679 0.436985 -1.538157 0
M  V30 11 C 1.617168 1.170059 -0.427233 0
M  V30 12 C 2.716308 2.020836 -0.484913 0
M  V30 13 C 3.171534 2.722398 0.607332 0
M  V30 14 C 2.556850 2.621054 1.836451 0
M  V30 15 N 2.791182 3.181797 3.036501 0
M  V30 16 N 1.886765 2.739698 3.908636 0
M  V30 17 C 1.073049 1.890616 3.250910 0
M  V30 18 C 1.463271 1.786362 1.931797 0
M  V30 19 C 1.031903 1.096638 0.817338 0
M  V30 20 C 0.286781 -1.723065 -0.803860 0
M  V30 21 C -1.088627 -3.761793 2.709819 0
M  V30 22 S -0.010392 -3.746218 4.243112 0
M  V30 23 H 2.558522 -3.644327 3.758978 0
M  V30 24 H 2.021640 -3.624563 1.244282 0
M  V30 25 H -1.523537 -4.287026 0.155718 0
M  V30 26 H 0.201102 -4.155610 -0.432989 0
M  V30 27 H -1.306728 -1.336894 1.470577 0
M  V30 28 H -2.609219 -2.258699 0.736289 0
M  V30 29 H -2.581400 0.322894 0.491353 0
M  V30 30 H -3.203421 -0.712586 -0.782839 0
M  V30 31 H -1.042942 1.243874 -0.870064 0
M  V30 32 H -1.888837 0.450370 -2.185981 0
M  V30 33 H -0.101818 -0.801407 -2.631012 0
M  V30 34 H 1.714010 0.596048 -2.422487 0
M  V30 35 H 3.226219 2.123391 -1.445421 0
M  V30 36 H 4.027280 3.352725 0.459928 0
M  V30 37 H 3.578320 3.867782 3.240136 0
M  V30 38 H 0.213960 1.340727 3.663998 0
M  V30 39 H 0.186743 0.486850 1.016463 0
M  V30 40 H 0.809422 -2.488884 -1.452384 0
M  V30 41 H 1.041135 -1.488813 -0.024913 0
M  V30 42 H -2.118410 -3.797866 2.603037 0
M  V30 END ATOM
M  V30 BEGIN BOND
M  V30 1 2 1 2
M  V30 2 1 2 3
M  V30 3 1 3 4
M  V30 4 1 4 5
M  V30 5 1 5 6
M  V30 6 1 6 7
M  V30 7 1 7 8
M  V30 8 1 8 9
M  V30 9 1 9 10
M  V30 10 1 10 11
M  V30 11 2 11 12
M  V30 12 1 12 13
M  V30 13 2 13 14
M  V30 14 1 14 15
M  V30 15 1 15 16
M  V30 16 2 16 17
M  V30 17 1 17 18
M  V30 18 2 18 19
M  V30 19 1 9 20
M  V30 20 2 3 21
M  V30 21 1 21 22
M  V30 22 1 22 1
M  V30 23 1 20 5
M  V30 24 1 19 11
M  V30 25 1 18 14
M  V30 26 1 1 23
M  V30 27 1 2 24
M  V30 28 1 4 25
M  V30 29 1 4 26
M  V30 30 1 6 27
M  V30 31 1 6 28
M  V30 32 1 7 29
M  V30 33 1 7 30
M  V30 34 1 8 31
M  V30 35 1 8 32
M  V30 36 1 9 33
M  V30 37 1 10 34
M  V30 38 1 12 35
M  V30 39 1 13 36
M  V30 40 1 15 37
M  V30 41 1 17 38
M  V30 42 1 19 39
M  V30 43 1 20 40
M  V30 44 1 20 41
M  V30 45 1 21 42
M  V30 END BOND
M  V30 END CTAB
M  END
>  <Dataset>  (540) 
ChEMBL_Kinases

>  <Ligand_Instance>  (540) 
nan

>  <PDB_ID>  (540) 
nan

>  <Standardized_SMILES>  (540) 
c1cc(CN2CCCC(Nc3ccc4[nH]ncc4c3)C2)cs1

>  <Name>  (540) 
nan

>  <Pocket>  (540) 
nan

>  <ATP_Site>  (540) 
nan

>  <Peripheral>  (540) 
nan

>  <Num_H_Atoms_ProtBoundConf>  (540) 
nan

>  <Num_Resolved_Atoms>  (540) 
nan

>  <Num_Not_Resolved_Atoms>  (540) 
nan

$$$$
CHEMBL225174
     RDKit          3D

  0  0  0  0  0  0  0  0  0  0999 V3000
M  V30 BEGIN CTAB
M  V30 COUNTS 49 51 0 0 0
M  V30 BEGIN ATOM
M  V30 1 C 1.147032 -5.287086 2.947233 0
M  V30 2 S 1.394712 -5.031128 1.175153 0
M  V30 3 C 1.471033 -3.250176 0.897956 0
M  V30 4 N 2.604108 -2.498041 0.934982 0
M  V30 5 C 2.266967 -1.231552 0.683720 0
M  V30 6 C 3.073846 -0.010735 0.598633 0
M  V30 7 C 2.886521 1.058900 1.462109 0
M  V30 8 C 3.664086 2.200041 1.358686 0
M  V30 9 C 4.653638 2.308253 0.388795 0
M  V30 10 F 5.422816 3.396909 0.261394 0
M  V30 11 C 4.837725 1.240327 -0.470263 0
M  V30 12 C 4.067571 0.090640 -0.379886 0
M  V30 13 C 0.904973 -1.189580 0.486611 0
M  V30 14 C 0.022351 -0.063501 0.181083 0
M  V30 15 C 0.023685 0.739931 -0.951360 0
M  V30 16 C -0.904898 1.756331 -1.034988 0
M  V30 17 N -1.806186 1.995071 -0.064090 0
M  V30 18 C -1.829496 1.244228 1.026465 0
M  V30 19 N -2.807797 1.526262 2.046203 0
M  V30 20 C -3.700601 2.615008 1.801137 0
M  V30 21 C -4.717763 2.912973 2.854179 0
M  V30 22 O -3.635711 3.294149 0.746987 0
M  V30 23 C -0.927722 0.209705 1.174555 0
M  V30 24 N 0.420324 -2.439938 0.620415 0
M  V30 25 C -0.948328 -2.947121 0.510582 0
M  V30 26 C -1.213176 -3.347417 -0.948689 0
M  V30 27 C -2.595805 -3.873402 -1.132490 0
M  V30 28 O -1.019386 -2.236051 -1.802543 0
M  V30 29 H 2.161971 -5.412241 3.408482 0
M  V30 30 H 0.481935 -6.127251 3.193125 0
M  V30 31 H 0.719362 -4.396371 3.457844 0
M  V30 32 H 2.116086 1.006593 2.237553 0
M  V30 33 H 3.530843 3.052577 2.030616 0
M  V30 34 H 5.590100 1.223809 -1.268965 0
M  V30 35 H 4.190403 -0.770303 -1.045525 0
M  V30 36 H 0.776234 0.469317 -1.661984 0
M  V30 37 H -0.814631 2.318124 -1.956932 0
M  V30 38 H -2.842445 0.942532 2.922214 0
M  V30 39 H -5.715765 2.490919 2.614869 0
M  V30 40 H -4.851941 4.012428 2.880505 0
M  V30 41 H -4.354882 2.594597 3.848038 0
M  V30 42 H -1.031314 -0.352567 2.116875 0
M  V30 43 H -1.077483 -3.851631 1.106611 0
M  V30 44 H -1.712297 -2.169608 0.713556 0
M  V30 45 H -0.469899 -4.104727 -1.235585 0
M  V30 46 H -3.056491 -3.987350 -0.137664 0
M  V30 47 H -3.218588 -3.243757 -1.803031 0
M  V30 48 H -2.549033 -4.867228 -1.621063 0
M  V30 49 H -0.033785 -2.118313 -1.926511 0
M  V30 END ATOM
M  V30 BEGIN BOND
M  V30 1 1 1 2
M  V30 2 1 2 3
M  V30 3 2 3 4
M  V30 4 1 4 5
M  V30 5 1 5 6
M  V30 6 2 6 7
M  V30 7 1 7 8
M  V30 8 2 8 9
M  V30 9 1 9 10
M  V30 10 1 9 11
M  V30 11 2 11 12
M  V30 12 2 5 13
M  V30 13 1 13 14
M  V30 14 2 14 15
M  V30 15 1 15 16
M  V30 16 2 16 17
M  V30 17 1 17 18
M  V30 18 1 18 19
M  V30 19 1 19 20
M  V30 20 1 20 21
M  V30 21 2 20 22
M  V30 22 2 18 23
M  V30 23 1 13 24
M  V30 24 1 24 25
M  V30 25 1 25 26
M  V30 26 1 26 27
M  V30 27 1 26 28
M  V30 28 1 24 3
M  V30 29 1 12 6
M  V30 30 1 23 14
M  V30 31 1 1 29
M  V30 32 1 1 30
M  V30 33 1 1 31
M  V30 34 1 7 32
M  V30 35 1 8 33
M  V30 36 1 11 34
M  V30 37 1 12 35
M  V30 38 1 15 36
M  V30 39 1 16 37
M  V30 40 1 19 38
M  V30 41 1 21 39
M  V30 42 1 21 40
M  V30 43 1 21 41
M  V30 44 1 23 42
M  V30 45 1 25 43
M  V30 46 1 25 44
M  V30 47 1 26 45
M  V30 48 1 27 46
M  V30 49 1 27 47
M  V30 50 1 27 48
M  V30 51 1 28 49
M  V30 END BOND
M  V30 END CTAB
M  END
>  <Dataset>  (541) 
ChEMBL_Kinases

>  <Ligand_Instance>  (541) 
nan

>  <PDB_ID>  (541) 
nan

>  <Standardized_SMILES>  (541) 
CSc1nc(-c2ccc(F)cc2)c(-c2ccnc(NC(C)=O)c2)n1CC(C)O

>  <Name>  (541) 
nan

>  <Pocket>  (541) 
nan

>  <ATP_Site>  (541) 
nan

>  <Peripheral>  (541) 
nan

>  <Num_H_Atoms_ProtBoundConf>  (541) 
nan

>  <Num_Resolved_Atoms>  (541) 
nan

>  <Num_Not_Resolved_Atoms>  (541) 
nan

$$$$
CHEMBL225224
     RDKit          3D

  0  0  0  0  0  0  0  0  0  0999 V3000
M  V30 BEGIN CTAB
M  V30 COUNTS 34 36 0 0 0
M  V30 BEGIN ATOM
M  V30 1 O -0.532813 -1.195590 0.729900 0
M  V30 2 C 0.077968 -0.782526 1.728608 0
M  V30 3 N 1.161568 -1.534542 2.143743 0
M  V30 4 C 1.973178 -2.697446 1.900760 0
M  V30 5 C 2.636059 -2.621905 0.583243 0
M  V30 6 C 2.268570 -2.941365 -0.700419 0
M  V30 7 Cl 0.721132 -3.709281 -0.834323 0
M  V30 8 C 3.068893 -2.717723 -1.794383 0
M  V30 9 C 4.315811 -2.146637 -1.647541 0
M  V30 10 C 4.732540 -1.809091 -0.378459 0
M  V30 11 C 3.909427 -2.043444 0.702359 0
M  V30 12 Cl 4.643986 -1.533947 2.230259 0
M  V30 13 N -0.446106 0.406767 2.282378 0
M  V30 14 C -1.594629 0.864947 1.530224 0
M  V30 15 C -1.267815 1.747928 0.496837 0
M  V30 16 C -2.253488 2.277394 -0.317542 0
M  V30 17 C -3.567574 1.910858 -0.082359 0
M  V30 18 N -4.758836 2.229665 -0.670695 0
M  V30 19 N -5.733250 1.584265 -0.036301 0
M  V30 20 C -5.244438 0.836170 0.965376 0
M  V30 21 C -3.878447 1.037886 0.941172 0
M  V30 22 C -2.902991 0.495021 1.770226 0
M  V30 23 H 1.562295 -1.032486 3.009476 0
M  V30 24 H 2.657086 -2.917687 2.712458 0
M  V30 25 H 1.206027 -3.547093 1.805345 0
M  V30 26 H 2.644299 -3.018444 -2.739525 0
M  V30 27 H 4.853310 -2.020912 -2.583085 0
M  V30 28 H 5.715223 -1.369158 -0.336768 0
M  V30 29 H 0.053075 0.789605 3.140503 0
M  V30 30 H -0.239430 2.051381 0.291569 0
M  V30 31 H -2.073914 2.956829 -1.123761 0
M  V30 32 H -4.812078 2.886756 -1.488765 0
M  V30 33 H -5.826462 0.209417 1.641116 0
M  V30 34 H -3.069782 -0.189097 2.586617 0
M  V30 END ATOM
M  V30 BEGIN BOND
M  V30 1 2 1 2
M  V30 2 1 2 3
M  V30 3 1 3 4
M  V30 4 1 4 5
M  V30 5 2 5 6
M  V30 6 1 6 7
M  V30 7 1 6 8
M  V30 8 2 8 9
M  V30 9 1 9 10
M  V30 10 2 10 11
M  V30 11 1 11 12
M  V30 12 1 2 13
M  V30 13 1 13 14
M  V30 14 2 14 15
M  V30 15 1 15 16
M  V30 16 2 16 17
M  V30 17 1 17 18
M  V30 18 1 18 19
M  V30 19 2 19 20
M  V30 20 1 20 21
M  V30 21 2 21 22
M  V30 22 1 11 5
M  V30 23 1 22 14
M  V30 24 1 21 17
M  V30 25 1 3 23
M  V30 26 1 4 24
M  V30 27 1 4 25
M  V30 28 1 8 26
M  V30 29 1 9 27
M  V30 30 1 10 28
M  V30 31 1 13 29
M  V30 32 1 15 30
M  V30 33 1 16 31
M  V30 34 1 18 32
M  V30 35 1 20 33
M  V30 36 1 22 34
M  V30 END BOND
M  V30 END CTAB
M  END
>  <Dataset>  (542) 
ChEMBL_Kinases

>  <Ligand_Instance>  (542) 
nan

>  <PDB_ID>  (542) 
nan

>  <Standardized_SMILES>  (542) 
O=C(NCc1c(Cl)cccc1Cl)Nc1ccc2[nH]ncc2c1

>  <Name>  (542) 
nan

>  <Pocket>  (542) 
nan

>  <ATP_Site>  (542) 
nan

>  <Peripheral>  (542) 
nan

>  <Num_H_Atoms_ProtBoundConf>  (542) 
nan

>  <Num_Resolved_Atoms>  (542) 
nan

>  <Num_Not_Resolved_Atoms>  (542) 
nan

$$$$
CHEMBL225231
     RDKit          3D

  0  0  0  0  0  0  0  0  0  0999 V3000
M  V30 BEGIN CTAB
M  V30 COUNTS 75 79 0 0 0
M  V30 BEGIN ATOM
M  V30 1 C -0.773123 4.705883 -4.416405 0
M  V30 2 C -1.392379 3.731100 -3.482539 0
M  V30 3 O -2.274138 2.880966 -3.852354 0
M  V30 4 N -1.100008 3.612495 -2.094744 0
M  V30 5 C -1.915875 2.547799 -1.559893 0
M  V30 6 C -1.596787 1.221423 -1.479524 0
M  V30 7 C -2.526455 0.346583 -0.928051 0
M  V30 8 C -2.090154 -1.050222 -0.887931 0
M  V30 9 C -2.682908 -2.133276 -1.541332 0
M  V30 10 C -3.865966 -1.956751 -2.375476 0
M  V30 11 C -5.111492 -2.529795 -2.182938 0
M  V30 12 C -6.147431 -2.275910 -3.053490 0
M  V30 13 C -5.885307 -1.430641 -4.116384 0
M  V30 14 F -6.913201 -1.177901 -4.982055 0
M  V30 15 C -4.669628 -0.839134 -4.349730 0
M  V30 16 C -3.649334 -1.116720 -3.453623 0
M  V30 17 N -1.940653 -3.205898 -1.210966 0
M  V30 18 C -0.937202 -2.859591 -0.403561 0
M  V30 19 S 0.214312 -4.051047 0.203550 0
M  V30 20 C 1.649827 -4.294548 -0.858792 0
M  V30 21 C 2.532425 -3.128460 -0.961572 0
M  V30 22 C 3.609832 -2.827493 -0.153469 0
M  V30 23 C 4.323816 -1.679825 -0.406382 0
M  V30 24 C 4.002268 -0.819980 -1.437280 0
M  V30 25 S 4.871334 0.631423 -1.788659 0 CHG=1 VAL=3
M  V30 26 C 4.227917 2.047745 -0.933258 0
M  V30 27 O 6.489605 0.454220 -1.305214 0 CHG=-1 VAL=1
M  V30 28 C 2.925102 -1.116365 -2.249190 0
M  V30 29 C 2.183111 -2.278539 -2.011577 0
M  V30 30 N -1.024864 -1.512181 -0.197279 0
M  V30 31 C -0.082885 -0.798226 0.641954 0
M  V30 32 C -0.540646 -0.745429 2.079965 0
M  V30 33 N 0.380442 -0.041281 2.950187 0
M  V30 34 C -0.121880 -0.032996 4.268598 0
M  V30 35 C 0.704576 -0.695615 5.315512 0
M  V30 36 C 2.183970 -0.598627 5.103955 0
M  V30 37 C 2.551022 0.197904 3.876627 0
M  V30 38 C 1.739264 -0.413512 2.753946 0
M  V30 39 C -3.737470 0.846237 -0.481359 0
M  V30 40 C -4.013412 2.194844 -0.584147 0
M  V30 41 N -3.091530 3.041081 -1.127499 0
M  V30 42 H 0.320786 4.575859 -4.505505 0
M  V30 43 H -1.185396 4.471215 -5.419339 0
M  V30 44 H -1.001165 5.746348 -4.184934 0
M  V30 45 H -0.378838 4.279059 -1.701554 0
M  V30 46 H -0.610599 1.019203 -1.877713 0
M  V30 47 H -5.194801 -3.173024 -1.317410 0
M  V30 48 H -7.111750 -2.731482 -2.887327 0
M  V30 49 H -4.551723 -0.200029 -5.192767 0
M  V30 50 H -2.704677 -0.627063 -3.677604 0
M  V30 51 H 2.217783 -5.156227 -0.404950 0
M  V30 52 H 1.315678 -4.670549 -1.838644 0
M  V30 53 H 3.821032 -3.531627 0.639805 0
M  V30 54 H 5.169984 -1.444044 0.229040 0
M  V30 55 H 4.636694 2.094101 0.096060 0
M  V30 56 H 4.542674 2.942467 -1.509054 0
M  V30 57 H 3.115349 1.945772 -0.929100 0
M  V30 58 H 2.638958 -0.456527 -3.078875 0
M  V30 59 H 1.341500 -2.447385 -2.697841 0
M  V30 60 H 0.899704 -1.247348 0.513091 0
M  V30 61 H 0.012081 0.264219 0.311368 0
M  V30 62 H -1.511595 -0.204825 2.119231 0
M  V30 63 H -0.752983 -1.772447 2.452825 0
M  V30 64 H -0.205960 1.051815 4.568726 0
M  V30 65 H -1.164878 -0.404429 4.276446 0
M  V30 66 H 0.435704 -1.772483 5.341737 0
M  V30 67 H 0.475493 -0.292733 6.324482 0
M  V30 68 H 2.695372 -0.124187 5.969849 0
M  V30 69 H 2.647803 -1.597408 4.972041 0
M  V30 70 H 3.631259 0.085150 3.730832 0
M  V30 71 H 2.242307 1.238041 4.032637 0
M  V30 72 H 1.923925 -1.507404 2.822306 0
M  V30 73 H 2.100999 0.029938 1.809355 0
M  V30 74 H -4.401325 0.108749 -0.069065 0
M  V30 75 H -4.984442 2.552712 -0.219244 0
M  V30 END ATOM
M  V30 BEGIN BOND
M  V30 1 1 1 2
M  V30 2 2 2 3
M  V30 3 1 2 4
M  V30 4 1 4 5
M  V30 5 2 5 6
M  V30 6 1 6 7
M  V30 7 1 7 8
M  V30 8 2 8 9
M  V30 9 1 9 10
M  V30 10 2 10 11
M  V30 11 1 11 12
M  V30 12 2 12 13
M  V30 13 1 13 14
M  V30 14 1 13 15
M  V30 15 2 15 16
M  V30 16 1 9 17
M  V30 17 2 17 18
M  V30 18 1 18 19
M  V30 19 1 19 20
M  V30 20 1 20 21
M  V30 21 2 21 22
M  V30 22 1 22 23
M  V30 23 2 23 24
M  V30 24 1 24 25
M  V30 25 1 25 26
M  V30 26 1 25 27
M  V30 27 1 24 28
M  V30 28 2 28 29
M  V30 29 1 18 30
M  V30 30 1 30 31
M  V30 31 1 31 32
M  V30 32 1 32 33
M  V30 33 1 33 34
M  V30 34 1 34 35
M  V30 35 1 35 36
M  V30 36 1 36 37
M  V30 37 1 37 38
M  V30 38 2 7 39
M  V30 39 1 39 40
M  V30 40 2 40 41
M  V30 41 1 41 5
M  V30 42 1 30 8
M  V30 43 1 38 33
M  V30 44 1 16 10
M  V30 45 1 29 21
M  V30 46 1 1 42
M  V30 47 1 1 43
M  V30 48 1 1 44
M  V30 49 1 4 45
M  V30 50 1 6 46
M  V30 51 1 11 47
M  V30 52 1 12 48
M  V30 53 1 15 49
M  V30 54 1 16 50
M  V30 55 1 20 51
M  V30 56 1 20 52
M  V30 57 1 22 53
M  V30 58 1 23 54
M  V30 59 1 26 55
M  V30 60 1 26 56
M  V30 61 1 26 57
M  V30 62 1 28 58
M  V30 63 1 29 59
M  V30 64 1 31 60
M  V30 65 1 31 61
M  V30 66 1 32 62
M  V30 67 1 32 63
M  V30 68 1 34 64
M  V30 69 1 34 65
M  V30 70 1 35 66
M  V30 71 1 35 67
M  V30 72 1 36 68
M  V30 73 1 36 69
M  V30 74 1 37 70
M  V30 75 1 37 71
M  V30 76 1 38 72
M  V30 77 1 38 73
M  V30 78 1 39 74
M  V30 79 1 40 75
M  V30 END BOND
M  V30 END CTAB
M  END
>  <Dataset>  (543) 
ChEMBL_Kinases

>  <Ligand_Instance>  (543) 
nan

>  <PDB_ID>  (543) 
nan

>  <Standardized_SMILES>  (543) 
CC(=O)Nc1cc(-c2c(-c3ccc(F)cc3)nc(SCc3ccc([S+](C)[O-])cc3)n2CCN2CCCCC2)ccn1

>  <Name>  (543) 
nan

>  <Pocket>  (543) 
nan

>  <ATP_Site>  (543) 
nan

>  <Peripheral>  (543) 
nan

>  <Num_H_Atoms_ProtBoundConf>  (543) 
nan

>  <Num_Resolved_Atoms>  (543) 
nan

>  <Num_Not_Resolved_Atoms>  (543) 
nan

$$$$
CHEMBL225282
     RDKit          3D

  0  0  0  0  0  0  0  0  0  0999 V3000
M  V30 BEGIN CTAB
M  V30 COUNTS 34 36 0 0 0
M  V30 BEGIN ATOM
M  V30 1 O 0.841361 0.223839 0.949158 0
M  V30 2 C 0.169070 -0.080987 1.967860 0
M  V30 3 N 0.643167 -1.036774 2.872413 0
M  V30 4 C 1.876701 -1.797736 2.829375 0
M  V30 5 C 1.810254 -2.907430 1.837913 0
M  V30 6 C 1.353436 -4.177830 2.174949 0
M  V30 7 C 1.319894 -5.166123 1.194542 0
M  V30 8 C 1.721334 -4.950916 -0.113420 0
M  V30 9 C 2.178826 -3.672683 -0.444680 0
M  V30 10 C 2.208376 -2.699627 0.534220 0
M  V30 11 N -1.054617 0.614364 2.089134 0
M  V30 12 C -1.239230 1.529543 0.984030 0
M  V30 13 C -0.824907 2.845888 0.956863 0
M  V30 14 C -1.090109 3.573828 -0.197575 0
M  V30 15 C -1.742699 2.990529 -1.266161 0
M  V30 16 N -2.091916 3.525166 -2.469310 0
M  V30 17 N -2.710967 2.575232 -3.186632 0
M  V30 18 C -2.766985 1.426091 -2.458450 0
M  V30 19 C -2.159323 1.654324 -1.229243 0
M  V30 20 C -1.893057 0.923454 -0.070129 0
M  V30 21 H -0.031384 -1.186639 3.681297 0
M  V30 22 H 2.075352 -2.195668 3.823720 0
M  V30 23 H 2.704469 -1.124478 2.493518 0
M  V30 24 H 1.040972 -4.346198 3.192433 0
M  V30 25 H 0.961894 -6.149255 1.470092 0
M  V30 26 H 1.689469 -5.730151 -0.863530 0
M  V30 27 H 2.492918 -3.503182 -1.468134 0
M  V30 28 H 2.582124 -1.746137 0.170002 0
M  V30 29 H -1.652740 0.389953 2.929368 0
M  V30 30 H -0.326243 3.189359 1.849433 0
M  V30 31 H -0.748127 4.595979 -0.172712 0
M  V30 32 H -1.921100 4.509795 -2.810761 0
M  V30 33 H -3.181269 0.457464 -2.691608 0
M  V30 34 H -2.236548 -0.096477 -0.099731 0
M  V30 END ATOM
M  V30 BEGIN BOND
M  V30 1 2 1 2
M  V30 2 1 2 3
M  V30 3 1 3 4
M  V30 4 1 4 5
M  V30 5 2 5 6
M  V30 6 1 6 7
M  V30 7 2 7 8
M  V30 8 1 8 9
M  V30 9 2 9 10
M  V30 10 1 2 11
M  V30 11 1 11 12
M  V30 12 2 12 13
M  V30 13 1 13 14
M  V30 14 2 14 15
M  V30 15 1 15 16
M  V30 16 1 16 17
M  V30 17 2 17 18
M  V30 18 1 18 19
M  V30 19 2 19 20
M  V30 20 1 10 5
M  V30 21 1 20 12
M  V30 22 1 19 15
M  V30 23 1 3 21
M  V30 24 1 4 22
M  V30 25 1 4 23
M  V30 26 1 6 24
M  V30 27 1 7 25
M  V30 28 1 8 26
M  V30 29 1 9 27
M  V30 30 1 10 28
M  V30 31 1 11 29
M  V30 32 1 13 30
M  V30 33 1 14 31
M  V30 34 1 16 32
M  V30 35 1 18 33
M  V30 36 1 20 34
M  V30 END BOND
M  V30 END CTAB
M  END
>  <Dataset>  (544) 
ChEMBL_Kinases

>  <Ligand_Instance>  (544) 
nan

>  <PDB_ID>  (544) 
nan

>  <Standardized_SMILES>  (544) 
O=C(NCc1ccccc1)Nc1ccc2[nH]ncc2c1

>  <Name>  (544) 
nan

>  <Pocket>  (544) 
nan

>  <ATP_Site>  (544) 
nan

>  <Peripheral>  (544) 
nan

>  <Num_H_Atoms_ProtBoundConf>  (544) 
nan

>  <Num_Resolved_Atoms>  (544) 
nan

>  <Num_Not_Resolved_Atoms>  (544) 
nan

$$$$
CHEMBL2253274
     RDKit          3D

  0  0  0  0  0  0  0  0  0  0999 V3000
M  V30 BEGIN CTAB
M  V30 COUNTS 32 34 0 0 0
M  V30 BEGIN ATOM
M  V30 1 C -2.526051 -2.536386 4.718619 0
M  V30 2 O -2.375328 -3.327025 3.565043 0
M  V30 3 C -1.431639 -2.957718 2.615551 0
M  V30 4 C -0.652551 -1.818292 2.823393 0
M  V30 5 C 0.251790 -1.540287 1.818695 0
M  V30 6 C 1.163113 -0.393714 1.877449 0
M  V30 7 C 1.321827 0.366823 0.813301 0
M  V30 8 O 0.635885 0.111046 -0.377647 0
M  V30 9 C 1.031665 1.105330 -1.306009 0
M  V30 10 C 0.517116 1.126602 -2.610622 0
M  V30 11 C 1.051352 2.197044 -3.346854 0
M  V30 12 C 1.954826 3.095528 -2.842720 0
M  V30 13 C 2.401836 2.993889 -1.547661 0
M  V30 14 C 1.934035 1.975220 -0.750809 0
M  V30 15 C 2.144918 1.528913 0.617832 0
M  V30 16 O 2.907481 2.080826 1.432742 0
M  V30 17 C 0.419323 -2.291518 0.675792 0
M  V30 18 C -0.393514 -3.421288 0.529936 0
M  V30 19 C -1.317243 -3.765172 1.484506 0
M  V30 20 O -2.112289 -4.873504 1.338819 0
M  V30 21 H -1.659502 -2.500629 5.378222 0
M  V30 22 H -3.398037 -2.947391 5.298930 0
M  V30 23 H -2.872629 -1.524416 4.404059 0
M  V30 24 H -0.731230 -1.198832 3.681847 0
M  V30 25 H 1.762800 -0.064877 2.737467 0
M  V30 26 H -0.189374 0.427092 -3.012555 0
M  V30 27 H 0.679490 2.265898 -4.383629 0
M  V30 28 H 2.311766 3.905038 -3.502256 0
M  V30 29 H 3.105832 3.675495 -1.117318 0
M  V30 30 H 1.115087 -2.115045 -0.127781 0
M  V30 31 H -0.341074 -4.082638 -0.333422 0
M  V30 32 H -3.011798 -4.840310 0.854455 0
M  V30 END ATOM
M  V30 BEGIN BOND
M  V30 1 1 1 2
M  V30 2 1 2 3
M  V30 3 2 3 4
M  V30 4 1 4 5
M  V30 5 1 5 6
M  V30 6 2 6 7
M  V30 7 1 7 8
M  V30 8 1 8 9
M  V30 9 2 9 10
M  V30 10 1 10 11
M  V30 11 2 11 12
M  V30 12 1 12 13
M  V30 13 2 13 14
M  V30 14 1 14 15
M  V30 15 2 15 16
M  V30 16 2 5 17
M  V30 17 1 17 18
M  V30 18 2 18 19
M  V30 19 1 19 20
M  V30 20 1 19 3
M  V30 21 1 15 7
M  V30 22 1 14 9
M  V30 23 1 1 21
M  V30 24 1 1 22
M  V30 25 1 1 23
M  V30 26 1 4 24
M  V30 27 1 6 25
M  V30 28 1 10 26
M  V30 29 1 11 27
M  V30 30 1 12 28
M  V30 31 1 13 29
M  V30 32 1 17 30
M  V30 33 1 18 31
M  V30 34 1 20 32
M  V30 END BOND
M  V30 END CTAB
M  END
>  <Dataset>  (545) 
ChEMBL_Kinases

>  <Ligand_Instance>  (545) 
nan

>  <PDB_ID>  (545) 
nan

>  <Standardized_SMILES>  (545) 
COc1cc(/C=C2\Oc3ccccc3C2=O)ccc1O

>  <Name>  (545) 
nan

>  <Pocket>  (545) 
nan

>  <ATP_Site>  (545) 
nan

>  <Peripheral>  (545) 
nan

>  <Num_H_Atoms_ProtBoundConf>  (545) 
nan

>  <Num_Resolved_Atoms>  (545) 
nan

>  <Num_Not_Resolved_Atoms>  (545) 
nan

$$$$
CHEMBL2253275
     RDKit          3D

  0  0  0  0  0  0  0  0  0  0999 V3000
M  V30 BEGIN CTAB
M  V30 COUNTS 35 37 0 0 0
M  V30 BEGIN ATOM
M  V30 1 C -1.263656 -3.731250 3.788960 0
M  V30 2 C -0.586661 -4.804768 2.930463 0
M  V30 3 O -0.634954 -4.541192 1.573930 0
M  V30 4 C -0.163386 -3.521633 0.833790 0
M  V30 5 C 0.546408 -2.393826 1.172736 0
M  V30 6 C 0.947710 -1.419945 0.242926 0
M  V30 7 C 1.706498 -0.310807 0.850600 0
M  V30 8 C 1.303166 0.902045 0.460611 0
M  V30 9 O 0.310370 1.258798 -0.401315 0
M  V30 10 C 0.186266 2.646486 -0.551931 0
M  V30 11 C -0.703104 3.347146 -1.331176 0
M  V30 12 C -0.654821 4.713948 -1.331061 0
M  V30 13 C 0.297263 5.340141 -0.538285 0
M  V30 14 C 1.225858 4.672273 0.273389 0
M  V30 15 C 1.137926 3.263227 0.242302 0
M  V30 16 C 1.890218 2.180449 0.921768 0
M  V30 17 O 2.833853 2.370134 1.722608 0
M  V30 18 C 0.606468 -1.624290 -1.073089 0
M  V30 19 C -0.113904 -2.749786 -1.492019 0
M  V30 20 C -0.470912 -3.663241 -0.497089 0
M  V30 21 O -1.181111 -4.737862 -1.043154 0
M  V30 22 H -0.783347 -3.645412 4.778702 0
M  V30 23 H -2.329921 -4.054877 4.005156 0
M  V30 24 H -1.263182 -2.785953 3.202775 0
M  V30 25 H 0.492272 -4.850054 3.245121 0
M  V30 26 H -1.021942 -5.794849 3.202420 0
M  V30 27 H 0.794293 -2.308829 2.235057 0
M  V30 28 H 2.519599 -0.448668 1.544683 0
M  V30 29 H -1.467019 2.955865 -1.969043 0
M  V30 30 H -1.258590 5.460020 -1.862676 0
M  V30 31 H 0.465057 6.423714 -0.424246 0
M  V30 32 H 1.973037 5.127762 0.899268 0
M  V30 33 H 0.971390 -0.817213 -1.680071 0
M  V30 34 H -0.297554 -2.756908 -2.542824 0
M  V30 35 H -2.119425 -4.572097 -1.359996 0
M  V30 END ATOM
M  V30 BEGIN BOND
M  V30 1 1 1 2
M  V30 2 1 2 3
M  V30 3 1 3 4
M  V30 4 2 4 5
M  V30 5 1 5 6
M  V30 6 1 6 7
M  V30 7 2 7 8
M  V30 8 1 8 9
M  V30 9 1 9 10
M  V30 10 2 10 11
M  V30 11 1 11 12
M  V30 12 2 12 13
M  V30 13 1 13 14
M  V30 14 2 14 15
M  V30 15 1 15 16
M  V30 16 2 16 17
M  V30 17 2 6 18
M  V30 18 1 18 19
M  V30 19 2 19 20
M  V30 20 1 20 21
M  V30 21 1 20 4
M  V30 22 1 16 8
M  V30 23 1 15 10
M  V30 24 1 1 22
M  V30 25 1 1 23
M  V30 26 1 1 24
M  V30 27 1 2 25
M  V30 28 1 2 26
M  V30 29 1 5 27
M  V30 30 1 7 28
M  V30 31 1 11 29
M  V30 32 1 12 30
M  V30 33 1 13 31
M  V30 34 1 14 32
M  V30 35 1 18 33
M  V30 36 1 19 34
M  V30 37 1 21 35
M  V30 END BOND
M  V30 END CTAB
M  END
>  <Dataset>  (546) 
ChEMBL_Kinases

>  <Ligand_Instance>  (546) 
nan

>  <PDB_ID>  (546) 
nan

>  <Standardized_SMILES>  (546) 
CCOc1cc(/C=C2\Oc3ccccc3C2=O)ccc1O

>  <Name>  (546) 
nan

>  <Pocket>  (546) 
nan

>  <ATP_Site>  (546) 
nan

>  <Peripheral>  (546) 
nan

>  <Num_H_Atoms_ProtBoundConf>  (546) 
nan

>  <Num_Resolved_Atoms>  (546) 
nan

>  <Num_Not_Resolved_Atoms>  (546) 
nan

$$$$
CHEMBL225089
     RDKit          3D

  0  0  0  0  0  0  0  0  0  0999 V3000
M  V30 BEGIN CTAB
M  V30 COUNTS 69 71 0 0 0
M  V30 BEGIN ATOM
M  V30 1 C 5.414246 -2.172563 4.165895 0
M  V30 2 O 4.549116 -1.230153 4.754934 0
M  V30 3 N 4.007021 -0.457675 3.792076 0
M  V30 4 C 4.541766 0.756447 3.303715 0
M  V30 5 O 5.621946 1.080378 3.868292 0
M  V30 6 C 3.977742 1.597370 2.274000 0
M  V30 7 C 4.676603 2.763240 2.003733 0
M  V30 8 C 4.223601 3.617677 1.051455 0
M  V30 9 C 3.077730 3.348735 0.344853 0
M  V30 10 C 2.642056 4.334647 -0.687310 0
M  V30 11 C 2.329508 2.190171 0.571519 0
M  V30 12 N 1.166415 1.958813 -0.170775 0
M  V30 13 C 0.250429 0.874883 -0.151197 0
M  V30 14 N -0.818830 0.892968 -0.965073 0
M  V30 15 C -1.735948 -0.075824 -1.026548 0
M  V30 16 N -2.831700 0.072128 -1.946239 0
M  V30 17 C -2.871980 1.281743 -2.741613 0
M  V30 18 C -3.813324 -0.970151 -2.032335 0
M  V30 19 C -3.819191 -1.738550 -3.311093 0
M  V30 20 C -4.924418 -2.796016 -3.207794 0
M  V30 21 C -4.168894 -0.906258 -4.518744 0
M  V30 22 C -2.544241 -2.474057 -3.580134 0
M  V30 23 N -1.595126 -1.144980 -0.229439 0
M  V30 24 C -0.543186 -1.209877 0.601316 0
M  V30 25 N -0.497846 -2.384071 1.399339 0
M  V30 26 C -1.608510 -3.277821 1.327583 0
M  V30 27 C -2.645009 -3.089005 2.392043 0
M  V30 28 C -2.158600 -2.920624 3.779912 0
M  V30 29 N -0.961422 -2.175939 3.967268 0
M  V30 30 C 0.236286 -2.885480 3.635529 0
M  V30 31 C 0.691470 -2.576463 2.224375 0
M  V30 32 N 0.355280 -0.212786 0.630667 0
M  V30 33 C 2.851399 1.369130 1.553994 0
M  V30 34 H 5.693455 -1.855925 3.135392 0
M  V30 35 H 6.349814 -2.267763 4.737808 0
M  V30 36 H 4.948605 -3.181454 4.111156 0
M  V30 37 H 3.118036 -0.791304 3.378922 0
M  V30 38 H 5.585602 3.043127 2.517836 0
M  V30 39 H 4.768717 4.539626 0.831609 0
M  V30 40 H 1.745276 4.877051 -0.364625 0
M  V30 41 H 3.438682 5.068101 -0.876233 0
M  V30 42 H 2.485159 3.778436 -1.639651 0
M  V30 43 H 0.920441 2.723920 -0.871826 0
M  V30 44 H -2.131536 1.241957 -3.569791 0
M  V30 45 H -2.578256 2.176293 -2.140617 0
M  V30 46 H -3.854523 1.511507 -3.160377 0
M  V30 47 H -3.754782 -1.685868 -1.187340 0
M  V30 48 H -4.846934 -0.522687 -1.931988 0
M  V30 49 H -4.892252 -3.326566 -2.223150 0
M  V30 50 H -4.828672 -3.566532 -4.012467 0
M  V30 51 H -5.930200 -2.332519 -3.319897 0
M  V30 52 H -5.024085 -0.226588 -4.318224 0
M  V30 53 H -4.516034 -1.554737 -5.368133 0
M  V30 54 H -3.293078 -0.368941 -4.910313 0
M  V30 55 H -1.786082 -1.778462 -3.980838 0
M  V30 56 H -2.764788 -3.229359 -4.381554 0
M  V30 57 H -2.204288 -3.084403 -2.719330 0
M  V30 58 H -1.262232 -4.333627 1.223147 0
M  V30 59 H -2.140001 -3.060246 0.354131 0
M  V30 60 H -3.355639 -2.266034 2.117129 0
M  V30 61 H -3.285161 -4.020767 2.388861 0
M  V30 62 H -2.011202 -3.907660 4.309376 0
M  V30 63 H -2.957672 -2.408612 4.370283 0
M  V30 64 H -0.982075 -1.175399 3.777622 0
M  V30 65 H 0.001993 -3.978870 3.718730 0
M  V30 66 H 1.037724 -2.709341 4.393324 0
M  V30 67 H 1.302800 -3.411689 1.824140 0
M  V30 68 H 1.219342 -1.619794 2.242364 0
M  V30 69 H 2.318297 0.459316 1.774646 0
M  V30 END ATOM
M  V30 BEGIN BOND
M  V30 1 1 1 2
M  V30 2 1 2 3
M  V30 3 1 3 4
M  V30 4 2 4 5
M  V30 5 1 4 6
M  V30 6 2 6 7
M  V30 7 1 7 8
M  V30 8 2 8 9
M  V30 9 1 9 10
M  V30 10 1 9 11
M  V30 11 1 11 12
M  V30 12 1 12 13
M  V30 13 2 13 14
M  V30 14 1 14 15
M  V30 15 1 15 16
M  V30 16 1 16 17
M  V30 17 1 16 18
M  V30 18 1 18 19
M  V30 19 1 19 20
M  V30 20 1 19 21
M  V30 21 1 19 22
M  V30 22 2 15 23
M  V30 23 1 23 24
M  V30 24 1 24 25
M  V30 25 1 25 26
M  V30 26 1 26 27
M  V30 27 1 27 28
M  V30 28 1 28 29
M  V30 29 1 29 30
M  V30 30 1 30 31
M  V30 31 2 24 32
M  V30 32 2 11 33
M  V30 33 1 33 6
M  V30 34 1 32 13
M  V30 35 1 31 25
M  V30 36 1 1 34
M  V30 37 1 1 35
M  V30 38 1 1 36
M  V30 39 1 3 37
M  V30 40 1 7 38
M  V30 41 1 8 39
M  V30 42 1 10 40
M  V30 43 1 10 41
M  V30 44 1 10 42
M  V30 45 1 12 43
M  V30 46 1 17 44
M  V30 47 1 17 45
M  V30 48 1 17 46
M  V30 49 1 18 47
M  V30 50 1 18 48
M  V30 51 1 20 49
M  V30 52 1 20 50
M  V30 53 1 20 51
M  V30 54 1 21 52
M  V30 55 1 21 53
M  V30 56 1 21 54
M  V30 57 1 22 55
M  V30 58 1 22 56
M  V30 59 1 22 57
M  V30 60 1 26 58
M  V30 61 1 26 59
M  V30 62 1 27 60
M  V30 63 1 27 61
M  V30 64 1 28 62
M  V30 65 1 28 63
M  V30 66 1 29 64
M  V30 67 1 30 65
M  V30 68 1 30 66
M  V30 69 1 31 67
M  V30 70 1 31 68
M  V30 71 1 33 69
M  V30 END BOND
M  V30 END CTAB
M  END
>  <Dataset>  (547) 
ChEMBL_Kinases

>  <Ligand_Instance>  (547) 
nan

>  <PDB_ID>  (547) 
nan

>  <Standardized_SMILES>  (547) 
CONC(=O)c1ccc(C)c(Nc2nc(N(C)CC(C)(C)C)nc(N3CCCNCC3)n2)c1

>  <Name>  (547) 
nan

>  <Pocket>  (547) 
nan

>  <ATP_Site>  (547) 
nan

>  <Peripheral>  (547) 
nan

>  <Num_H_Atoms_ProtBoundConf>  (547) 
nan

>  <Num_Resolved_Atoms>  (547) 
nan

>  <Num_Not_Resolved_Atoms>  (547) 
nan

$$$$
CHEMBL2375547
     RDKit          3D

  0  0  0  0  0  0  0  0  0  0999 V3000
M  V30 BEGIN CTAB
M  V30 COUNTS 30 31 0 0 0
M  V30 BEGIN ATOM
M  V30 1 N 0.044752 -1.914455 6.271480 0
M  V30 2 C 0.517511 -1.833798 4.937800 0
M  V30 3 O 1.433700 -2.465204 4.351123 0
M  V30 4 N -0.141873 -0.885674 4.107851 0
M  V30 5 C 0.121261 -0.589024 2.727199 0
M  V30 6 N 1.025864 0.379660 2.437177 0
M  V30 7 C 1.306449 0.693891 1.143454 0
M  V30 8 C 0.671611 0.027994 0.130356 0
M  V30 9 C 0.909976 0.298565 -1.282406 0
M  V30 10 C 0.214884 -0.432449 -2.222211 0
M  V30 11 C 0.372650 -0.248258 -3.599170 0
M  V30 12 C 1.276124 0.721131 -4.050856 0
M  V30 13 C 1.982861 1.464563 -3.111066 0
M  V30 14 C 1.791610 1.244946 -1.760730 0
M  V30 15 N -0.224681 -0.931799 0.418006 0
M  V30 16 C -0.522280 -1.264144 1.708295 0
M  V30 17 C -1.495359 -2.306186 2.021810 0
M  V30 18 N -2.148555 -2.991137 0.957740 0
M  V30 19 O -1.679417 -2.516714 3.258170 0
M  V30 20 H -0.838428 -2.473917 6.311762 0
M  V30 21 H 0.327139 -1.575706 7.217218 0
M  V30 22 H -0.928706 -0.255665 4.389099 0
M  V30 23 H 2.027457 1.465908 0.918712 0
M  V30 24 H -0.509829 -1.208994 -1.949946 0
M  V30 25 H -0.168297 -0.817034 -4.340327 0
M  V30 26 H 1.404738 0.870609 -5.115650 0
M  V30 27 H 2.685505 2.218557 -3.470527 0
M  V30 28 H 2.344505 1.826962 -1.062196 0
M  V30 29 H -1.533300 -3.819822 0.735878 0
M  V30 30 H -3.064997 -2.699948 0.504861 0
M  V30 END ATOM
M  V30 BEGIN BOND
M  V30 1 1 1 2
M  V30 2 2 2 3
M  V30 3 1 2 4
M  V30 4 1 4 5
M  V30 5 2 5 6
M  V30 6 1 6 7
M  V30 7 2 7 8
M  V30 8 1 8 9
M  V30 9 2 9 10
M  V30 10 1 10 11
M  V30 11 2 11 12
M  V30 12 1 12 13
M  V30 13 2 13 14
M  V30 14 1 8 15
M  V30 15 2 15 16
M  V30 16 1 16 17
M  V30 17 1 17 18
M  V30 18 2 17 19
M  V30 19 1 16 5
M  V30 20 1 14 9
M  V30 21 1 1 20
M  V30 22 1 1 21
M  V30 23 1 4 22
M  V30 24 1 7 23
M  V30 25 1 10 24
M  V30 26 1 11 25
M  V30 27 1 12 26
M  V30 28 1 13 27
M  V30 29 1 14 28
M  V30 30 1 18 29
M  V30 31 1 18 30
M  V30 END BOND
M  V30 END CTAB
M  END
>  <Dataset>  (548) 
ChEMBL_Kinases

>  <Ligand_Instance>  (548) 
nan

>  <PDB_ID>  (548) 
nan

>  <Standardized_SMILES>  (548) 
NC(=O)Nc1ncc(-c2ccccc2)nc1C(N)=O

>  <Name>  (548) 
nan

>  <Pocket>  (548) 
nan

>  <ATP_Site>  (548) 
nan

>  <Peripheral>  (548) 
nan

>  <Num_H_Atoms_ProtBoundConf>  (548) 
nan

>  <Num_Resolved_Atoms>  (548) 
nan

>  <Num_Not_Resolved_Atoms>  (548) 
nan

$$$$
CHEMBL2375545
     RDKit          3D

  0  0  0  0  0  0  0  0  0  0999 V3000
M  V30 BEGIN CTAB
M  V30 COUNTS 36 38 0 0 0
M  V30 BEGIN ATOM
M  V30 1 C 0.477256 -3.690562 3.600954 0
M  V30 2 N -0.487694 -2.896020 2.860446 0
M  V30 3 C 0.014514 -1.980923 1.892635 0
M  V30 4 C 0.300524 -0.689657 2.324065 0
M  V30 5 C 0.788960 0.179772 1.355978 0
M  V30 6 C 1.012121 -0.119832 0.024274 0
M  V30 7 C 1.533033 0.937988 -0.836371 0
M  V30 8 C 2.591533 1.678845 -0.313563 0
M  V30 9 C 3.101314 2.677343 -1.100886 0
M  V30 10 N 2.636504 2.969520 -2.330312 0
M  V30 11 C 1.600990 2.254945 -2.858196 0
M  V30 12 N 0.925479 2.295101 -4.021156 0
M  V30 13 C -0.032961 1.344579 -4.040810 0
M  V30 14 C 0.062481 0.683986 -2.816508 0
M  V30 15 C 1.076041 1.246188 -2.078930 0
M  V30 16 C 0.712045 -1.414538 -0.351555 0
M  V30 17 C 0.223705 -2.323860 0.565201 0
M  V30 18 S -2.189406 -2.913687 2.998866 0
M  V30 19 C -2.835746 -1.336050 3.509353 0
M  V30 20 O -2.808618 -3.193348 1.638420 0
M  V30 21 O -2.610639 -4.010431 3.904024 0
M  V30 22 H -0.035085 -4.458163 4.229720 0
M  V30 23 H 1.042406 -2.968530 4.251881 0
M  V30 24 H 1.172935 -4.203421 2.938365 0
M  V30 25 H 0.163441 -0.350516 3.339598 0
M  V30 26 H 1.009711 1.190352 1.706561 0
M  V30 27 H 3.047793 1.541044 0.651887 0
M  V30 28 H 3.922624 3.324947 -0.813042 0
M  V30 29 H 1.144364 2.986338 -4.783855 0
M  V30 30 H -0.742199 1.120142 -4.830392 0
M  V30 31 H -0.574841 -0.132536 -2.529852 0
M  V30 32 H 0.885315 -1.656122 -1.394406 0
M  V30 33 H -0.002096 -3.326318 0.247057 0
M  V30 34 H -2.892198 -0.626878 2.658231 0
M  V30 35 H -3.844023 -1.414132 3.923897 0
M  V30 36 H -2.175923 -0.852441 4.273406 0
M  V30 END ATOM
M  V30 BEGIN BOND
M  V30 1 1 1 2
M  V30 2 1 2 3
M  V30 3 2 3 4
M  V30 4 1 4 5
M  V30 5 2 5 6
M  V30 6 1 6 7
M  V30 7 2 7 8
M  V30 8 1 8 9
M  V30 9 2 9 10
M  V30 10 1 10 11
M  V30 11 1 11 12
M  V30 12 1 12 13
M  V30 13 2 13 14
M  V30 14 1 14 15
M  V30 15 1 6 16
M  V30 16 2 16 17
M  V30 17 1 2 18
M  V30 18 1 18 19
M  V30 19 2 18 20
M  V30 20 2 18 21
M  V30 21 1 17 3
M  V30 22 1 15 7
M  V30 23 2 15 11
M  V30 24 1 1 22
M  V30 25 1 1 23
M  V30 26 1 1 24
M  V30 27 1 4 25
M  V30 28 1 5 26
M  V30 29 1 8 27
M  V30 30 1 9 28
M  V30 31 1 12 29
M  V30 32 1 13 30
M  V30 33 1 14 31
M  V30 34 1 16 32
M  V30 35 1 17 33
M  V30 36 1 19 34
M  V30 37 1 19 35
M  V30 38 1 19 36
M  V30 END BOND
M  V30 END CTAB
M  END
>  <Dataset>  (549) 
ChEMBL_Kinases

>  <Ligand_Instance>  (549) 
nan

>  <PDB_ID>  (549) 
nan

>  <Standardized_SMILES>  (549) 
CN(c1ccc(-c2ccnc3[nH]ccc23)cc1)S(C)(=O)=O

>  <Name>  (549) 
nan

>  <Pocket>  (549) 
nan

>  <ATP_Site>  (549) 
nan

>  <Peripheral>  (549) 
nan

>  <Num_H_Atoms_ProtBoundConf>  (549) 
nan

>  <Num_Resolved_Atoms>  (549) 
nan

>  <Num_Not_Resolved_Atoms>  (549) 
nan

$$$$
CHEMBL2375544
     RDKit          3D

  0  0  0  0  0  0  0  0  0  0999 V3000
M  V30 BEGIN CTAB
M  V30 COUNTS 49 52 0 0 0
M  V30 BEGIN ATOM
M  V30 1 O 2.461327 -5.498528 0.780026 0
M  V30 2 S 1.420315 -5.028458 -0.226742 0
M  V30 3 O 1.882767 -5.542608 -1.566135 0
M  V30 4 C 1.381345 -3.296279 -0.186161 0
M  V30 5 C 1.614108 -2.481774 0.901083 0
M  V30 6 C 1.552314 -1.118611 0.756669 0
M  V30 7 C 1.267706 -0.481858 -0.424821 0
M  V30 8 C 1.225381 0.961735 -0.496574 0
M  V30 9 C 0.963056 1.674994 -1.640669 0
M  V30 10 C 0.930085 3.056293 -1.722856 0
M  V30 11 N 1.179671 3.735500 -0.568291 0
M  V30 12 C 1.439569 3.045226 0.567499 0
M  V30 13 N 1.672402 3.942401 1.644829 0
M  V30 14 C 0.507360 4.407674 2.352197 0
M  V30 15 C 0.624657 5.285953 3.407320 0
M  V30 16 C -0.425521 5.794787 4.142935 0
M  V30 17 F -0.294027 6.653738 5.169794 0
M  V30 18 C -1.689245 5.364022 3.759827 0
M  V30 19 C -1.862918 4.491613 2.718366 0
M  V30 20 F -3.049777 4.015991 2.271411 0
M  V30 21 C -0.780268 4.010141 2.012540 0
M  V30 22 N 1.462977 1.708906 0.607842 0
M  V30 23 C 1.032784 -1.275519 -1.519075 0
M  V30 24 C 1.088492 -2.665620 -1.402316 0
M  V30 25 N -0.069616 -5.768006 0.191954 0
M  V30 26 C -0.427564 -5.422535 1.535231 0
M  V30 27 C -1.457978 -4.335238 1.516600 0
M  V30 28 N -2.665719 -4.915710 0.972842 0
M  V30 29 C -2.477790 -5.459313 -0.345808 0
M  V30 30 C -1.078842 -5.582658 -0.799444 0
M  V30 31 H 1.836877 -2.999650 1.825092 0
M  V30 32 H 1.753892 -0.577798 1.686241 0
M  V30 33 H 0.763828 1.163232 -2.563056 0
M  V30 34 H 0.717925 3.575509 -2.653658 0
M  V30 35 H 2.588721 4.279083 1.953840 0
M  V30 36 H 1.609102 5.650497 3.741369 0
M  V30 37 H -2.601527 5.679284 4.243425 0
M  V30 38 H -0.848016 3.322397 1.184304 0
M  V30 39 H 0.803139 -0.859761 -2.476523 0
M  V30 40 H 0.894469 -3.242159 -2.300361 0
M  V30 41 H -0.745686 -6.309012 2.125008 0
M  V30 42 H 0.475733 -5.033545 2.047725 0
M  V30 43 H -1.685617 -3.962824 2.525743 0
M  V30 44 H -1.105675 -3.537027 0.860266 0
M  V30 45 H -3.411571 -4.216487 1.039442 0
M  V30 46 H -3.063727 -6.407962 -0.429442 0
M  V30 47 H -3.008367 -4.740906 -1.039565 0
M  V30 48 H -0.789719 -4.702875 -1.428291 0
M  V30 49 H -1.017931 -6.463709 -1.506029 0
M  V30 END ATOM
M  V30 BEGIN BOND
M  V30 1 2 1 2
M  V30 2 2 2 3
M  V30 3 1 2 4
M  V30 4 2 4 5
M  V30 5 1 5 6
M  V30 6 2 6 7
M  V30 7 1 7 8
M  V30 8 2 8 9
M  V30 9 1 9 10
M  V30 10 2 10 11
M  V30 11 1 11 12
M  V30 12 1 12 13
M  V30 13 1 13 14
M  V30 14 2 14 15
M  V30 15 1 15 16
M  V30 16 1 16 17
M  V30 17 2 16 18
M  V30 18 1 18 19
M  V30 19 1 19 20
M  V30 20 2 19 21
M  V30 21 2 12 22
M  V30 22 1 7 23
M  V30 23 2 23 24
M  V30 24 1 2 25
M  V30 25 1 25 26
M  V30 26 1 26 27
M  V30 27 1 27 28
M  V30 28 1 28 29
M  V30 29 1 29 30
M  V30 30 1 24 4
M  V30 31 1 30 25
M  V30 32 1 22 8
M  V30 33 1 21 14
M  V30 34 1 5 31
M  V30 35 1 6 32
M  V30 36 1 9 33
M  V30 37 1 10 34
M  V30 38 1 13 35
M  V30 39 1 15 36
M  V30 40 1 18 37
M  V30 41 1 21 38
M  V30 42 1 23 39
M  V30 43 1 24 40
M  V30 44 1 26 41
M  V30 45 1 26 42
M  V30 46 1 27 43
M  V30 47 1 27 44
M  V30 48 1 28 45
M  V30 49 1 29 46
M  V30 50 1 29 47
M  V30 51 1 30 48
M  V30 52 1 30 49
M  V30 END BOND
M  V30 END CTAB
M  END
>  <Dataset>  (550) 
ChEMBL_Kinases

>  <Ligand_Instance>  (550) 
nan

>  <PDB_ID>  (550) 
nan

>  <Standardized_SMILES>  (550) 
O=S(=O)(c1ccc(-c2ccnc(Nc3cc(F)cc(F)c3)n2)cc1)N1CCNCC1

>  <Name>  (550) 
nan

>  <Pocket>  (550) 
nan

>  <ATP_Site>  (550) 
nan

>  <Peripheral>  (550) 
nan

>  <Num_H_Atoms_ProtBoundConf>  (550) 
nan

>  <Num_Resolved_Atoms>  (550) 
nan

>  <Num_Not_Resolved_Atoms>  (550) 
nan

$$$$
CHEMBL2375543
     RDKit          3D

  0  0  0  0  0  0  0  0  0  0999 V3000
M  V30 BEGIN CTAB
M  V30 COUNTS 41 44 0 0 0
M  V30 BEGIN ATOM
M  V30 1 C 1.596884 -8.321154 1.853227 0
M  V30 2 N 1.285895 -6.918673 1.686392 0
M  V30 3 C 2.207168 -5.933786 1.248270 0
M  V30 4 O 3.353997 -6.374052 1.005194 0
M  V30 5 C 1.858258 -4.526118 1.091133 0
M  V30 6 C 0.602865 -4.014769 1.351221 0
M  V30 7 C 0.290371 -2.679802 1.197048 0
M  V30 8 C 1.328995 -1.908605 0.765390 0
M  V30 9 C 0.968311 -0.437634 0.599978 0
M  V30 10 N 0.052956 0.210746 0.739413 0
M  V30 11 C -0.128923 1.502182 0.556292 0
M  V30 12 C 0.975407 2.203815 0.118978 0
M  V30 13 N 1.054923 3.525001 -0.142951 0
M  V30 14 C -0.034332 4.318819 0.018916 0
M  V30 15 N 0.166035 5.685151 -0.285079 0
M  V30 16 C 1.420324 6.252115 -0.740111 0
M  V30 17 C -1.156424 3.654125 0.454515 0
M  V30 18 N -2.363266 4.249629 0.685382 0
M  V30 19 C -3.206887 3.288831 1.096508 0
M  V30 20 N -2.516732 2.134069 1.112139 0
M  V30 21 C -3.043080 0.829024 1.496629 0
M  V30 22 C -1.231143 2.315223 0.718313 0
M  V30 23 S 2.253336 0.831305 0.009058 0
M  V30 24 C 2.614362 -2.300305 0.475193 0
M  V30 25 C 2.846183 -3.665300 0.657479 0
M  V30 26 H 0.807000 -8.916893 1.331591 0
M  V30 27 H 2.592519 -8.538714 1.465107 0
M  V30 28 H 1.599877 -8.565965 2.947507 0
M  V30 29 H 0.304145 -6.650967 1.914327 0
M  V30 30 H -0.179557 -4.682844 1.692144 0
M  V30 31 H -0.677520 -2.260619 1.393070 0
M  V30 32 H -0.715649 6.217035 -0.133896 0
M  V30 33 H 1.940843 5.536238 -1.413474 0
M  V30 34 H 2.088709 6.566535 0.096637 0
M  V30 35 H 1.228431 7.155106 -1.355513 0
M  V30 36 H -4.261308 3.392110 1.373853 0
M  V30 37 H -2.331396 0.288350 2.161271 0
M  V30 38 H -3.980398 0.924761 2.084831 0
M  V30 39 H -3.261937 0.175264 0.642483 0
M  V30 40 H 3.368048 -1.602269 0.136882 0
M  V30 41 H 3.835546 -4.053018 0.449734 0
M  V30 END ATOM
M  V30 BEGIN BOND
M  V30 1 1 1 2
M  V30 2 1 2 3
M  V30 3 2 3 4
M  V30 4 1 3 5
M  V30 5 2 5 6
M  V30 6 1 6 7
M  V30 7 2 7 8
M  V30 8 1 8 9
M  V30 9 2 9 10
M  V30 10 1 10 11
M  V30 11 2 11 12
M  V30 12 1 12 13
M  V30 13 2 13 14
M  V30 14 1 14 15
M  V30 15 1 15 16
M  V30 16 1 14 17
M  V30 17 1 17 18
M  V30 18 2 18 19
M  V30 19 1 19 20
M  V30 20 1 20 21
M  V30 21 1 20 22
M  V30 22 1 12 23
M  V30 23 1 8 24
M  V30 24 2 24 25
M  V30 25 1 25 5
M  V30 26 1 23 9
M  V30 27 1 22 11
M  V30 28 2 22 17
M  V30 29 1 1 26
M  V30 30 1 1 27
M  V30 31 1 1 28
M  V30 32 1 2 29
M  V30 33 1 6 30
M  V30 34 1 7 31
M  V30 35 1 15 32
M  V30 36 1 16 33
M  V30 37 1 16 34
M  V30 38 1 16 35
M  V30 39 1 19 36
M  V30 40 1 21 37
M  V30 41 1 21 38
M  V30 42 1 21 39
M  V30 43 1 24 40
M  V30 44 1 25 41
M  V30 END BOND
M  V30 END CTAB
M  END
>  <Dataset>  (551) 
ChEMBL_Kinases

>  <Ligand_Instance>  (551) 
nan

>  <PDB_ID>  (551) 
nan

>  <Standardized_SMILES>  (551) 
CNC(=O)c1ccc(-c2nc3c(nc(NC)c4ncn(C)c43)s2)cc1

>  <Name>  (551) 
nan

>  <Pocket>  (551) 
nan

>  <ATP_Site>  (551) 
nan

>  <Peripheral>  (551) 
nan

>  <Num_H_Atoms_ProtBoundConf>  (551) 
nan

>  <Num_Resolved_Atoms>  (551) 
nan

>  <Num_Not_Resolved_Atoms>  (551) 
nan

$$$$
CHEMBL2375542
     RDKit          3D

  0  0  0  0  0  0  0  0  0  0999 V3000
M  V30 BEGIN CTAB
M  V30 COUNTS 47 51 0 0 0
M  V30 BEGIN ATOM
M  V30 1 C -0.778000 -8.180940 1.532092 0
M  V30 2 N -1.902751 -7.273482 1.616730 0
M  V30 3 C -1.817084 -5.876764 1.460739 0
M  V30 4 N -0.594289 -5.369613 1.216193 0
M  V30 5 C -0.401881 -4.037778 1.050228 0
M  V30 6 S 1.063409 -3.000428 0.714116 0
M  V30 7 C 0.082466 -1.418278 0.707607 0
M  V30 8 C 0.726961 -0.107528 0.472860 0
M  V30 9 C -0.050093 1.030813 0.478250 0
M  V30 10 C 0.552738 2.250878 0.258892 0
M  V30 11 C 1.904517 2.391878 0.032402 0
M  V30 12 N 2.553912 3.634161 -0.198095 0
M  V30 13 C 3.950736 3.840884 -0.404966 0
M  V30 14 C 4.455848 4.898569 0.549921 0
M  V30 15 C 3.696144 5.793300 1.171305 0
M  V30 16 C 2.225138 5.785114 0.933289 0
M  V30 17 C 1.897424 4.923194 -0.264279 0
M  V30 18 C 2.658664 1.238177 0.032212 0
M  V30 19 C 2.084265 -0.008637 0.249918 0
M  V30 20 N -1.044300 -1.817278 0.925563 0
M  V30 21 C -1.378945 -3.074456 1.106159 0
M  V30 22 C -2.636363 -3.590039 1.356846 0
M  V30 23 C -2.812637 -4.925651 1.520722 0
M  V30 24 N -4.133125 -5.178935 1.754999 0
M  V30 25 C -4.800072 -3.997555 1.739961 0
M  V30 26 N -3.883065 -3.058708 1.499546 0
M  V30 27 C -4.183818 -1.631346 1.401995 0
M  V30 28 H 0.072053 -7.775845 0.942421 0
M  V30 29 H -1.096121 -9.106731 1.006387 0
M  V30 30 H -0.393156 -8.502436 2.517739 0
M  V30 31 H -2.840741 -7.689451 1.807037 0
M  V30 32 H -1.102183 0.901707 0.656526 0
M  V30 33 H -0.085834 3.116079 0.271043 0
M  V30 34 H 4.074471 4.318905 -1.422141 0
M  V30 35 H 4.587920 2.960158 -0.396859 0
M  V30 36 H 5.541894 4.895512 0.717975 0
M  V30 37 H 4.159516 6.503375 1.832256 0
M  V30 38 H 1.869074 6.823902 0.743631 0
M  V30 39 H 1.682543 5.400027 1.804345 0
M  V30 40 H 2.189951 5.501354 -1.180752 0
M  V30 41 H 0.794777 4.830493 -0.319904 0
M  V30 42 H 3.706409 1.169635 -0.125049 0
M  V30 43 H 2.631656 -0.936762 0.259086 0
M  V30 44 H -5.851636 -3.897318 1.895607 0
M  V30 45 H -4.262049 -1.177069 2.422033 0
M  V30 46 H -5.137763 -1.426651 0.887233 0
M  V30 47 H -3.386495 -1.092709 0.887775 0
M  V30 END ATOM
M  V30 BEGIN BOND
M  V30 1 1 1 2
M  V30 2 1 2 3
M  V30 3 2 3 4
M  V30 4 1 4 5
M  V30 5 1 5 6
M  V30 6 1 6 7
M  V30 7 1 7 8
M  V30 8 2 8 9
M  V30 9 1 9 10
M  V30 10 2 10 11
M  V30 11 1 11 12
M  V30 12 1 12 13
M  V30 13 1 13 14
M  V30 14 2 14 15
M  V30 15 1 15 16
M  V30 16 1 16 17
M  V30 17 1 11 18
M  V30 18 2 18 19
M  V30 19 2 7 20
M  V30 20 1 20 21
M  V30 21 1 21 22
M  V30 22 2 22 23
M  V30 23 1 23 24
M  V30 24 2 24 25
M  V30 25 1 25 26
M  V30 26 1 26 27
M  V30 27 1 23 3
M  V30 28 2 21 5
M  V30 29 1 26 22
M  V30 30 1 19 8
M  V30 31 1 17 12
M  V30 32 1 1 28
M  V30 33 1 1 29
M  V30 34 1 1 30
M  V30 35 1 2 31
M  V30 36 1 9 32
M  V30 37 1 10 33
M  V30 38 1 13 34
M  V30 39 1 13 35
M  V30 40 1 14 36
M  V30 41 1 15 37
M  V30 42 1 16 38
M  V30 43 1 16 39
M  V30 44 1 17 40
M  V30 45 1 17 41
M  V30 46 1 18 42
M  V30 47 1 19 43
M  V30 48 1 25 44
M  V30 49 1 27 45
M  V30 50 1 27 46
M  V30 51 1 27 47
M  V30 END BOND
M  V30 END CTAB
M  END
>  <Dataset>  (552) 
ChEMBL_Kinases

>  <Ligand_Instance>  (552) 
nan

>  <PDB_ID>  (552) 
nan

>  <Standardized_SMILES>  (552) 
CNc1nc2sc(-c3ccc(N4CC=CCC4)cc3)nc2c2c1ncn2C

>  <Name>  (552) 
nan

>  <Pocket>  (552) 
nan

>  <ATP_Site>  (552) 
nan

>  <Peripheral>  (552) 
nan

>  <Num_H_Atoms_ProtBoundConf>  (552) 
nan

>  <Num_Resolved_Atoms>  (552) 
nan

>  <Num_Not_Resolved_Atoms>  (552) 
nan

$$$$
CHEMBL2375541
     RDKit          3D

  0  0  0  0  0  0  0  0  0  0999 V3000
M  V30 BEGIN CTAB
M  V30 COUNTS 52 56 0 0 0
M  V30 BEGIN ATOM
M  V30 1 C -2.392747 -3.289923 4.213113 0
M  V30 2 C -1.111167 -2.574309 3.979534 0
M  V30 3 C -0.274780 -2.101964 4.989423 0
M  V30 4 N 0.781520 -1.513471 4.356923 0
M  V30 5 C 0.611422 -1.614121 3.036802 0
M  V30 6 C 1.318210 -1.220936 1.895160 0
M  V30 7 N 2.555204 -0.534521 2.051135 0
M  V30 8 C 3.418513 -0.049475 0.994427 0
M  V30 9 C 2.670569 0.988032 0.202601 0
M  V30 10 N 2.256057 2.112856 1.003599 0
M  V30 11 C 3.278532 2.944818 1.493888 0
M  V30 12 C 3.243153 4.385167 1.148624 0
M  V30 13 N 2.329583 4.748635 0.091758 0
M  V30 14 C 1.035390 4.188120 0.419693 0
M  V30 15 C 1.093779 2.700559 0.451488 0
M  V30 16 N 0.853003 -1.484790 0.686594 0
M  V30 17 C -0.299787 -2.131684 0.449612 0
M  V30 18 C -0.782459 -2.407089 -0.796933 0
M  V30 19 C -2.008996 -3.096305 -0.839255 0
M  V30 20 C -2.888167 -3.594753 -1.824353 0
M  V30 21 C -4.048007 -4.241330 -1.517922 0
M  V30 22 C -4.832010 -4.689473 -2.572621 0
M  V30 23 C -4.455712 -4.489989 -3.894160 0
M  V30 24 C -3.270306 -3.829044 -4.223796 0
M  V30 25 C -2.541750 -3.412076 -3.136852 0
M  V30 26 S -2.444970 -3.334581 0.985542 0
M  V30 27 C -0.986054 -2.513051 1.571721 0
M  V30 28 N -0.541460 -2.260416 2.812395 0
M  V30 29 H -2.715785 -3.150158 5.266002 0
M  V30 30 H -3.158362 -2.823585 3.533915 0
M  V30 31 H -2.324401 -4.354767 3.925952 0
M  V30 32 H -0.426651 -2.182454 6.058717 0
M  V30 33 H 2.876856 -0.360704 3.036840 0
M  V30 34 H 4.360129 0.324247 1.402159 0
M  V30 35 H 3.579659 -0.947586 0.327528 0
M  V30 36 H 3.356498 1.364581 -0.579971 0
M  V30 37 H 1.752933 0.514048 -0.197129 0
M  V30 38 H 3.336563 2.830776 2.615192 0
M  V30 39 H 4.269264 2.531794 1.143225 0
M  V30 40 H 4.245371 4.786802 0.873910 0
M  V30 41 H 2.952261 4.982936 2.059678 0
M  V30 42 H 2.633528 4.393808 -0.839734 0
M  V30 43 H 0.332236 4.515968 -0.400748 0
M  V30 44 H 0.673678 4.563223 1.378126 0
M  V30 45 H 0.196863 2.256155 0.954701 0
M  V30 46 H 0.980113 2.361089 -0.620319 0
M  V30 47 H -0.378702 -2.184299 -1.768027 0
M  V30 48 H -4.369357 -4.412149 -0.514430 0
M  V30 49 H -5.759159 -5.206282 -2.349048 0
M  V30 50 H -5.065448 -4.838846 -4.734443 0
M  V30 51 H -2.944112 -3.656136 -5.231867 0
M  V30 52 H -1.606198 -2.889890 -3.384682 0
M  V30 END ATOM
M  V30 BEGIN BOND
M  V30 1 1 1 2
M  V30 2 2 2 3
M  V30 3 1 3 4
M  V30 4 2 4 5
M  V30 5 1 5 6
M  V30 6 1 6 7
M  V30 7 1 7 8
M  V30 8 1 8 9
M  V30 9 1 9 10
M  V30 10 1 10 11
M  V30 11 1 11 12
M  V30 12 1 12 13
M  V30 13 1 13 14
M  V30 14 1 14 15
M  V30 15 2 6 16
M  V30 16 1 16 17
M  V30 17 1 17 18
M  V30 18 2 18 19
M  V30 19 1 19 20
M  V30 20 2 20 21
M  V30 21 1 21 22
M  V30 22 2 22 23
M  V30 23 1 23 24
M  V30 24 2 24 25
M  V30 25 1 19 26
M  V30 26 1 26 27
M  V30 27 1 27 28
M  V30 28 1 28 2
M  V30 29 1 28 5
M  V30 30 1 15 10
M  V30 31 2 27 17
M  V30 32 1 25 20
M  V30 33 1 1 29
M  V30 34 1 1 30
M  V30 35 1 1 31
M  V30 36 1 3 32
M  V30 37 1 7 33
M  V30 38 1 8 34
M  V30 39 1 8 35
M  V30 40 1 9 36
M  V30 41 1 9 37
M  V30 42 1 11 38
M  V30 43 1 11 39
M  V30 44 1 12 40
M  V30 45 1 12 41
M  V30 46 1 13 42
M  V30 47 1 14 43
M  V30 48 1 14 44
M  V30 49 1 15 45
M  V30 50 1 15 46
M  V30 51 1 18 47
M  V30 52 1 21 48
M  V30 53 1 22 49
M  V30 54 1 23 50
M  V30 55 1 24 51
M  V30 56 1 25 52
M  V30 END BOND
M  V30 END CTAB
M  END
>  <Dataset>  (553) 
ChEMBL_Kinases

>  <Ligand_Instance>  (553) 
nan

>  <PDB_ID>  (553) 
nan

>  <Standardized_SMILES>  (553) 
Cc1cnc2c(NCCN3CCNCC3)nc3cc(-c4ccccc4)sc3n12

>  <Name>  (553) 
nan

>  <Pocket>  (553) 
nan

>  <ATP_Site>  (553) 
nan

>  <Peripheral>  (553) 
nan

>  <Num_H_Atoms_ProtBoundConf>  (553) 
nan

>  <Num_Resolved_Atoms>  (553) 
nan

>  <Num_Not_Resolved_Atoms>  (553) 
nan

$$$$
CHEMBL2375430
     RDKit          3D

  0  0  0  0  0  0  0  0  0  0999 V3000
M  V30 BEGIN CTAB
M  V30 COUNTS 51 53 0 0 0
M  V30 BEGIN ATOM
M  V30 1 N 3.799582 -5.467205 -0.350501 0
M  V30 2 C 4.916827 -4.576867 -0.130614 0
M  V30 3 C 4.599553 -3.171583 -0.615147 0
M  V30 4 N 4.306285 -3.203030 -2.021163 0
M  V30 5 S 3.937755 -1.639244 -2.632318 0
M  V30 6 O 5.131366 -0.753365 -2.316934 0
M  V30 7 O 3.788729 -1.667716 -4.108578 0
M  V30 8 C 2.505314 -1.036048 -1.806814 0
M  V30 9 C 2.602227 -0.295991 -0.643848 0
M  V30 10 C 1.430238 0.152653 -0.037647 0
M  V30 11 C 0.188894 -0.119567 -0.562172 0
M  V30 12 C -0.994615 0.385390 0.128113 0
M  V30 13 C -1.093173 0.283730 1.498290 0
M  V30 14 C -2.190829 0.747930 2.195417 0
M  V30 15 C -2.196427 0.594013 3.653990 0
M  V30 16 C -1.002183 0.645261 4.344714 0
M  V30 17 C -1.004708 0.500464 5.717662 0
M  V30 18 C -2.193151 0.304230 6.409793 0
M  V30 19 C -3.399667 0.251819 5.718139 0
M  V30 20 C -3.375852 0.399053 4.343228 0
M  V30 21 C -3.256400 1.345169 1.533893 0
M  V30 22 C -3.130176 1.433073 0.165328 0
M  V30 23 C -4.231247 2.053259 -0.551877 0
M  V30 24 N -5.405366 2.563529 0.063156 0
M  V30 25 O -4.403973 2.272029 -1.771715 0
M  V30 26 C -2.042510 0.975339 -0.545732 0
M  V30 27 N -2.009331 1.113763 -1.959621 0
M  V30 28 C 0.153926 -0.861614 -1.722935 0
M  V30 29 C 1.275731 -1.334750 -2.371716 0
M  V30 30 H 3.013375 -5.297263 0.309884 0
M  V30 31 H 4.074899 -6.460079 -0.327712 0
M  V30 32 H 5.806552 -4.966849 -0.653064 0
M  V30 33 H 5.165243 -4.528076 0.943158 0
M  V30 34 H 3.787281 -2.754187 0.010679 0
M  V30 35 H 5.509560 -2.552019 -0.470804 0
M  V30 36 H 3.535055 -3.869079 -2.258687 0
M  V30 37 H 3.593088 -0.099802 -0.257629 0
M  V30 38 H 1.572541 0.735656 0.884181 0
M  V30 39 H -0.258735 -0.185944 2.036632 0
M  V30 40 H -0.050709 0.798019 3.833005 0
M  V30 41 H -0.098213 0.531026 6.321460 0
M  V30 42 H -2.222598 0.186807 7.495283 0
M  V30 43 H -4.324613 0.095719 6.288231 0
M  V30 44 H -4.329782 0.352489 3.842503 0
M  V30 45 H -4.100877 1.698163 2.106551 0
M  V30 46 H -5.875549 1.863490 0.689340 0
M  V30 47 H -5.853550 1.829223 0.688168 0
M  V30 48 H -2.368058 0.612838 -2.803997 0
M  V30 49 H -1.442962 1.997109 -2.132316 0
M  V30 50 H -0.807505 -1.092064 -2.159535 0
M  V30 51 H 1.216441 -1.915609 -3.283062 0
M  V30 END ATOM
M  V30 BEGIN BOND
M  V30 1 1 1 2
M  V30 2 1 2 3
M  V30 3 1 3 4
M  V30 4 1 4 5
M  V30 5 2 5 6
M  V30 6 2 5 7
M  V30 7 1 5 8
M  V30 8 2 8 9
M  V30 9 1 9 10
M  V30 10 2 10 11
M  V30 11 1 11 12
M  V30 12 2 12 13
M  V30 13 1 13 14
M  V30 14 1 14 15
M  V30 15 2 15 16
M  V30 16 1 16 17
M  V30 17 2 17 18
M  V30 18 1 18 19
M  V30 19 2 19 20
M  V30 20 2 14 21
M  V30 21 1 21 22
M  V30 22 1 22 23
M  V30 23 1 23 24
M  V30 24 2 23 25
M  V30 25 2 22 26
M  V30 26 1 26 27
M  V30 27 1 11 28
M  V30 28 2 28 29
M  V30 29 1 29 8
M  V30 30 1 26 12
M  V30 31 1 20 15
M  V30 32 1 1 30
M  V30 33 1 1 31
M  V30 34 1 2 32
M  V30 35 1 2 33
M  V30 36 1 3 34
M  V30 37 1 3 35
M  V30 38 1 4 36
M  V30 39 1 9 37
M  V30 40 1 10 38
M  V30 41 1 13 39
M  V30 42 1 16 40
M  V30 43 1 17 41
M  V30 44 1 18 42
M  V30 45 1 19 43
M  V30 46 1 20 44
M  V30 47 1 21 45
M  V30 48 1 24 46
M  V30 49 1 24 47
M  V30 50 1 27 48
M  V30 51 1 27 49
M  V30 52 1 28 50
M  V30 53 1 29 51
M  V30 END BOND
M  V30 END CTAB
M  END
>  <Dataset>  (554) 
ChEMBL_Kinases

>  <Ligand_Instance>  (554) 
nan

>  <PDB_ID>  (554) 
nan

>  <Standardized_SMILES>  (554) 
NCCNS(=O)(=O)c1ccc(-c2cc(-c3ccccc3)cc(C(N)=O)c2N)cc1

>  <Name>  (554) 
nan

>  <Pocket>  (554) 
nan

>  <ATP_Site>  (554) 
nan

>  <Peripheral>  (554) 
nan

>  <Num_H_Atoms_ProtBoundConf>  (554) 
nan

>  <Num_Resolved_Atoms>  (554) 
nan

>  <Num_Not_Resolved_Atoms>  (554) 
nan

$$$$
CHEMBL2375429
     RDKit          3D

  0  0  0  0  0  0  0  0  0  0999 V3000
M  V30 BEGIN CTAB
M  V30 COUNTS 29 30 0 0 0
M  V30 BEGIN ATOM
M  V30 1 N -0.345014 -0.292984 5.827901 0
M  V30 2 C 0.201373 -0.652113 4.564127 0
M  V30 3 O 1.428882 -0.930119 4.631346 0
M  V30 4 N -0.646740 -0.659955 3.418883 0
M  V30 5 C -0.336553 -0.978657 2.070347 0
M  V30 6 C 0.087337 -0.050988 1.155270 0
M  V30 7 C 0.365051 -0.468239 -0.141826 0
M  V30 8 C 0.815864 0.247960 -1.298958 0
M  V30 9 C 1.000135 -0.465569 -2.456415 0
M  V30 10 C 1.440236 0.262153 -3.566754 0
M  V30 11 C 1.667905 1.636213 -3.462594 0
M  V30 12 C 1.463669 2.313571 -2.256906 0
M  V30 13 Cl 1.763020 4.037278 -2.176454 0
M  V30 14 C 1.025698 1.591712 -1.150370 0
M  V30 15 S 0.037948 -2.241086 -0.155046 0
M  V30 16 C -0.463779 -2.317532 1.623293 0
M  V30 17 C -0.863986 -3.494261 2.282433 0
M  V30 18 N -0.899373 -4.713865 1.581468 0
M  V30 19 O -1.162323 -3.337082 3.477798 0
M  V30 20 H -0.489264 -1.114812 6.467073 0
M  V30 21 H -0.610407 0.658316 6.182809 0
M  V30 22 H -1.658393 -0.396937 3.549770 0
M  V30 23 H 0.225381 0.994913 1.363450 0
M  V30 24 H 0.834529 -1.513723 -2.565243 0
M  V30 25 H 1.596598 -0.271533 -4.500108 0
M  V30 26 H 2.009520 2.133915 -4.370142 0
M  V30 27 H 0.867824 2.117805 -0.216666 0
M  V30 28 H 0.118152 -4.959172 1.552815 0
M  V30 29 H -1.750393 -5.187609 1.217393 0
M  V30 END ATOM
M  V30 BEGIN BOND
M  V30 1 1 1 2
M  V30 2 2 2 3
M  V30 3 1 2 4
M  V30 4 1 4 5
M  V30 5 1 5 6
M  V30 6 2 6 7
M  V30 7 1 7 8
M  V30 8 2 8 9
M  V30 9 1 9 10
M  V30 10 2 10 11
M  V30 11 1 11 12
M  V30 12 1 12 13
M  V30 13 2 12 14
M  V30 14 1 7 15
M  V30 15 1 15 16
M  V30 16 1 16 17
M  V30 17 1 17 18
M  V30 18 2 17 19
M  V30 19 2 16 5
M  V30 20 1 14 8
M  V30 21 1 1 20
M  V30 22 1 1 21
M  V30 23 1 4 22
M  V30 24 1 6 23
M  V30 25 1 9 24
M  V30 26 1 10 25
M  V30 27 1 11 26
M  V30 28 1 14 27
M  V30 29 1 18 28
M  V30 30 1 18 29
M  V30 END BOND
M  V30 END CTAB
M  END
>  <Dataset>  (555) 
ChEMBL_Kinases

>  <Ligand_Instance>  (555) 
nan

>  <PDB_ID>  (555) 
nan

>  <Standardized_SMILES>  (555) 
NC(=O)Nc1cc(-c2cccc(Cl)c2)sc1C(N)=O

>  <Name>  (555) 
nan

>  <Pocket>  (555) 
nan

>  <ATP_Site>  (555) 
nan

>  <Peripheral>  (555) 
nan

>  <Num_H_Atoms_ProtBoundConf>  (555) 
nan

>  <Num_Resolved_Atoms>  (555) 
nan

>  <Num_Not_Resolved_Atoms>  (555) 
nan

$$$$
CHEMBL2375428
     RDKit          3D

  0  0  0  0  0  0  0  0  0  0999 V3000
M  V30 BEGIN CTAB
M  V30 COUNTS 38 40 0 0 0
M  V30 BEGIN ATOM
M  V30 1 N 3.191238 -2.319147 4.174327 0
M  V30 2 C 2.099861 -1.418253 4.066182 0
M  V30 3 O 1.318800 -1.029029 4.946819 0
M  V30 4 C 1.834191 -0.850771 2.734441 0
M  V30 5 S 2.832418 -1.259825 1.210790 0
M  V30 6 C 1.922987 -0.249015 0.158236 0
M  V30 7 C 2.214242 -0.098773 -1.316270 0
M  V30 8 C 3.281624 -0.841683 -1.775884 0
M  V30 9 C 3.548955 -0.701158 -3.139373 0
M  V30 10 C 2.758808 0.139206 -3.909230 0
M  V30 11 C 1.700101 0.863914 -3.406854 0
M  V30 12 C 1.427545 0.729847 -2.051891 0
M  V30 13 C 0.979782 0.323686 0.886185 0
M  V30 14 C 0.867546 0.064663 2.223833 0
M  V30 15 N -0.101240 0.636845 3.093088 0
M  V30 16 S -1.579850 1.283859 2.478190 0
M  V30 17 O -2.397344 1.900392 3.550564 0
M  V30 18 O -1.294911 2.391696 1.476634 0
M  V30 19 C -2.477025 -0.001519 1.701445 0
M  V30 20 C -2.480718 -0.386727 0.386840 0
M  V30 21 C -3.251844 -1.428780 -0.038540 0
M  V30 22 C -4.052290 -2.133561 0.820355 0
M  V30 23 F -4.807614 -3.162341 0.375848 0
M  V30 24 C -4.076514 -1.774100 2.160217 0
M  V30 25 C -3.289142 -0.719553 2.562254 0
M  V30 26 H 4.219701 -2.052535 4.219418 0
M  V30 27 H 2.899625 -3.337268 4.209541 0
M  V30 28 H 3.894834 -1.491424 -1.187761 0
M  V30 29 H 4.374073 -1.253829 -3.577311 0
M  V30 30 H 3.011976 0.213915 -4.977337 0
M  V30 31 H 1.089421 1.511121 -3.993077 0
M  V30 32 H 0.613707 1.271051 -1.605024 0
M  V30 33 H 0.300809 1.006784 0.395446 0
M  V30 34 H 0.039839 0.693460 4.120180 0
M  V30 35 H -1.840528 0.197983 -0.240973 0
M  V30 36 H -3.203007 -1.673208 -1.082694 0
M  V30 37 H -4.716399 -2.349529 2.805103 0
M  V30 38 H -3.378937 -0.517528 3.628460 0
M  V30 END ATOM
M  V30 BEGIN BOND
M  V30 1 1 1 2
M  V30 2 2 2 3
M  V30 3 1 2 4
M  V30 4 1 4 5
M  V30 5 1 5 6
M  V30 6 1 6 7
M  V30 7 2 7 8
M  V30 8 1 8 9
M  V30 9 2 9 10
M  V30 10 1 10 11
M  V30 11 2 11 12
M  V30 12 2 6 13
M  V30 13 1 13 14
M  V30 14 1 14 15
M  V30 15 1 15 16
M  V30 16 2 16 17
M  V30 17 2 16 18
M  V30 18 1 16 19
M  V30 19 2 19 20
M  V30 20 1 20 21
M  V30 21 2 21 22
M  V30 22 1 22 23
M  V30 23 1 22 24
M  V30 24 2 24 25
M  V30 25 2 14 4
M  V30 26 1 25 19
M  V30 27 1 12 7
M  V30 28 1 1 26
M  V30 29 1 1 27
M  V30 30 1 8 28
M  V30 31 1 9 29
M  V30 32 1 10 30
M  V30 33 1 11 31
M  V30 34 1 12 32
M  V30 35 1 13 33
M  V30 36 1 15 34
M  V30 37 1 20 35
M  V30 38 1 21 36
M  V30 39 1 24 37
M  V30 40 1 25 38
M  V30 END BOND
M  V30 END CTAB
M  END
>  <Dataset>  (556) 
ChEMBL_Kinases

>  <Ligand_Instance>  (556) 
nan

>  <PDB_ID>  (556) 
nan

>  <Standardized_SMILES>  (556) 
NC(=O)c1sc(-c2ccccc2)cc1NS(=O)(=O)c1ccc(F)cc1

>  <Name>  (556) 
nan

>  <Pocket>  (556) 
nan

>  <ATP_Site>  (556) 
nan

>  <Peripheral>  (556) 
nan

>  <Num_H_Atoms_ProtBoundConf>  (556) 
nan

>  <Num_Resolved_Atoms>  (556) 
nan

>  <Num_Not_Resolved_Atoms>  (556) 
nan

$$$$
CHEMBL2375372
     RDKit          3D

  0  0  0  0  0  0  0  0  0  0999 V3000
M  V30 BEGIN CTAB
M  V30 COUNTS 47 49 0 0 0
M  V30 BEGIN ATOM
M  V30 1 C -1.187872 0.397709 5.360322 0
M  V30 2 S 0.140211 -0.519357 6.089674 0
M  V30 3 O 0.013789 -0.562144 7.586335 0
M  V30 4 O 0.046599 -1.933225 5.620221 0
M  V30 5 N 1.687598 0.106178 5.659025 0
M  V30 6 C 2.339676 0.249260 4.414414 0
M  V30 7 C 3.654864 -0.077068 4.204177 0
M  V30 8 C 4.189291 0.110021 2.930146 0
M  V30 9 C 3.364626 0.623537 1.913974 0
M  V30 10 C 2.013218 0.958033 2.132013 0
M  V30 11 O 1.579488 1.414562 0.914725 0
M  V30 12 C 1.324437 0.706746 -0.213259 0
M  V30 13 C 2.241683 1.212769 -1.159341 0
M  V30 14 C 2.325366 0.754691 -2.474451 0
M  V30 15 F 3.159877 1.164335 -3.458245 0
M  V30 16 C 1.441649 -0.261279 -2.854697 0
M  V30 17 C 0.521274 -0.797246 -1.978125 0
M  V30 18 N -0.334789 -1.816231 -2.411468 0
M  V30 19 C -1.755934 -1.920728 -2.554903 0
M  V30 20 C -2.618328 -0.891202 -2.274728 0
M  V30 21 C -3.951699 -1.124728 -2.455254 0
M  V30 22 C -4.505370 -2.290412 -2.889387 0
M  V30 23 I -6.585621 -2.465079 -3.105424 0
M  V30 24 C -3.597254 -3.282916 -3.153885 0
M  V30 25 C -2.237722 -3.128103 -2.998140 0
M  V30 26 F -1.422614 -4.158314 -3.281729 0
M  V30 27 C 0.528132 -0.275367 -0.719209 0
M  V30 28 C -0.378840 -0.785486 0.283911 0
M  V30 29 N -0.774262 -0.494039 1.605869 0
M  V30 30 O -1.219600 -1.690377 0.459486 0
M  V30 31 C 1.558053 0.745211 3.417771 0
M  V30 32 H -1.611719 -0.082367 4.452641 0
M  V30 33 H -2.036924 0.354949 6.106035 0
M  V30 34 H -0.950815 1.460034 5.263891 0
M  V30 35 H 2.324878 0.471630 6.418839 0
M  V30 36 H 4.217361 -0.466606 5.038005 0
M  V30 37 H 5.217748 -0.176667 2.882082 0
M  V30 38 H 4.005791 0.678188 1.017617 0
M  V30 39 H 3.010550 2.000726 -1.066707 0
M  V30 40 H 1.456433 -0.666306 -3.873440 0
M  V30 41 H 0.291320 -2.612174 -2.651748 0
M  V30 42 H -2.162260 0.042381 -1.925608 0
M  V30 43 H -4.593569 -0.266680 -2.213453 0
M  V30 44 H -3.988900 -4.247226 -3.508226 0
M  V30 45 H -1.323138 0.247692 2.100100 0
M  V30 46 H -1.345257 0.289629 2.046181 0
M  V30 47 H 0.518662 1.058776 3.425568 0
M  V30 END ATOM
M  V30 BEGIN BOND
M  V30 1 1 1 2
M  V30 2 2 2 3
M  V30 3 2 2 4
M  V30 4 1 2 5
M  V30 5 1 5 6
M  V30 6 2 6 7
M  V30 7 1 7 8
M  V30 8 2 8 9
M  V30 9 1 9 10
M  V30 10 1 10 11
M  V30 11 1 11 12
M  V30 12 2 12 13
M  V30 13 1 13 14
M  V30 14 1 14 15
M  V30 15 2 14 16
M  V30 16 1 16 17
M  V30 17 1 17 18
M  V30 18 1 18 19
M  V30 19 2 19 20
M  V30 20 1 20 21
M  V30 21 2 21 22
M  V30 22 1 22 23
M  V30 23 1 22 24
M  V30 24 2 24 25
M  V30 25 1 25 26
M  V30 26 2 17 27
M  V30 27 1 27 28
M  V30 28 1 28 29
M  V30 29 2 28 30
M  V30 30 2 10 31
M  V30 31 1 31 6
M  V30 32 1 27 12
M  V30 33 1 25 19
M  V30 34 1 1 32
M  V30 35 1 1 33
M  V30 36 1 1 34
M  V30 37 1 5 35
M  V30 38 1 7 36
M  V30 39 1 8 37
M  V30 40 1 9 38
M  V30 41 1 13 39
M  V30 42 1 16 40
M  V30 43 1 18 41
M  V30 44 1 20 42
M  V30 45 1 21 43
M  V30 46 1 24 44
M  V30 47 1 29 45
M  V30 48 1 29 46
M  V30 49 1 31 47
M  V30 END BOND
M  V30 END CTAB
M  END
>  <Dataset>  (557) 
ChEMBL_Kinases

>  <Ligand_Instance>  (557) 
nan

>  <PDB_ID>  (557) 
nan

>  <Standardized_SMILES>  (557) 
CS(=O)(=O)Nc1cccc(Oc2cc(F)cc(Nc3ccc(I)cc3F)c2C(N)=O)c1

>  <Name>  (557) 
nan

>  <Pocket>  (557) 
nan

>  <ATP_Site>  (557) 
nan

>  <Peripheral>  (557) 
nan

>  <Num_H_Atoms_ProtBoundConf>  (557) 
nan

>  <Num_Resolved_Atoms>  (557) 
nan

>  <Num_Not_Resolved_Atoms>  (557) 
nan

$$$$
CHEMBL2375365
     RDKit          3D

  0  0  0  0  0  0  0  0  0  0999 V3000
M  V30 BEGIN CTAB
M  V30 COUNTS 54 57 0 0 0
M  V30 BEGIN ATOM
M  V30 1 C 4.319346 -0.840327 7.023703 0
M  V30 2 O 3.757877 -1.840593 6.196331 0
M  V30 3 C 3.168268 -1.451927 4.978673 0
M  V30 4 N 3.150972 -0.147383 4.629489 0
M  V30 5 C 2.587489 0.264723 3.455932 0
M  V30 6 C 2.044400 -0.728469 2.661887 0
M  V30 7 C 1.417518 -0.381899 1.383290 0
M  V30 8 C 2.157584 0.514499 0.631337 0
M  V30 9 C 1.634236 0.893607 -0.591825 0
M  V30 10 C 2.280113 1.784122 -1.436597 0
M  V30 11 C 3.595988 2.361607 -1.012777 0
M  V30 12 N 1.717791 2.123973 -2.634980 0
M  V30 13 C 0.516990 1.580113 -2.992376 0
M  V30 14 N -0.047224 1.959015 -4.260574 0
M  V30 15 N -0.090780 0.718788 -2.156911 0
M  V30 16 C 0.422245 0.354272 -0.969106 0
M  V30 17 N -0.314595 -0.516367 -0.258190 0
M  V30 18 C -1.563483 -1.107166 -0.586183 0 CFG=1
M  V30 19 C -2.621205 -0.569669 0.350774 0
M  V30 20 C -4.006002 -0.882200 -0.175795 0
M  V30 21 C -3.993458 -2.166802 -0.972802 0 CFG=2
M  V30 22 O -3.574450 -3.250710 -0.215883 0
M  V30 23 C -4.490126 -4.248644 -0.046490 0
M  V30 24 O -3.927357 -5.257554 0.728086 0
M  V30 25 C -3.158590 -2.006994 -2.202929 0
M  V30 26 C -1.980967 -1.083125 -2.012005 0
M  V30 27 C 0.213818 -0.883073 0.948830 0
M  V30 28 O -0.296319 -1.679092 1.775412 0
M  V30 29 C 2.049685 -2.065854 2.996147 0
M  V30 30 N 2.630079 -2.394737 4.181752 0
M  V30 31 H 4.032021 -0.963745 8.079249 0
M  V30 32 H 3.970253 0.178369 6.694002 0
M  V30 33 H 5.421190 -0.792253 6.937446 0
M  V30 34 H 2.569991 1.309579 3.169325 0
M  V30 35 H 3.100913 0.938156 0.918385 0
M  V30 36 H 3.508302 2.730240 0.032630 0
M  V30 37 H 3.843415 3.212026 -1.698272 0
M  V30 38 H 4.375365 1.559799 -1.051555 0
M  V30 39 H -1.060996 2.195391 -4.312378 0
M  V30 40 H 0.665888 1.955369 -5.039005 0
M  V30 41 H -1.461788 -2.206200 -0.334786 0
M  V30 42 H -2.508751 -1.105927 1.313925 0
M  V30 43 H -2.446251 0.498938 0.544708 0
M  V30 44 H -4.735083 -0.930622 0.644717 0
M  V30 45 H -4.273879 -0.071242 -0.880110 0
M  V30 46 H -5.037776 -2.380915 -1.280156 0
M  V30 47 H -4.869096 -4.694739 -0.983741 0
M  V30 48 H -5.362246 -3.834888 0.508209 0
M  V30 49 H -2.987787 -5.070401 0.920030 0
M  V30 50 H -2.837170 -3.028095 -2.498480 0
M  V30 51 H -3.812176 -1.649258 -3.025233 0
M  V30 52 H -2.282950 -0.106092 -2.422218 0
M  V30 53 H -1.152414 -1.467301 -2.635283 0
M  V30 54 H 1.632143 -2.851776 2.391069 0
M  V30 END ATOM
M  V30 BEGIN BOND
M  V30 1 1 1 2
M  V30 2 1 2 3
M  V30 3 2 3 4
M  V30 4 1 4 5
M  V30 5 2 5 6
M  V30 6 1 6 7
M  V30 7 2 7 8
M  V30 8 1 8 9
M  V30 9 2 9 10
M  V30 10 1 10 11
M  V30 11 1 10 12
M  V30 12 2 12 13
M  V30 13 1 13 14
M  V30 14 1 13 15
M  V30 15 2 15 16
M  V30 16 1 16 17
M  V30 17 1 17 18
M  V30 18 1 18 19
M  V30 19 1 19 20
M  V30 20 1 20 21
M  V30 21 1 21 22
M  V30 22 1 22 23
M  V30 23 1 23 24
M  V30 24 1 21 25
M  V30 25 1 25 26
M  V30 26 1 17 27
M  V30 27 2 27 28
M  V30 28 1 6 29
M  V30 29 2 29 30
M  V30 30 1 30 3
M  V30 31 1 27 7
M  V30 32 1 16 9
M  V30 33 1 26 18
M  V30 34 1 1 31
M  V30 35 1 1 32
M  V30 36 1 1 33
M  V30 37 1 5 34
M  V30 38 1 8 35
M  V30 39 1 11 36
M  V30 40 1 11 37
M  V30 41 1 11 38
M  V30 42 1 14 39
M  V30 43 1 14 40
M  V30 44 1 18 41 CFG=1
M  V30 45 1 19 42
M  V30 46 1 19 43
M  V30 47 1 20 44
M  V30 48 1 20 45
M  V30 49 1 21 46 CFG=3
M  V30 50 1 23 47
M  V30 51 1 23 48
M  V30 52 1 24 49
M  V30 53 1 25 50
M  V30 54 1 25 51
M  V30 55 1 26 52
M  V30 56 1 26 53
M  V30 57 1 29 54
M  V30 END BOND
M  V30 END CTAB
M  END
>  <Dataset>  (558) 
ChEMBL_Kinases

>  <Ligand_Instance>  (558) 
nan

>  <PDB_ID>  (558) 
nan

>  <Standardized_SMILES>  (558) 
COc1ncc(-c2cc3c(C)nc(N)nc3n([C@H]3CC[C@H](OCO)CC3)c2=O)cn1

>  <Name>  (558) 
nan

>  <Pocket>  (558) 
nan

>  <ATP_Site>  (558) 
nan

>  <Peripheral>  (558) 
nan

>  <Num_H_Atoms_ProtBoundConf>  (558) 
nan

>  <Num_Resolved_Atoms>  (558) 
nan

>  <Num_Not_Resolved_Atoms>  (558) 
nan

$$$$
CHEMBL2373629
     RDKit          2D

  0  0  0  0  0  0  0  0  0  0999 V3000
M  V30 BEGIN CTAB
M  V30 COUNTS 36 39 0 0 0
M  V30 BEGIN ATOM
M  V30 1 C 3.193543 3.474613 0.000000 0
M  V30 2 O 2.078826 2.470917 0.000000 0
M  V30 3 C 2.390693 1.003696 0.000000 0
M  V30 4 O 3.817278 0.540170 0.000000 0
M  V30 5 C 1.275976 0.000000 0.000000 0
M  V30 6 C 0.394298 1.213525 0.000000 0
M  V30 7 C -1.032286 1.677051 0.000000 0
M  V30 8 C -1.913964 0.463525 0.000000 0
M  V30 9 C -1.032286 -0.750000 0.000000 0
M  V30 10 C -1.913964 -1.963525 0.000000 0
M  V30 11 N -1.032286 -3.177051 0.000000 0
M  V30 12 C -1.495812 -4.603636 0.000000 0
M  V30 13 C -1.959337 -6.030221 0.000000 0
M  V30 14 C -1.077660 -7.243746 0.000000 0
M  V30 15 C -1.959337 -8.457272 0.000000 0
M  V30 16 C -3.385922 -7.993746 0.000000 0
M  V30 17 S -3.385922 -6.493746 0.000000 0
M  V30 18 C 0.394298 -2.713525 0.000000 0
M  V30 19 O 1.607824 -3.595203 0.000000 0
M  V30 20 C 0.394298 -1.213525 0.000000 0
M  V30 21 O -1.032286 0.750000 0.000000 0
M  V30 22 H 4.308260 4.478309 0.000000 0
M  V30 23 H 2.189847 4.589330 0.000000 0
M  V30 24 H 4.197239 2.359896 0.000000 0
M  V30 25 H 2.504727 -0.860332 0.000000 0
M  V30 26 H 0.857824 2.640110 0.000000 0
M  V30 27 H -1.495812 3.103636 0.000000 0
M  V30 28 H -3.413964 0.463525 0.000000 0
M  V30 29 H -3.028682 -0.959830 0.000000 0
M  V30 30 H -3.028682 -2.967221 0.000000 0
M  V30 31 H -0.069227 -5.067161 0.000000 0
M  V30 32 H -2.922397 -4.140110 0.000000 0
M  V30 33 H 0.422340 -7.243746 0.000000 0
M  V30 34 H -1.495812 -9.883856 0.000000 0
M  V30 35 H -4.599448 -8.875424 0.000000 0
M  V30 36 H 1.753743 -1.847490 0.000000 0
M  V30 END ATOM
M  V30 BEGIN BOND
M  V30 1 1 1 2
M  V30 2 1 2 3
M  V30 3 2 3 4
M  V30 4 1 3 5
M  V30 5 1 5 6
M  V30 6 1 6 7
M  V30 7 2 7 8
M  V30 8 1 8 9
M  V30 9 1 9 10 CFG=1
M  V30 10 1 10 11
M  V30 11 1 11 12
M  V30 12 1 12 13
M  V30 13 2 13 14
M  V30 14 1 14 15
M  V30 15 2 15 16
M  V30 16 1 16 17
M  V30 17 1 11 18
M  V30 18 2 18 19
M  V30 19 1 18 20
M  V30 20 1 9 21
M  V30 21 1 20 5
M  V30 22 1 21 6
M  V30 23 1 20 9
M  V30 24 1 17 13
M  V30 25 1 1 22
M  V30 26 1 1 23
M  V30 27 1 1 24
M  V30 28 1 5 25
M  V30 29 1 6 26 CFG=3
M  V30 30 1 7 27
M  V30 31 1 8 28
M  V30 32 1 10 29
M  V30 33 1 10 30
M  V30 34 1 12 31
M  V30 35 1 12 32
M  V30 36 1 14 33
M  V30 37 1 15 34
M  V30 38 1 16 35
M  V30 39 1 20 36 CFG=3
M  V30 END BOND
M  V30 END CTAB
M  END
>  <Dataset>  (559) 
ChEMBL_Kinases

>  <Ligand_Instance>  (559) 
nan

>  <PDB_ID>  (559) 
nan

>  <Standardized_SMILES>  (559) 
COC(=O)C1[C@@H]2C=C[C@]3(CN(Cc4cccs4)C(=O)[C@H]13)O2

>  <Name>  (559) 
nan

>  <Pocket>  (559) 
nan

>  <ATP_Site>  (559) 
nan

>  <Peripheral>  (559) 
nan

>  <Num_H_Atoms_ProtBoundConf>  (559) 
nan

>  <Num_Resolved_Atoms>  (559) 
nan

>  <Num_Not_Resolved_Atoms>  (559) 
nan

$$$$
CHEMBL2373564
     RDKit          3D

  0  0  0  0  0  0  0  0  0  0999 V3000
M  V30 BEGIN CTAB
M  V30 COUNTS 74 77 0 0 0
M  V30 BEGIN ATOM
M  V30 1 C 3.764825 -3.941618 1.351693 0
M  V30 2 C 2.774086 -3.070665 1.506996 0
M  V30 3 C 3.153303 -1.591482 1.579976 0 CFG=1
M  V30 4 C 3.527402 -1.256391 0.200534 0
M  V30 5 C 2.037716 -0.925924 2.258396 0 CFG=1
M  V30 6 C 2.201691 0.151577 3.240405 0 CFG=1
M  V30 7 C 3.273831 1.102845 3.235132 0
M  V30 8 C 3.605194 2.037883 2.207547 0
M  V30 9 C 4.480941 1.953671 1.143629 0
M  V30 10 C 4.747041 2.914491 0.193704 0
M  V30 11 C 4.063098 4.106185 0.310106 0
M  V30 12 C 3.159835 4.313151 1.331779 0
M  V30 13 C 2.960659 3.285143 2.238332 0
M  V30 14 N 0.817201 0.674759 3.278169 0
M  V30 15 C -0.016412 -0.424505 2.787953 0
M  V30 16 O -1.091700 -0.767420 3.400134 0
M  V30 17 C 0.740393 -0.874715 1.555338 0 CFG=2
M  V30 18 C 0.465031 -2.252227 1.086251 0 CFG=2
M  V30 19 C -0.932486 -2.649792 0.964685 0
M  V30 20 C -1.487238 -3.477352 0.082467 0
M  V30 21 C -2.950990 -3.836284 0.021510 0
M  V30 22 C -3.374932 -3.388518 -1.390337 0 CFG=2
M  V30 23 C -2.522919 -4.249130 -2.317137 0
M  V30 24 C -2.963774 -1.945835 -1.588604 0
M  V30 25 O -2.174193 -1.673011 -2.506954 0
M  V30 26 C -3.213925 -0.628257 -0.992187 0 CFG=1
M  V30 27 C -3.738168 0.358707 -1.982064 0
M  V30 28 O -4.242473 -0.848315 -0.037304 0
M  V30 29 C -2.064325 -0.139343 -0.181153 0
M  V30 30 C -0.763579 -0.460315 -0.360209 0
M  V30 31 C 0.365874 0.082924 0.522679 0 CFG=1
M  V30 32 O -0.236425 1.245017 1.077997 0
M  V30 33 C 0.019654 2.537695 0.735048 0
M  V30 34 C -0.727908 3.583853 1.453336 0
M  V30 35 O 0.887537 2.590271 -0.173210 0
M  V30 36 C 1.314340 -3.365451 1.618815 0 CFG=2
M  V30 37 O 0.918874 -3.918964 2.813458 0
M  V30 38 H 4.322046 -2.993692 1.369417 0
M  V30 39 H 3.417285 -4.967108 1.308845 0
M  V30 40 H 4.041353 -1.525499 2.268319 0
M  V30 41 H 3.165093 -1.980901 -0.591667 0
M  V30 42 H 4.652891 -1.364098 0.099022 0
M  V30 43 H 3.308894 -0.282354 -0.201213 0
M  V30 44 H 1.760455 -1.779519 3.009309 0
M  V30 45 H 2.229765 -0.233836 4.340788 0
M  V30 46 H 3.250781 1.719821 4.197525 0
M  V30 47 H 4.218051 0.485257 3.430526 0
M  V30 48 H 5.013793 1.015389 1.076688 0
M  V30 49 H 5.473481 2.693135 -0.592621 0
M  V30 50 H 4.268189 4.857480 -0.429188 0
M  V30 51 H 2.617350 5.240078 1.435372 0
M  V30 52 H 2.230606 3.498738 3.033569 0
M  V30 53 H 0.458810 1.632600 3.590404 0
M  V30 54 H 0.865234 -2.208545 0.021112 0
M  V30 55 H -1.666015 -2.245272 1.686707 0
M  V30 56 H -0.818517 -3.923051 -0.645072 0
M  V30 57 H -3.532243 -3.262322 0.748492 0
M  V30 58 H -3.116361 -4.918915 0.069813 0
M  V30 59 H -4.437843 -3.499400 -1.574275 0
M  V30 60 H -2.240816 -5.212081 -1.827190 0
M  V30 61 H -3.073924 -4.418548 -3.264963 0
M  V30 62 H -1.593981 -3.675398 -2.507679 0
M  V30 63 H -4.227179 -0.231788 -2.807495 0
M  V30 64 H -4.522519 1.012475 -1.562033 0
M  V30 65 H -2.960911 0.968790 -2.463941 0
M  V30 66 H -5.025981 -0.286187 -0.209367 0
M  V30 67 H -2.243646 0.548758 0.651338 0
M  V30 68 H -0.386814 -1.133114 -1.152903 0
M  V30 69 H 1.076365 0.460390 -0.191171 0
M  V30 70 H -0.661153 3.487258 2.557799 0
M  V30 71 H -1.811034 3.431195 1.208300 0
M  V30 72 H -0.453245 4.605735 1.144827 0
M  V30 73 H 1.187269 -4.231989 0.893690 0
M  V30 74 H 0.129550 -4.499892 2.681592 0
M  V30 END ATOM
M  V30 BEGIN BOND
M  V30 1 2 1 2
M  V30 2 1 2 3
M  V30 3 1 3 4
M  V30 4 1 3 5
M  V30 5 1 5 6
M  V30 6 1 6 7
M  V30 7 1 7 8
M  V30 8 2 8 9
M  V30 9 1 9 10
M  V30 10 2 10 11
M  V30 11 1 11 12
M  V30 12 2 12 13
M  V30 13 1 6 14
M  V30 14 1 14 15
M  V30 15 2 15 16
M  V30 16 1 17 15 CFG=1
M  V30 17 1 17 18
M  V30 18 1 18 19
M  V30 19 2 19 20
M  V30 20 1 20 21
M  V30 21 1 21 22
M  V30 22 1 22 23
M  V30 23 1 22 24
M  V30 24 2 24 25
M  V30 25 1 24 26
M  V30 26 1 26 27
M  V30 27 1 26 28 CFG=1
M  V30 28 1 26 29
M  V30 29 2 29 30
M  V30 30 1 30 31
M  V30 31 1 31 32
M  V30 32 1 32 33
M  V30 33 1 33 34
M  V30 34 2 33 35
M  V30 35 1 18 36
M  V30 36 1 36 37
M  V30 37 1 36 2
M  V30 38 1 17 5
M  V30 39 1 13 8
M  V30 40 1 31 17
M  V30 41 1 1 38
M  V30 42 1 1 39
M  V30 43 1 3 40 CFG=1
M  V30 44 1 4 41
M  V30 45 1 4 42
M  V30 46 1 4 43
M  V30 47 1 5 44 CFG=1
M  V30 48 1 6 45 CFG=1
M  V30 49 1 7 46
M  V30 50 1 7 47
M  V30 51 1 9 48
M  V30 52 1 10 49
M  V30 53 1 11 50
M  V30 54 1 12 51
M  V30 55 1 13 52
M  V30 56 1 14 53
M  V30 57 1 18 54 CFG=3
M  V30 58 1 19 55
M  V30 59 1 20 56
M  V30 60 1 21 57
M  V30 61 1 21 58
M  V30 62 1 22 59 CFG=3
M  V30 63 1 23 60
M  V30 64 1 23 61
M  V30 65 1 23 62
M  V30 66 1 27 63
M  V30 67 1 27 64
M  V30 68 1 27 65
M  V30 69 1 28 66
M  V30 70 1 29 67
M  V30 71 1 30 68
M  V30 72 1 31 69 CFG=3
M  V30 73 1 34 70
M  V30 74 1 34 71
M  V30 75 1 34 72
M  V30 76 1 36 73 CFG=3
M  V30 77 1 37 74
M  V30 END BOND
M  V30 END CTAB
M  END
>  <Dataset>  (560) 
ChEMBL_Kinases

>  <Ligand_Instance>  (560) 
nan

>  <PDB_ID>  (560) 
nan

>  <Standardized_SMILES>  (560) 
C=C1[C@@H](C)[C@H]2[C@@H](Cc3ccccc3)NC(=O)[C@]23[C@H](/C=C/C[C@H](C)C(=O)[C@@](C)(O)/C=C/[C@H]3OC(C)=O)[C@@H]1O

>  <Name>  (560) 
nan

>  <Pocket>  (560) 
nan

>  <ATP_Site>  (560) 
nan

>  <Peripheral>  (560) 
nan

>  <Num_H_Atoms_ProtBoundConf>  (560) 
nan

>  <Num_Resolved_Atoms>  (560) 
nan

>  <Num_Not_Resolved_Atoms>  (560) 
nan

$$$$
CHEMBL237345
     RDKit          3D

  0  0  0  0  0  0  0  0  0  0999 V3000
M  V30 BEGIN CTAB
M  V30 COUNTS 42 45 0 0 0
M  V30 BEGIN ATOM
M  V30 1 C -1.159787 -2.477606 -2.761967 0
M  V30 2 C -0.141667 -2.867813 -1.757392 0
M  V30 3 C 0.020179 -4.190713 -1.407878 0
M  V30 4 C 0.941894 -4.639316 -0.484033 0
M  V30 5 C 1.749163 -3.703181 0.125022 0
M  V30 6 O 2.720933 -3.986395 1.070381 0
M  V30 7 C 1.584112 -2.382122 -0.227182 0
M  V30 8 C 0.668145 -1.937252 -1.145129 0
M  V30 9 N 0.471863 -0.585452 -1.532262 0
M  V30 10 C 1.064605 0.642162 -1.146410 0
M  V30 11 C 1.757183 1.407958 -2.094577 0
M  V30 12 C 2.388347 2.617951 -1.898452 0
M  V30 13 N 2.308052 3.084211 -0.640016 0
M  V30 14 C 1.669497 2.434737 0.349046 0
M  V30 15 C 1.623810 2.979131 1.616875 0
M  V30 16 C 0.949117 2.279546 2.607470 0
M  V30 17 C 0.318399 1.052343 2.369617 0
M  V30 18 C -0.353726 0.429857 3.506260 0
M  V30 19 C -1.475186 -0.371336 3.443399 0
M  V30 20 C -2.000300 -0.890899 4.608215 0
M  V30 21 C -1.470829 -0.659930 5.855970 0
M  V30 22 N -0.367474 0.128921 5.912808 0
M  V30 23 C 0.154625 0.642092 4.782781 0
M  V30 24 C 0.382620 0.535921 1.092777 0
M  V30 25 C 1.052115 1.225904 0.104056 0
M  V30 26 H -0.769858 -1.799235 -3.541327 0
M  V30 27 H -1.521582 -3.393525 -3.287026 0
M  V30 28 H -2.044541 -2.001815 -2.289147 0
M  V30 29 H -0.616039 -4.941389 -1.885879 0
M  V30 30 H 1.071741 -5.676451 -0.207126 0
M  V30 31 H 2.906560 -3.321154 1.809199 0
M  V30 32 H 2.198983 -1.612634 0.228291 0
M  V30 33 H -0.233265 -0.305659 -2.245590 0
M  V30 34 H 1.793817 0.982129 -3.109860 0
M  V30 35 H 2.883134 3.087552 -2.735907 0
M  V30 36 H 2.109692 3.914295 1.779251 0
M  V30 37 H 0.967632 2.783733 3.564898 0
M  V30 38 H -1.888575 -0.550386 2.458103 0
M  V30 39 H -2.883711 -1.514496 4.496892 0
M  V30 40 H -1.893586 -1.074095 6.761036 0
M  V30 41 H 1.030719 1.251069 4.971769 0
M  V30 42 H -0.101918 -0.389201 0.914756 0
M  V30 END ATOM
M  V30 BEGIN BOND
M  V30 1 1 1 2
M  V30 2 2 2 3
M  V30 3 1 3 4
M  V30 4 2 4 5
M  V30 5 1 5 6
M  V30 6 1 5 7
M  V30 7 2 7 8
M  V30 8 1 8 9
M  V30 9 1 9 10
M  V30 10 2 10 11
M  V30 11 1 11 12
M  V30 12 2 12 13
M  V30 13 1 13 14
M  V30 14 2 14 15
M  V30 15 1 15 16
M  V30 16 2 16 17
M  V30 17 1 17 18
M  V30 18 2 18 19
M  V30 19 1 19 20
M  V30 20 2 20 21
M  V30 21 1 21 22
M  V30 22 2 22 23
M  V30 23 1 17 24
M  V30 24 2 24 25
M  V30 25 1 8 2
M  V30 26 1 25 10
M  V30 27 1 25 14
M  V30 28 1 23 18
M  V30 29 1 1 26
M  V30 30 1 1 27
M  V30 31 1 1 28
M  V30 32 1 3 29
M  V30 33 1 4 30
M  V30 34 1 6 31
M  V30 35 1 7 32
M  V30 36 1 9 33
M  V30 37 1 11 34
M  V30 38 1 12 35
M  V30 39 1 15 36
M  V30 40 1 16 37
M  V30 41 1 19 38
M  V30 42 1 20 39
M  V30 43 1 21 40
M  V30 44 1 23 41
M  V30 45 1 24 42
M  V30 END BOND
M  V30 END CTAB
M  END
>  <Dataset>  (561) 
ChEMBL_Kinases

>  <Ligand_Instance>  (561) 
nan

>  <PDB_ID>  (561) 
nan

>  <Standardized_SMILES>  (561) 
Cc1ccc(O)cc1Nc1ccnc2ccc(-c3cccnc3)cc12

>  <Name>  (561) 
nan

>  <Pocket>  (561) 
nan

>  <ATP_Site>  (561) 
nan

>  <Peripheral>  (561) 
nan

>  <Num_H_Atoms_ProtBoundConf>  (561) 
nan

>  <Num_Resolved_Atoms>  (561) 
nan

>  <Num_Not_Resolved_Atoms>  (561) 
nan

$$$$
CHEMBL2373281
     RDKit          2D

  0  0  0  0  0  0  0  0  0  0999 V3000
M  V30 BEGIN CTAB
M  V30 COUNTS 99 106 0 0 0
M  V30 BEGIN ATOM
M  V30 1 C -5.751437 -9.694904 0.000000 0
M  V30 2 O -4.255091 -9.799539 0.000000 0
M  V30 3 C -3.416302 -8.555982 0.000000 0
M  V30 4 C -4.073858 -7.207791 0.000000 0
M  V30 5 C -3.235069 -5.964235 0.000000 0
M  V30 6 C -1.738723 -6.068869 0.000000 0
M  V30 7 C -0.899934 -4.825313 0.000000 0
M  V30 8 O 0.596412 -4.929948 0.000000 0
M  V30 9 O -1.557490 -3.477122 0.000000 0
M  V30 10 C -0.718701 -2.233566 0.000000 0
M  V30 11 C -2.089019 -1.623461 0.000000 0
M  V30 12 C -2.245812 -0.131678 0.000000 0
M  V30 13 C -1.032286 0.750000 0.000000 0
M  V30 14 C -2.245812 1.631678 0.000000 0
M  V30 15 C -1.032286 -0.750000 0.000000 0
M  V30 16 C 0.080713 -1.770040 0.000000 0
M  V30 17 C 1.451031 -1.159935 0.000000 0
M  V30 18 C 1.607824 0.331848 0.000000 0
M  V30 19 C 0.394298 1.213525 0.000000 0
M  V30 20 C 0.857824 2.640110 0.000000 0
M  V30 21 C 2.357824 2.640110 0.000000 0
M  V30 22 O 1.747719 4.010428 0.000000 0
M  V30 23 C 3.361520 3.754828 0.000000 0
M  V30 24 C 2.897994 5.181412 0.000000 0
M  V30 25 N 3.901690 6.296130 0.000000 0
M  V30 26 C 3.438165 7.722714 0.000000 0
M  V30 27 C 4.441861 8.837432 0.000000 0
M  V30 28 C 5.003770 10.228207 0.000000 0
M  V30 29 C 5.909082 8.525564 0.000000 0
M  V30 30 C 6.372607 7.098979 0.000000 0
M  V30 31 C 5.368912 5.984262 0.000000 0
M  V30 32 C 5.832437 4.557677 0.000000 0
M  V30 33 C 6.755929 3.375661 0.000000 0
M  V30 34 O 7.156858 5.261885 0.000000 0
M  V30 35 C 4.828741 3.442960 0.000000 0
M  V30 36 O 6.295963 3.131092 0.000000 0
M  V30 37 C 5.292267 2.016375 0.000000 0
M  V30 38 O 6.215759 0.834359 0.000000 0
M  V30 39 C 4.288571 0.901658 0.000000 0
M  V30 40 C 2.821349 1.213525 0.000000 0
M  V30 41 O 3.703027 2.427051 0.000000 0
M  V30 42 O 1.275976 0.000000 0.000000 0
M  V30 43 C 0.394298 -1.213525 0.000000 0
M  V30 44 O 0.857824 -2.640110 0.000000 0
M  V30 45 C -1.081166 -7.417061 0.000000 0
M  V30 46 C -1.919956 -8.660617 0.000000 0
M  V30 47 O -1.262399 -10.008808 0.000000 0
M  V30 48 C -2.101188 -11.252364 0.000000 0
M  V30 49 H -7.247783 -9.590269 0.000000 0
M  V30 50 H -5.856072 -11.191250 0.000000 0
M  V30 51 H -5.646802 -8.198558 0.000000 0
M  V30 52 H -5.570205 -7.103156 0.000000 0
M  V30 53 H -3.892626 -4.616044 0.000000 0
M  V30 54 H -0.084884 -3.593079 0.000000 0
M  V30 55 H -3.585365 -1.518826 0.000000 0
M  V30 56 H -2.451902 -3.078904 0.000000 0
M  V30 57 H -3.342925 0.891231 0.000000 0
M  V30 58 H -3.687704 -0.545134 0.000000 0
M  V30 59 H -3.459337 2.513356 0.000000 0
M  V30 60 H -1.518633 2.943627 0.000000 0
M  V30 61 H -3.268839 0.534675 0.000000 0
M  V30 62 H -2.423093 -1.311835 0.000000 0
M  V30 63 H 0.761663 -3.106568 0.000000 0
M  V30 64 H -0.382659 -3.196675 0.000000 0
M  V30 65 H 2.948973 -1.238480 0.000000 0
M  V30 66 H 1.988621 -2.560291 0.000000 0
M  V30 67 H 2.906862 -0.418152 0.000000 0
M  V30 68 H -0.560441 3.128501 0.000000 0
M  V30 69 H 0.295764 4.030825 0.000000 0
M  V30 70 H 0.286173 4.347894 0.000000 0
M  V30 71 H 4.365216 4.869545 0.000000 0
M  V30 72 H 1.837305 6.242044 0.000000 0
M  V30 73 H 1.409160 4.998729 0.000000 0
M  V30 74 H 2.514672 8.904730 0.000000 0
M  V30 75 H 2.037780 7.185200 0.000000 0
M  V30 76 H 3.169788 9.632310 0.000000 0
M  V30 77 H 5.565680 11.618983 0.000000 0
M  V30 78 H 6.452670 9.840018 0.000000 0
M  V30 79 H 3.612995 10.790117 0.000000 0
M  V30 80 H 7.394484 8.734324 0.000000 0
M  V30 81 H 6.143774 10.007090 0.000000 0
M  V30 82 H 7.658421 6.326526 0.000000 0
M  V30 83 H 7.697029 7.803187 0.000000 0
M  V30 84 H 6.863207 5.853569 0.000000 0
M  V30 85 H 7.679421 2.193645 0.000000 0
M  V30 86 H 8.041701 4.148184 0.000000 0
M  V30 87 H 5.983476 2.089848 0.000000 0
M  V30 88 H 8.516337 4.627994 0.000000 0
M  V30 89 H 6.759488 1.704508 0.000000 0
M  V30 90 H 6.792267 2.016213 0.000000 0
M  V30 91 H 7.701161 1.043119 0.000000 0
M  V30 92 H 3.900381 -0.547241 0.000000 0
M  V30 93 H 5.560643 0.106779 0.000000 0
M  V30 94 H 5.202798 2.453270 0.000000 0
M  V30 95 H 2.276089 -3.128501 0.000000 0
M  V30 96 H 0.415180 -7.521695 0.000000 0
M  V30 97 H -2.939978 -12.495921 0.000000 0
M  V30 98 H -0.857632 -12.091154 0.000000 0
M  V30 99 H -3.344745 -10.413575 0.000000 0
M  V30 END ATOM
M  V30 BEGIN BOND
M  V30 1 1 1 2
M  V30 2 1 2 3
M  V30 3 2 3 4
M  V30 4 1 4 5
M  V30 5 2 5 6
M  V30 6 1 6 7
M  V30 7 2 7 8
M  V30 8 1 7 9
M  V30 9 1 9 10
M  V30 10 1 10 11
M  V30 11 1 11 12
M  V30 12 1 12 13
M  V30 13 1 13 14 CFG=1
M  V30 14 1 13 15
M  V30 15 1 15 16
M  V30 16 1 16 17
M  V30 17 1 17 18
M  V30 18 1 18 19
M  V30 19 1 19 20
M  V30 20 1 20 21
M  V30 21 1 21 22 CFG=1
M  V30 22 1 21 23
M  V30 23 1 23 24
M  V30 24 1 24 25
M  V30 25 1 25 26
M  V30 26 1 26 27
M  V30 27 1 27 28
M  V30 28 1 27 29
M  V30 29 1 29 30
M  V30 30 1 30 31
M  V30 31 1 31 32
M  V30 32 1 32 33
M  V30 33 1 32 34 CFG=3
M  V30 34 1 32 35
M  V30 35 1 35 36 CFG=1
M  V30 36 1 35 37
M  V30 37 1 37 38
M  V30 38 1 37 39
M  V30 39 1 39 40
M  V30 40 1 40 41 CFG=1
M  V30 41 1 19 42 CFG=1
M  V30 42 1 42 43
M  V30 43 1 43 44 CFG=1
M  V30 44 1 6 45
M  V30 45 2 45 46
M  V30 46 1 46 47
M  V30 47 1 47 48
M  V30 48 1 46 3
M  V30 49 1 43 10
M  V30 50 1 19 13
M  V30 51 1 40 21
M  V30 52 1 43 15
M  V30 53 1 40 18
M  V30 54 1 35 23
M  V30 55 1 31 25
M  V30 56 1 1 49
M  V30 57 1 1 50
M  V30 58 1 1 51
M  V30 59 1 4 52
M  V30 60 1 5 53
M  V30 61 1 10 54 CFG=3
M  V30 62 1 11 55
M  V30 63 1 11 56
M  V30 64 1 12 57
M  V30 65 1 12 58
M  V30 66 1 14 59
M  V30 67 1 14 60
M  V30 68 1 14 61
M  V30 69 1 15 62 CFG=1
M  V30 70 1 16 63
M  V30 71 1 16 64
M  V30 72 1 17 65
M  V30 73 1 17 66
M  V30 74 1 18 67 CFG=3
M  V30 75 1 20 68
M  V30 76 1 20 69
M  V30 77 1 22 70
M  V30 78 1 23 71 CFG=3
M  V30 79 1 24 72
M  V30 80 1 24 73
M  V30 81 1 26 74
M  V30 82 1 26 75
M  V30 83 1 27 76 CFG=1
M  V30 84 1 28 77
M  V30 85 1 28 78
M  V30 86 1 28 79
M  V30 87 1 29 80
M  V30 88 1 29 81
M  V30 89 1 30 82
M  V30 90 1 30 83
M  V30 91 1 31 84 CFG=3
M  V30 92 1 33 85
M  V30 93 1 33 86
M  V30 94 1 33 87
M  V30 95 1 34 88
M  V30 96 1 36 89
M  V30 97 1 37 90 CFG=1
M  V30 98 1 38 91
M  V30 99 1 39 92
M  V30 100 1 39 93
M  V30 101 1 41 94
M  V30 102 1 44 95
M  V30 103 1 45 96
M  V30 104 1 48 97
M  V30 105 1 48 98
M  V30 106 1 48 99
M  V30 END BOND
M  V30 END CTAB
M  END
>  <Dataset>  (562) 
ChEMBL_Kinases

>  <Ligand_Instance>  (562) 
nan

>  <PDB_ID>  (562) 
nan

>  <Standardized_SMILES>  (562) 
COc1ccc(C(=O)O[C@H]2CC[C@@]3(C)[C@H]4CC[C@H]5[C@]3(C[C@]3(O)[C@H]6CN7C[C@H](C)CC[C@H]7[C@](C)(O)[C@]6(O)[C@H](O)C[C@]53O)O[C@]24O)cc1OC

>  <Name>  (562) 
nan

>  <Pocket>  (562) 
nan

>  <ATP_Site>  (562) 
nan

>  <Peripheral>  (562) 
nan

>  <Num_H_Atoms_ProtBoundConf>  (562) 
nan

>  <Num_Resolved_Atoms>  (562) 
nan

>  <Num_Not_Resolved_Atoms>  (562) 
nan

$$$$
CHEMBL2326715
     RDKit          3D

  0  0  0  0  0  0  0  0  0  0999 V3000
M  V30 BEGIN CTAB
M  V30 COUNTS 30 31 0 0 0
M  V30 BEGIN ATOM
M  V30 1 C -2.831457 -3.616196 -1.855851 0
M  V30 2 N -1.891640 -2.554069 -1.754397 0
M  V30 3 C -2.282870 -1.241217 -1.592472 0
M  V30 4 N -1.062336 -0.829995 -1.095204 0
M  V30 5 C -0.350533 0.143772 -0.643490 0
M  V30 6 N 1.030501 -0.028212 -0.214518 0
M  V30 7 C 1.502676 -0.111629 1.098028 0
M  V30 8 C 1.032998 0.336927 2.390490 0
M  V30 9 N 1.946911 0.043672 3.363854 0
M  V30 10 N 2.991918 -0.573551 2.784728 0
M  V30 11 C 4.055575 -0.968075 3.679474 0
M  V30 12 C 2.680702 -0.625198 1.529331 0
M  V30 13 Cl 3.885646 -1.396805 0.495207 0
M  V30 14 N -1.038748 1.303350 -0.619119 0
M  V30 15 C -2.313469 1.277475 -1.048598 0
M  V30 16 C -2.644711 0.023325 -1.435812 0
M  V30 17 C -3.998555 -0.253793 -2.088181 0
M  V30 18 F -4.656619 0.988139 -2.112009 0
M  V30 19 F -4.746042 -1.144057 -1.393471 0
M  V30 20 F -3.893756 -0.624208 -3.410256 0
M  V30 21 H -3.343856 -3.603676 -2.849902 0
M  V30 22 H -2.376583 -4.648407 -1.756714 0
M  V30 23 H -3.686219 -3.568921 -1.093415 0
M  V30 24 H -0.928648 -3.037035 -1.777610 0
M  V30 25 H 1.715708 -0.092218 -0.978808 0
M  V30 26 H 0.079464 0.843607 2.457712 0
M  V30 27 H 3.695187 -1.902128 4.210654 0
M  V30 28 H 4.930804 -1.317541 3.086227 0
M  V30 29 H 4.319571 -0.195103 4.419048 0
M  V30 30 H -3.067819 2.043946 -1.112959 0
M  V30 END ATOM
M  V30 BEGIN BOND
M  V30 1 1 1 2
M  V30 2 1 2 3
M  V30 3 2 3 4
M  V30 4 1 4 5
M  V30 5 1 5 6
M  V30 6 1 6 7
M  V30 7 1 7 8
M  V30 8 2 8 9
M  V30 9 1 9 10
M  V30 10 1 10 11
M  V30 11 1 10 12
M  V30 12 1 12 13
M  V30 13 2 5 14
M  V30 14 1 14 15
M  V30 15 2 15 16
M  V30 16 1 16 17
M  V30 17 1 17 18
M  V30 18 1 17 19
M  V30 19 1 17 20
M  V30 20 1 16 3
M  V30 21 2 12 7
M  V30 22 1 1 21
M  V30 23 1 1 22
M  V30 24 1 1 23
M  V30 25 1 2 24
M  V30 26 1 6 25
M  V30 27 1 8 26
M  V30 28 1 11 27
M  V30 29 1 11 28
M  V30 30 1 11 29
M  V30 31 1 15 30
M  V30 END BOND
M  V30 END CTAB
M  END
>  <Dataset>  (563) 
ChEMBL_Kinases

>  <Ligand_Instance>  (563) 
nan

>  <PDB_ID>  (563) 
nan

>  <Standardized_SMILES>  (563) 
CNc1nc(Nc2cnn(C)c2Cl)ncc1C(F)(F)F

>  <Name>  (563) 
nan

>  <Pocket>  (563) 
nan

>  <ATP_Site>  (563) 
nan

>  <Peripheral>  (563) 
nan

>  <Num_H_Atoms_ProtBoundConf>  (563) 
nan

>  <Num_Resolved_Atoms>  (563) 
nan

>  <Num_Not_Resolved_Atoms>  (563) 
nan

$$$$
CHEMBL2369308
     RDKit          3D

  0  0  0  0  0  0  0  0  0  0999 V3000
M  V30 BEGIN CTAB
M  V30 COUNTS 31 31 0 0 0
M  V30 BEGIN ATOM
M  V30 1 C -0.382927 -2.963571 2.039871 0
M  V30 2 C -0.983891 -2.928155 0.645640 0
M  V30 3 C -2.468043 -3.106663 0.806143 0
M  V30 4 C -0.438985 -4.052216 -0.217174 0
M  V30 5 C -0.610487 -1.631205 0.048958 0
M  V30 6 O -1.116775 -1.480926 -1.257620 0
M  V30 7 C 0.096012 -0.658376 0.561573 0
M  V30 8 C 0.404219 0.593404 -0.131854 0
M  V30 9 N -0.097715 0.642176 -1.316452 0
M  V30 10 C 1.206685 1.586266 0.574862 0
M  V30 11 C 1.744634 1.541791 1.835963 0
M  V30 12 C 2.476147 2.621610 2.286616 0
M  V30 13 C 2.692727 3.749922 1.523552 0
M  V30 14 C 2.123255 3.739033 0.252816 0
M  V30 15 N 1.406609 2.687529 -0.195728 0
M  V30 16 H -0.697122 -3.905278 2.550907 0
M  V30 17 H 0.700646 -2.884312 1.939569 0
M  V30 18 H -0.848375 -2.109828 2.591762 0
M  V30 19 H -2.634209 -4.150320 1.146360 0
M  V30 20 H -3.058000 -2.973485 -0.119244 0
M  V30 21 H -2.877117 -2.444678 1.596249 0
M  V30 22 H 0.407212 -3.662891 -0.841689 0
M  V30 23 H -1.232227 -4.506872 -0.860526 0
M  V30 24 H -0.070721 -4.888577 0.439020 0
M  V30 25 H -1.041778 -2.225356 -1.939305 0
M  V30 26 H 0.427847 -0.891594 1.567157 0
M  V30 27 H 0.060272 1.486845 -1.896917 0
M  V30 28 H 1.528258 0.633730 2.355227 0
M  V30 29 H 2.861829 2.483431 3.308331 0
M  V30 30 H 3.269083 4.534765 1.951759 0
M  V30 31 H 2.307573 4.639488 -0.330359 0
M  V30 END ATOM
M  V30 BEGIN BOND
M  V30 1 1 1 2
M  V30 2 1 2 3
M  V30 3 1 2 4
M  V30 4 1 2 5
M  V30 5 1 5 6
M  V30 6 2 5 7
M  V30 7 1 7 8
M  V30 8 2 8 9
M  V30 9 1 8 10
M  V30 10 2 10 11
M  V30 11 1 11 12
M  V30 12 2 12 13
M  V30 13 1 13 14
M  V30 14 2 14 15
M  V30 15 1 15 10
M  V30 16 1 1 16
M  V30 17 1 1 17
M  V30 18 1 1 18
M  V30 19 1 3 19
M  V30 20 1 3 20
M  V30 21 1 3 21
M  V30 22 1 4 22
M  V30 23 1 4 23
M  V30 24 1 4 24
M  V30 25 1 6 25
M  V30 26 1 7 26
M  V30 27 1 9 27
M  V30 28 1 11 28
M  V30 29 1 12 29
M  V30 30 1 13 30
M  V30 31 1 14 31
M  V30 END BOND
M  V30 END CTAB
M  END
>  <Dataset>  (564) 
ChEMBL_Kinases

>  <Ligand_Instance>  (564) 
nan

>  <PDB_ID>  (564) 
nan

>  <Standardized_SMILES>  (564) 
CC(C)(C)/C(O)=C/C(=N)c1ccccn1

>  <Name>  (564) 
nan

>  <Pocket>  (564) 
nan

>  <ATP_Site>  (564) 
nan

>  <Peripheral>  (564) 
nan

>  <Num_H_Atoms_ProtBoundConf>  (564) 
nan

>  <Num_Resolved_Atoms>  (564) 
nan

>  <Num_Not_Resolved_Atoms>  (564) 
nan

$$$$
CHEMBL2369159
     RDKit          3D

  0  0  0  0  0  0  0  0  0  0999 V3000
M  V30 BEGIN CTAB
M  V30 COUNTS 22 22 0 0 0
M  V30 BEGIN ATOM
M  V30 1 N 1.759591 0.419590 -2.368493 0
M  V30 2 C 1.274364 -0.761785 -2.304191 0
M  V30 3 N 1.692249 -1.860866 -3.096313 0
M  V30 4 N 0.234396 -0.948228 -1.349919 0
M  V30 5 N 0.178809 -0.136234 -0.207406 0
M  V30 6 C -0.049966 -0.531628 0.978026 0
M  V30 7 C -0.130074 0.217728 2.228629 0
M  V30 8 C -0.397665 -0.431477 3.439560 0
M  V30 9 C -0.457173 0.346150 4.577221 0
M  V30 10 C -0.270792 1.713147 4.595460 0
M  V30 11 C -0.002617 2.374468 3.391960 0
M  V30 12 Cl 0.238705 4.098092 3.372125 0
M  V30 13 C 0.054002 1.584287 2.262120 0
M  V30 14 Cl 0.394924 2.469783 0.774379 0
M  V30 15 H 2.523836 0.734977 -3.007666 0
M  V30 16 H 1.705762 -2.460585 -3.945954 0
M  V30 17 H 2.393112 -2.578753 -2.781144 0
M  V30 18 H -0.509437 -1.694716 -1.481583 0
M  V30 19 H -0.203226 -1.601954 1.014139 0
M  V30 20 H -0.536657 -1.488021 3.390898 0
M  V30 21 H -0.668617 -0.213271 5.490210 0
M  V30 22 H -0.337003 2.241716 5.544200 0
M  V30 END ATOM
M  V30 BEGIN BOND
M  V30 1 2 1 2 CFG=2
M  V30 2 1 2 3
M  V30 3 1 2 4
M  V30 4 1 4 5
M  V30 5 2 5 6
M  V30 6 1 6 7
M  V30 7 2 7 8
M  V30 8 1 8 9
M  V30 9 2 9 10
M  V30 10 1 10 11
M  V30 11 1 11 12
M  V30 12 2 11 13
M  V30 13 1 13 14
M  V30 14 1 13 7
M  V30 15 1 1 15
M  V30 16 1 3 16
M  V30 17 1 3 17
M  V30 18 1 4 18
M  V30 19 1 6 19
M  V30 20 1 8 20
M  V30 21 1 9 21
M  V30 22 1 10 22
M  V30 END BOND
M  V30 END CTAB
M  END
>  <Dataset>  (565) 
ChEMBL_Kinases

>  <Ligand_Instance>  (565) 
nan

>  <PDB_ID>  (565) 
nan

>  <Standardized_SMILES>  (565) 
N=C(N)N/N=C/c1cccc(Cl)c1Cl

>  <Name>  (565) 
nan

>  <Pocket>  (565) 
nan

>  <ATP_Site>  (565) 
nan

>  <Peripheral>  (565) 
nan

>  <Num_H_Atoms_ProtBoundConf>  (565) 
nan

>  <Num_Resolved_Atoms>  (565) 
nan

>  <Num_Not_Resolved_Atoms>  (565) 
nan

$$$$
CHEMBL236902
     RDKit          3D

  0  0  0  0  0  0  0  0  0  0999 V3000
M  V30 BEGIN CTAB
M  V30 COUNTS 60 63 0 0 0
M  V30 BEGIN ATOM
M  V30 1 C 1.498122 -5.291245 1.633630 0
M  V30 2 C 0.926566 -4.444171 2.745289 0 CFG=1
M  V30 3 C 1.829916 -3.278523 3.008941 0
M  V30 4 N 0.987213 -2.114558 3.249867 0
M  V30 5 C 1.069232 -0.865274 2.571865 0
M  V30 6 C 0.293790 0.263939 2.746957 0
M  V30 7 C 0.541205 1.385329 1.977325 0
M  V30 8 C 1.547873 1.413815 1.030186 0
M  V30 9 C 1.749271 2.633224 0.254945 0
M  V30 10 O 0.978421 3.595483 0.503450 0
M  V30 11 N 2.764739 2.732132 -0.732250 0
M  V30 12 C 3.042444 3.873040 -1.540095 0
M  V30 13 C 3.900353 4.911409 -1.269210 0
M  V30 14 C 4.036733 5.936975 -2.184152 0
M  V30 15 C 3.344056 5.978296 -3.382092 0
M  V30 16 C 2.485988 4.920478 -3.631553 0
M  V30 17 C 2.327301 3.879465 -2.736615 0
M  V30 18 N 1.410881 2.848467 -3.112313 0
M  V30 19 C 2.299783 0.263846 0.887018 0
M  V30 20 N 2.045669 -0.821499 1.645468 0
M  V30 21 C 0.040465 -2.435666 4.302336 0
M  V30 22 C -0.986582 -3.385191 3.672397 0
M  V30 23 N -0.413641 -3.994673 2.462564 0
M  V30 24 C -0.921316 -4.200967 1.150489 0
M  V30 25 O -0.509282 -4.703923 0.074250 0
M  V30 26 O -2.219675 -3.788267 0.797942 0
M  V30 27 C -2.718107 -3.998728 -0.514789 0
M  V30 28 C -4.100859 -3.489967 -0.670570 0
M  V30 29 C -4.259804 -2.172645 -1.083302 0
M  V30 30 C -5.505191 -1.570180 -1.268924 0
M  V30 31 C -6.600866 -2.364713 -1.016772 0
M  V30 32 C -6.468805 -3.675283 -0.606002 0
M  V30 33 C -5.230773 -4.251678 -0.428597 0
M  V30 34 H 1.744087 -4.752464 0.720643 0
M  V30 35 H 2.414744 -5.796354 2.049565 0
M  V30 36 H 0.812804 -6.127658 1.373443 0
M  V30 37 H 0.905499 -5.098547 3.653415 0
M  V30 38 H 2.437433 -3.466475 3.926705 0
M  V30 39 H 2.534675 -3.076360 2.178221 0
M  V30 40 H -0.466572 0.162065 3.500823 0
M  V30 41 H -0.117697 2.224211 2.183927 0
M  V30 42 H 3.407205 1.939263 -0.943782 0
M  V30 43 H 4.404164 4.822680 -0.332483 0
M  V30 44 H 4.749371 6.692211 -1.839804 0
M  V30 45 H 3.516778 6.822808 -4.034523 0
M  V30 46 H 1.948638 4.942796 -4.550281 0
M  V30 47 H 1.547100 2.276423 -3.994300 0
M  V30 48 H 0.564980 2.625632 -2.516563 0
M  V30 49 H 3.094811 0.255408 0.154115 0
M  V30 50 H -0.449932 -1.514674 4.654591 0
M  V30 51 H 0.529071 -2.915821 5.174376 0
M  V30 52 H -1.888468 -2.794493 3.450974 0
M  V30 53 H -1.201251 -4.150196 4.418639 0
M  V30 54 H -2.665177 -5.092469 -0.770849 0
M  V30 55 H -2.028608 -3.484519 -1.200926 0
M  V30 56 H -3.415698 -1.516545 -1.291606 0
M  V30 57 H -5.592328 -0.542573 -1.591093 0
M  V30 58 H -7.605961 -1.976115 -1.135819 0
M  V30 59 H -7.307678 -4.319923 -0.401479 0
M  V30 60 H -5.100434 -5.272021 -0.108743 0
M  V30 END ATOM
M  V30 BEGIN BOND
M  V30 1 1 1 2
M  V30 2 1 2 3
M  V30 3 1 3 4
M  V30 4 1 4 5
M  V30 5 2 5 6
M  V30 6 1 6 7
M  V30 7 2 7 8
M  V30 8 1 8 9
M  V30 9 2 9 10
M  V30 10 1 9 11
M  V30 11 1 11 12
M  V30 12 2 12 13
M  V30 13 1 13 14
M  V30 14 2 14 15
M  V30 15 1 15 16
M  V30 16 2 16 17
M  V30 17 1 17 18
M  V30 18 1 8 19
M  V30 19 2 19 20
M  V30 20 1 4 21
M  V30 21 1 21 22
M  V30 22 1 22 23
M  V30 23 1 23 24
M  V30 24 2 24 25
M  V30 25 1 24 26
M  V30 26 1 26 27
M  V30 27 1 27 28
M  V30 28 2 28 29
M  V30 29 1 29 30
M  V30 30 2 30 31
M  V30 31 1 31 32
M  V30 32 2 32 33
M  V30 33 1 23 2
M  V30 34 1 33 28
M  V30 35 1 20 5
M  V30 36 1 17 12
M  V30 37 1 1 34
M  V30 38 1 1 35
M  V30 39 1 1 36
M  V30 40 1 2 37 CFG=1
M  V30 41 1 3 38
M  V30 42 1 3 39
M  V30 43 1 6 40
M  V30 44 1 7 41
M  V30 45 1 11 42
M  V30 46 1 13 43
M  V30 47 1 14 44
M  V30 48 1 15 45
M  V30 49 1 16 46
M  V30 50 1 18 47
M  V30 51 1 18 48
M  V30 52 1 19 49
M  V30 53 1 21 50
M  V30 54 1 21 51
M  V30 55 1 22 52
M  V30 56 1 22 53
M  V30 57 1 27 54
M  V30 58 1 27 55
M  V30 59 1 29 56
M  V30 60 1 30 57
M  V30 61 1 31 58
M  V30 62 1 32 59
M  V30 63 1 33 60
M  V30 END BOND
M  V30 END CTAB
M  END
>  <Dataset>  (566) 
ChEMBL_Kinases

>  <Ligand_Instance>  (566) 
nan

>  <PDB_ID>  (566) 
nan

>  <Standardized_SMILES>  (566) 
C[C@H]1CN(c2ccc(C(=O)Nc3ccccc3N)cn2)CCN1C(=O)OCc1ccccc1

>  <Name>  (566) 
nan

>  <Pocket>  (566) 
nan

>  <ATP_Site>  (566) 
nan

>  <Peripheral>  (566) 
nan

>  <Num_H_Atoms_ProtBoundConf>  (566) 
nan

>  <Num_Resolved_Atoms>  (566) 
nan

>  <Num_Not_Resolved_Atoms>  (566) 
nan

$$$$
CHEMBL236694
     RDKit          3D

  0  0  0  0  0  0  0  0  0  0999 V3000
M  V30 BEGIN CTAB
M  V30 COUNTS 32 34 0 0 0
M  V30 BEGIN ATOM
M  V30 1 C -3.376629 -3.906596 2.049443 0
M  V30 2 N -1.924315 -3.999748 1.876295 0
M  V30 3 C -1.177065 -5.218161 2.107123 0
M  V30 4 C -1.222215 -2.834329 1.461751 0
M  V30 5 C 0.165828 -2.859492 1.278793 0
M  V30 6 C 0.825457 -1.707524 0.873736 0
M  V30 7 C 0.163360 -0.518422 0.639295 0
M  V30 8 C 0.868702 0.688368 0.213034 0
M  V30 9 N 2.200884 0.771260 0.008262 0
M  V30 10 C 2.532019 2.016948 -0.377450 0
M  V30 11 C 3.680689 2.701408 -0.721533 0
M  V30 12 C 3.580100 4.029893 -1.070846 0
M  V30 13 Cl 5.015659 4.943966 -1.516865 0
M  V30 14 C 2.392585 4.734303 -1.101022 0
M  V30 15 N 1.272784 4.069246 -0.766188 0
M  V30 16 C 1.354206 2.764898 -0.420849 0
M  V30 17 N 0.375069 1.916914 -0.055242 0
M  V30 18 C -1.205262 -0.484538 0.817213 0
M  V30 19 C -1.877559 -1.642604 1.225668 0
M  V30 20 H -3.539890 -3.111462 2.806715 0
M  V30 21 H -3.789858 -3.510222 1.086358 0
M  V30 22 H -3.820298 -4.864876 2.312210 0
M  V30 23 H -0.454985 -5.410673 1.267934 0
M  V30 24 H -0.642146 -5.114557 3.071680 0
M  V30 25 H -1.872232 -6.093535 2.173119 0
M  V30 26 H 0.738149 -3.762886 1.447418 0
M  V30 27 H 1.905246 -1.767312 0.742399 0
M  V30 28 H 4.612018 2.176265 -0.705326 0
M  V30 29 H 2.294250 5.769945 -1.370611 0
M  V30 30 H -0.658606 2.084305 0.040319 0
M  V30 31 H -1.776740 0.425874 0.646563 0
M  V30 32 H -2.941318 -1.630952 1.367980 0
M  V30 END ATOM
M  V30 BEGIN BOND
M  V30 1 1 1 2
M  V30 2 1 2 3
M  V30 3 1 2 4
M  V30 4 2 4 5
M  V30 5 1 5 6
M  V30 6 2 6 7
M  V30 7 1 7 8
M  V30 8 2 8 9
M  V30 9 1 9 10
M  V30 10 2 10 11
M  V30 11 1 11 12
M  V30 12 1 12 13
M  V30 13 2 12 14
M  V30 14 1 14 15
M  V30 15 2 15 16
M  V30 16 1 16 17
M  V30 17 1 7 18
M  V30 18 2 18 19
M  V30 19 1 19 4
M  V30 20 1 17 8
M  V30 21 1 16 10
M  V30 22 1 1 20
M  V30 23 1 1 21
M  V30 24 1 1 22
M  V30 25 1 3 23
M  V30 26 1 3 24
M  V30 27 1 3 25
M  V30 28 1 5 26
M  V30 29 1 6 27
M  V30 30 1 11 28
M  V30 31 1 14 29
M  V30 32 1 17 30
M  V30 33 1 18 31
M  V30 34 1 19 32
M  V30 END BOND
M  V30 END CTAB
M  END
>  <Dataset>  (567) 
ChEMBL_Kinases

>  <Ligand_Instance>  (567) 
nan

>  <PDB_ID>  (567) 
nan

>  <Standardized_SMILES>  (567) 
CN(C)c1ccc(-c2nc3cc(Cl)cnc3[nH]2)cc1

>  <Name>  (567) 
nan

>  <Pocket>  (567) 
nan

>  <ATP_Site>  (567) 
nan

>  <Peripheral>  (567) 
nan

>  <Num_H_Atoms_ProtBoundConf>  (567) 
nan

>  <Num_Resolved_Atoms>  (567) 
nan

>  <Num_Not_Resolved_Atoms>  (567) 
nan

$$$$
CHEMBL235764
     RDKit          3D

  0  0  0  0  0  0  0  0  0  0999 V3000
M  V30 BEGIN CTAB
M  V30 COUNTS 33 36 0 0 0
M  V30 BEGIN ATOM
M  V30 1 O 2.380083 0.292431 3.232363 0
M  V30 2 C 2.073227 -0.618296 2.432156 0
M  V30 3 N 2.839881 -1.716801 2.539790 0
M  V30 4 C 2.633387 -2.782675 1.747316 0
M  V30 5 C 3.428123 -3.903469 1.868941 0
M  V30 6 C 3.147910 -4.953245 1.015904 0
M  V30 7 C 2.141592 -4.916722 0.086673 0
M  V30 8 C 1.345642 -3.779730 -0.027015 0
M  V30 9 C 1.615877 -2.725653 0.819016 0
M  V30 10 C 0.864634 -1.571633 0.757052 0
M  V30 11 C 1.036052 -0.451606 1.546784 0
M  V30 12 C 0.215506 0.746693 1.444236 0
M  V30 13 C 0.393760 1.863331 2.238471 0
M  V30 14 S -0.969514 3.009296 1.594390 0
M  V30 15 C -1.493241 1.744870 0.391279 0
M  V30 16 C -2.630139 1.891532 -0.599402 0
M  V30 17 C -2.910643 0.837188 -1.455191 0
M  V30 18 C -3.957786 1.067890 -2.314069 0
M  V30 19 N -4.645193 2.208251 -2.323495 0
M  V30 20 C -4.340721 3.206354 -1.476614 0
M  V30 21 C -3.303253 3.094757 -0.560097 0
M  V30 22 N -0.777984 0.852420 0.565946 0
M  V30 23 H 3.615971 -1.797430 3.227019 0
M  V30 24 H 4.222346 -3.959549 2.587042 0
M  V30 25 H 3.766337 -5.858432 1.092018 0
M  V30 26 H 1.930161 -5.757483 -0.584259 0
M  V30 27 H 0.545286 -3.716521 -0.746900 0
M  V30 28 H 0.066500 -1.567757 0.005977 0
M  V30 29 H 1.129652 2.126165 3.080289 0
M  V30 30 H -2.289513 -0.043238 -1.362595 0
M  V30 31 H -4.175796 0.226770 -2.991352 0
M  V30 32 H -4.920981 4.094646 -1.526236 0
M  V30 33 H -3.036185 3.875574 0.129671 0
M  V30 END ATOM
M  V30 BEGIN BOND
M  V30 1 2 1 2
M  V30 2 1 2 3
M  V30 3 1 3 4
M  V30 4 2 4 5
M  V30 5 1 5 6
M  V30 6 2 6 7
M  V30 7 1 7 8
M  V30 8 2 8 9
M  V30 9 1 9 10
M  V30 10 2 10 11
M  V30 11 1 11 12
M  V30 12 2 12 13
M  V30 13 1 13 14
M  V30 14 1 14 15
M  V30 15 1 15 16
M  V30 16 2 16 17
M  V30 17 1 17 18
M  V30 18 2 18 19
M  V30 19 1 19 20
M  V30 20 2 20 21
M  V30 21 2 15 22
M  V30 22 1 11 2
M  V30 23 1 22 12
M  V30 24 1 9 4
M  V30 25 1 21 16
M  V30 26 1 3 23
M  V30 27 1 5 24
M  V30 28 1 6 25
M  V30 29 1 7 26
M  V30 30 1 8 27
M  V30 31 1 10 28
M  V30 32 1 13 29
M  V30 33 1 17 30
M  V30 34 1 18 31
M  V30 35 1 20 32
M  V30 36 1 21 33
M  V30 END BOND
M  V30 END CTAB
M  END
>  <Dataset>  (568) 
ChEMBL_Kinases

>  <Ligand_Instance>  (568) 
nan

>  <PDB_ID>  (568) 
nan

>  <Standardized_SMILES>  (568) 
O=c1[nH]c2ccccc2cc1-c1csc(-c2ccncc2)n1

>  <Name>  (568) 
nan

>  <Pocket>  (568) 
nan

>  <ATP_Site>  (568) 
nan

>  <Peripheral>  (568) 
nan

>  <Num_H_Atoms_ProtBoundConf>  (568) 
nan

>  <Num_Resolved_Atoms>  (568) 
nan

>  <Num_Not_Resolved_Atoms>  (568) 
nan

$$$$
CHEMBL23552
     RDKit          3D

  0  0  0  0  0  0  0  0  0  0999 V3000
M  V30 BEGIN CTAB
M  V30 COUNTS 44 44 0 0 0
M  V30 BEGIN ATOM
M  V30 1 O 0.957161 -2.125776 5.190886 0
M  V30 2 P 1.140190 -3.141926 4.086109 0
M  V30 3 O -0.230955 -4.132399 4.052027 0
M  V30 4 O 2.464926 -4.111450 4.542221 0
M  V30 5 O 1.527477 -2.478644 2.611798 0
M  V30 6 C 0.577592 -1.589336 2.106375 0 CFG=1
M  V30 7 C 1.263550 -0.259988 2.049926 0 CFG=2
M  V30 8 O 1.165538 0.296264 3.339700 0
M  V30 9 C 0.759054 0.699053 1.045248 0 CFG=1
M  V30 10 O 1.728392 1.018479 0.089691 0
M  V30 11 P 2.056768 2.685681 0.073397 0
M  V30 12 O 1.254634 3.385362 1.145739 0
M  V30 13 O 1.570303 3.280148 -1.451288 0
M  V30 14 O 3.704632 2.961264 0.303566 0
M  V30 15 C -0.474284 0.251008 0.293645 0 CFG=2
M  V30 16 O -1.595373 0.281515 1.109822 0
M  V30 17 P -2.748860 1.364337 0.548024 0
M  V30 18 O -2.114043 2.383489 -0.379479 0
M  V30 19 O -3.532624 2.132483 1.840339 0
M  V30 20 O -3.926353 0.487777 -0.290554 0
M  V30 21 C -0.165823 -1.111177 -0.262870 0 CFG=1
M  V30 22 O 0.990673 -0.999010 -1.024343 0
M  V30 23 P 0.777781 -1.341377 -2.645540 0
M  V30 24 O 2.115659 -1.746151 -3.258302 0
M  V30 25 O -0.340634 -2.592622 -2.896162 0
M  V30 26 O 0.224413 -0.009705 -3.529332 0
M  V30 27 C 0.087971 -2.129654 0.811241 0 CFG=1
M  V30 28 O 0.993024 -3.075677 0.302403 0
M  V30 29 H -1.063270 -3.600079 3.951076 0
M  V30 30 H 2.806257 -4.652092 3.804011 0
M  V30 31 H -0.286608 -1.497574 2.821644 0
M  V30 32 H 2.368484 -0.394388 1.876394 0
M  V30 33 H 1.977327 0.818633 3.561823 0
M  V30 34 H 0.470510 1.666555 1.539136 0
M  V30 35 H 2.373006 3.512681 -1.994016 0
M  V30 36 H 4.269341 2.256307 -0.100914 0
M  V30 37 H -0.569640 0.951544 -0.567453 0
M  V30 38 H -2.894496 2.651687 2.395016 0
M  V30 39 H -4.186368 -0.305064 0.259686 0
M  V30 40 H -0.978530 -1.413974 -0.955456 0
M  V30 41 H -0.083300 -3.410601 -2.377791 0
M  V30 42 H -0.031062 -0.347269 -4.431143 0
M  V30 43 H -0.873470 -2.668824 0.961287 0
M  V30 44 H 1.868918 -2.620333 0.330003 0
M  V30 END ATOM
M  V30 BEGIN BOND
M  V30 1 2 1 2
M  V30 2 1 2 3
M  V30 3 1 2 4
M  V30 4 1 2 5
M  V30 5 1 5 6
M  V30 6 1 6 7
M  V30 7 1 7 8
M  V30 8 1 7 9
M  V30 9 1 9 10
M  V30 10 1 10 11
M  V30 11 2 11 12
M  V30 12 1 11 13
M  V30 13 1 11 14
M  V30 14 1 9 15
M  V30 15 1 15 16
M  V30 16 1 16 17
M  V30 17 2 17 18
M  V30 18 1 17 19
M  V30 19 1 17 20
M  V30 20 1 15 21
M  V30 21 1 21 22
M  V30 22 1 22 23
M  V30 23 2 23 24
M  V30 24 1 23 25
M  V30 25 1 23 26
M  V30 26 1 21 27
M  V30 27 1 27 28
M  V30 28 1 27 6
M  V30 29 1 3 29
M  V30 30 1 4 30
M  V30 31 1 6 31 CFG=1
M  V30 32 1 7 32 CFG=3
M  V30 33 1 8 33
M  V30 34 1 9 34 CFG=1
M  V30 35 1 13 35
M  V30 36 1 14 36
M  V30 37 1 15 37 CFG=3
M  V30 38 1 19 38
M  V30 39 1 20 39
M  V30 40 1 21 40 CFG=3
M  V30 41 1 25 41
M  V30 42 1 26 42
M  V30 43 1 27 43 CFG=1
M  V30 44 1 28 44
M  V30 END BOND
M  V30 END CTAB
M  END
>  <Dataset>  (569) 
ChEMBL_Kinases

>  <Ligand_Instance>  (569) 
nan

>  <PDB_ID>  (569) 
nan

>  <Standardized_SMILES>  (569) 
O=P(O)(O)O[C@H]1[C@H](O)[C@@H](OP(=O)(O)O)[C@H](OP(=O)(O)O)[C@@H](OP(=O)(O)O)[C@H]1O

>  <Name>  (569) 
nan

>  <Pocket>  (569) 
nan

>  <ATP_Site>  (569) 
nan

>  <Peripheral>  (569) 
nan

>  <Num_H_Atoms_ProtBoundConf>  (569) 
nan

>  <Num_Resolved_Atoms>  (569) 
nan

>  <Num_Not_Resolved_Atoms>  (569) 
nan

$$$$
CHEMBL235453
     RDKit          3D

  0  0  0  0  0  0  0  0  0  0999 V3000
M  V30 BEGIN CTAB
M  V30 COUNTS 43 46 0 0 0
M  V30 BEGIN ATOM
M  V30 1 C 1.087316 -4.335925 3.238439 0
M  V30 2 O 0.484174 -4.856463 2.078169 0
M  V30 3 C 0.516027 -4.318118 0.826495 0
M  V30 4 C -0.095111 -4.869813 -0.279182 0
M  V30 5 C -0.057852 -4.321787 -1.525363 0
M  V30 6 C 0.641371 -3.142017 -1.661198 0
M  V30 7 N 0.812754 -2.412054 -2.789253 0
M  V30 8 C 1.561510 -1.324125 -2.464085 0
M  V30 9 S 2.231186 0.126845 -3.290923 0
M  V30 10 C 0.958794 1.425775 -3.094954 0
M  V30 11 C 0.812736 1.787767 -1.657597 0
M  V30 12 O 0.181947 0.874728 -1.000317 0
M  V30 13 N 1.201234 2.890822 -0.837208 0
M  V30 14 C 0.718966 2.504001 0.440062 0
M  V30 15 C 1.714173 1.791462 1.117985 0
M  V30 16 C 1.452267 1.298961 2.399845 0
M  V30 17 C 0.202946 1.546393 2.938943 0
M  V30 18 C -0.721761 2.244521 2.232100 0
M  V30 19 C -0.518691 2.750681 0.971098 0
M  V30 20 O -1.943322 2.423074 2.892744 0
M  V30 21 C -2.412235 1.382241 3.761610 0
M  V30 22 C -1.340022 0.894072 4.674051 0
M  V30 23 O -0.024744 1.052618 4.192668 0
M  V30 24 N 1.848453 -1.391177 -1.132022 0
M  V30 25 C 1.299622 -2.488310 -0.622378 0
M  V30 26 C 1.198936 -3.135035 0.613830 0
M  V30 27 H 1.113832 -5.172538 3.991705 0
M  V30 28 H 2.059379 -3.858764 3.078547 0
M  V30 29 H 0.324926 -3.613961 3.659657 0
M  V30 30 H -0.630852 -5.799949 -0.110586 0
M  V30 31 H -0.544322 -4.780973 -2.362329 0
M  V30 32 H 1.240148 2.270479 -3.742029 0
M  V30 33 H 0.007647 0.983836 -3.433779 0
M  V30 34 H 1.694516 3.590111 -1.433989 0
M  V30 35 H 2.714818 1.563253 0.749103 0
M  V30 36 H 2.210046 0.740952 2.944277 0
M  V30 37 H -1.227937 3.299520 0.403666 0
M  V30 38 H -3.255814 1.767611 4.366117 0
M  V30 39 H -2.790871 0.522363 3.150086 0
M  V30 40 H -1.443121 -0.206477 4.901734 0
M  V30 41 H -1.384838 1.383487 5.694167 0
M  V30 42 H 2.381276 -0.803892 -0.442394 0
M  V30 43 H 1.695461 -2.663574 1.451278 0
M  V30 END ATOM
M  V30 BEGIN BOND
M  V30 1 1 1 2
M  V30 2 1 2 3
M  V30 3 2 3 4
M  V30 4 1 4 5
M  V30 5 2 5 6
M  V30 6 1 6 7
M  V30 7 2 7 8
M  V30 8 1 8 9
M  V30 9 1 9 10
M  V30 10 1 10 11
M  V30 11 2 11 12
M  V30 12 1 11 13
M  V30 13 1 13 14
M  V30 14 2 14 15
M  V30 15 1 15 16
M  V30 16 2 16 17
M  V30 17 1 17 18
M  V30 18 2 18 19
M  V30 19 1 18 20
M  V30 20 1 20 21
M  V30 21 1 21 22
M  V30 22 1 22 23
M  V30 23 1 8 24
M  V30 24 1 24 25
M  V30 25 2 25 26
M  V30 26 1 26 3
M  V30 27 1 25 6
M  V30 28 1 19 14
M  V30 29 1 23 17
M  V30 30 1 1 27
M  V30 31 1 1 28
M  V30 32 1 1 29
M  V30 33 1 4 30
M  V30 34 1 5 31
M  V30 35 1 10 32
M  V30 36 1 10 33
M  V30 37 1 13 34
M  V30 38 1 15 35
M  V30 39 1 16 36
M  V30 40 1 19 37
M  V30 41 1 21 38
M  V30 42 1 21 39
M  V30 43 1 22 40
M  V30 44 1 22 41
M  V30 45 1 24 42
M  V30 46 1 26 43
M  V30 END BOND
M  V30 END CTAB
M  END
>  <Dataset>  (570) 
ChEMBL_Kinases

>  <Ligand_Instance>  (570) 
nan

>  <PDB_ID>  (570) 
nan

>  <Standardized_SMILES>  (570) 
COc1ccc2nc(SCC(=O)Nc3ccc4c(c3)OCCO4)[nH]c2c1

>  <Name>  (570) 
nan

>  <Pocket>  (570) 
nan

>  <ATP_Site>  (570) 
nan

>  <Peripheral>  (570) 
nan

>  <Num_H_Atoms_ProtBoundConf>  (570) 
nan

>  <Num_Resolved_Atoms>  (570) 
nan

>  <Num_Not_Resolved_Atoms>  (570) 
nan

$$$$
CHEMBL235260
     RDKit          3D

  0  0  0  0  0  0  0  0  0  0999 V3000
M  V30 BEGIN CTAB
M  V30 COUNTS 42 45 0 0 0
M  V30 BEGIN ATOM
M  V30 1 C 3.621804 -3.123263 2.083750 0
M  V30 2 S 4.492471 -2.048708 0.938115 0
M  V30 3 C 3.602760 -1.882777 -0.594874 0
M  V30 4 C 3.712712 -2.665545 -1.723073 0
M  V30 5 C 2.953224 -2.413750 -2.844398 0
M  V30 6 C 2.045835 -1.384186 -2.925112 0
M  V30 7 C 1.937774 -0.606077 -1.801736 0
M  V30 8 C 2.679992 -0.843953 -0.690041 0
M  V30 9 N 2.394199 0.087793 0.373521 0
M  V30 10 C 1.341785 -0.575458 1.050699 0
M  V30 11 O 1.016118 -1.710507 0.535587 0
M  V30 12 C 0.471250 -0.324647 2.237133 0
M  V30 13 N -0.826580 0.172633 1.809000 0
M  V30 14 C -1.303950 1.407832 1.584263 0
M  V30 15 C -0.489410 2.634317 1.762126 0
M  V30 16 C 0.562254 3.032080 0.960788 0
M  V30 17 S 1.077982 4.603145 1.762320 0
M  V30 18 C -0.275538 4.423905 3.084304 0
M  V30 19 N -0.887106 3.348677 2.817163 0
M  V30 20 N -2.606007 1.325133 1.187873 0
M  V30 21 C -2.963650 0.017176 1.159851 0
M  V30 22 C -4.125666 -0.655438 0.845897 0
M  V30 23 C -4.232056 -2.045122 0.902988 0
M  V30 24 C -3.097805 -2.765670 1.299051 0
M  V30 25 C -1.946161 -2.073637 1.608460 0
M  V30 26 C -1.852958 -0.697496 1.547812 0
M  V30 27 H 4.330816 -3.888966 2.443918 0
M  V30 28 H 3.331860 -2.491182 2.972872 0
M  V30 29 H 2.716785 -3.568232 1.623502 0
M  V30 30 H 4.445701 -3.479679 -1.624732 0
M  V30 31 H 3.096290 -3.070621 -3.684444 0
M  V30 32 H 1.461220 -1.209751 -3.814960 0
M  V30 33 H 1.204916 0.203999 -1.901403 0
M  V30 34 H 2.587236 0.976715 0.858595 0
M  V30 35 H 0.333266 -1.231703 2.840726 0
M  V30 36 H 1.028587 0.389824 2.878430 0
M  V30 37 H 0.866839 2.459660 0.126549 0
M  V30 38 H -0.429241 5.151213 3.879171 0
M  V30 39 H -5.014682 -0.103996 0.537733 0
M  V30 40 H -5.122351 -2.606765 0.666410 0
M  V30 41 H -3.154007 -3.853915 1.352618 0
M  V30 42 H -1.121617 -2.705605 1.905262 0
M  V30 END ATOM
M  V30 BEGIN BOND
M  V30 1 1 1 2
M  V30 2 1 2 3
M  V30 3 2 3 4
M  V30 4 1 4 5
M  V30 5 2 5 6
M  V30 6 1 6 7
M  V30 7 2 7 8
M  V30 8 1 8 9
M  V30 9 1 9 10
M  V30 10 2 10 11
M  V30 11 1 10 12
M  V30 12 1 12 13
M  V30 13 1 13 14
M  V30 14 1 14 15
M  V30 15 2 15 16
M  V30 16 1 16 17
M  V30 17 1 17 18
M  V30 18 2 18 19
M  V30 19 2 14 20
M  V30 20 1 20 21
M  V30 21 2 21 22
M  V30 22 1 22 23
M  V30 23 2 23 24
M  V30 24 1 24 25
M  V30 25 2 25 26
M  V30 26 1 8 3
M  V30 27 1 26 13
M  V30 28 1 19 15
M  V30 29 1 26 21
M  V30 30 1 1 27
M  V30 31 1 1 28
M  V30 32 1 1 29
M  V30 33 1 4 30
M  V30 34 1 5 31
M  V30 35 1 6 32
M  V30 36 1 7 33
M  V30 37 1 9 34
M  V30 38 1 12 35
M  V30 39 1 12 36
M  V30 40 1 16 37
M  V30 41 1 18 38
M  V30 42 1 22 39
M  V30 43 1 23 40
M  V30 44 1 24 41
M  V30 45 1 25 42
M  V30 END BOND
M  V30 END CTAB
M  END
>  <Dataset>  (571) 
ChEMBL_Kinases

>  <Ligand_Instance>  (571) 
nan

>  <PDB_ID>  (571) 
nan

>  <Standardized_SMILES>  (571) 
CSc1ccccc1NC(=O)Cn1c(-c2cscn2)nc2ccccc21

>  <Name>  (571) 
nan

>  <Pocket>  (571) 
nan

>  <ATP_Site>  (571) 
nan

>  <Peripheral>  (571) 
nan

>  <Num_H_Atoms_ProtBoundConf>  (571) 
nan

>  <Num_Resolved_Atoms>  (571) 
nan

>  <Num_Not_Resolved_Atoms>  (571) 
nan

$$$$
CHEMBL235157
     RDKit          3D

  0  0  0  0  0  0  0  0  0  0999 V3000
M  V30 BEGIN CTAB
M  V30 COUNTS 43 46 0 0 0
M  V30 BEGIN ATOM
M  V30 1 C -0.650137 -6.480751 1.332575 0
M  V30 2 O -0.250643 -5.430821 2.189230 0
M  V30 3 C -0.133205 -4.150513 1.646354 0
M  V30 4 C -0.425237 -4.024047 0.292464 0
M  V30 5 C -0.285978 -2.724995 -0.173615 0
M  V30 6 N -0.568813 -2.593701 -1.478647 0
M  V30 7 C -0.498269 -1.421494 -2.122402 0
M  V30 8 C -0.118130 -0.315187 -1.401114 0
M  V30 9 C -0.054147 0.857693 -2.073836 0
M  V30 10 N -0.360167 0.944505 -3.439286 0
M  V30 11 N 0.319009 1.926265 -1.353643 0
M  V30 12 C 0.620268 1.881751 -0.043094 0
M  V30 13 C 0.980263 3.104647 0.484580 0
M  V30 14 C 1.028167 4.353116 -0.314195 0
M  V30 15 C 1.293548 3.049290 1.839885 0
M  V30 16 N 1.673939 4.307925 2.425213 0
M  V30 17 C 1.246534 1.874793 2.582804 0
M  V30 18 C 0.864846 0.762386 1.876289 0
M  V30 19 C 0.540477 0.673173 0.591587 0
M  V30 20 C 0.173740 -0.429373 -0.072201 0
M  V30 21 C 0.090710 -1.618538 0.534038 0
M  V30 22 C 0.335401 -1.895868 1.809630 0
M  V30 23 C 0.260467 -3.095404 2.469726 0
M  V30 24 O 0.508401 -3.416622 3.794488 0
M  V30 25 C 0.914476 -2.344282 4.657118 0
M  V30 26 H -1.682217 -6.290144 0.995253 0
M  V30 27 H 0.038759 -6.560281 0.461842 0
M  V30 28 H -0.626658 -7.420983 1.892997 0
M  V30 29 H -0.729009 -4.848607 -0.333100 0
M  V30 30 H -0.730307 -1.348339 -3.164624 0
M  V30 31 H 0.403611 1.444364 -3.947690 0
M  V30 32 H -1.202143 0.590760 -3.957198 0
M  V30 33 H 1.753578 5.076812 0.057028 0
M  V30 34 H 1.393977 4.070710 -1.344501 0
M  V30 35 H 0.037179 4.842185 -0.407436 0
M  V30 36 H 2.488934 4.809051 1.966519 0
M  V30 37 H 1.285017 4.842120 3.247373 0
M  V30 38 H 1.523905 2.046533 3.605577 0
M  V30 39 H 0.900549 0.035899 2.591307 0
M  V30 40 H 0.626426 -1.256963 2.550677 0
M  V30 41 H 1.038977 -2.702986 5.699927 0
M  V30 42 H 0.073300 -1.599852 4.571279 0
M  V30 43 H 1.875572 -1.903607 4.349610 0
M  V30 END ATOM
M  V30 BEGIN BOND
M  V30 1 1 1 2
M  V30 2 1 2 3
M  V30 3 2 3 4
M  V30 4 1 4 5
M  V30 5 2 5 6
M  V30 6 1 6 7
M  V30 7 2 7 8
M  V30 8 1 8 9
M  V30 9 1 9 10
M  V30 10 2 9 11
M  V30 11 1 11 12
M  V30 12 2 12 13
M  V30 13 1 13 14
M  V30 14 1 13 15
M  V30 15 1 15 16
M  V30 16 2 15 17
M  V30 17 1 17 18
M  V30 18 2 18 19
M  V30 19 1 19 20
M  V30 20 2 20 21
M  V30 21 1 21 22
M  V30 22 2 22 23
M  V30 23 1 23 24
M  V30 24 1 24 25
M  V30 25 1 23 3
M  V30 26 1 21 5
M  V30 27 1 20 8
M  V30 28 1 19 12
M  V30 29 1 1 26
M  V30 30 1 1 27
M  V30 31 1 1 28
M  V30 32 1 4 29
M  V30 33 1 7 30
M  V30 34 1 10 31
M  V30 35 1 10 32
M  V30 36 1 14 33
M  V30 37 1 14 34
M  V30 38 1 14 35
M  V30 39 1 16 36
M  V30 40 1 16 37
M  V30 41 1 17 38
M  V30 42 1 18 39
M  V30 43 1 22 40
M  V30 44 1 25 41
M  V30 45 1 25 42
M  V30 46 1 25 43
M  V30 END BOND
M  V30 END CTAB
M  END
>  <Dataset>  (572) 
ChEMBL_Kinases

>  <Ligand_Instance>  (572) 
nan

>  <PDB_ID>  (572) 
nan

>  <Standardized_SMILES>  (572) 
COc1cc2ncc3c(N)nc4c(C)c(N)ccc4c3c2cc1OC

>  <Name>  (572) 
nan

>  <Pocket>  (572) 
nan

>  <ATP_Site>  (572) 
nan

>  <Peripheral>  (572) 
nan

>  <Num_H_Atoms_ProtBoundConf>  (572) 
nan

>  <Num_Resolved_Atoms>  (572) 
nan

>  <Num_Not_Resolved_Atoms>  (572) 
nan

$$$$
CHEMBL2349219
     RDKit          3D

  0  0  0  0  0  0  0  0  0  0999 V3000
M  V30 BEGIN CTAB
M  V30 COUNTS 49 51 0 0 0
M  V30 BEGIN ATOM
M  V30 1 O 6.355952 -1.135667 3.681874 0
M  V30 2 C 5.472751 -2.060113 3.714050 0
M  V30 3 O 4.929906 -2.373364 4.953187 0
M  V30 4 C 4.942930 -2.855599 2.578866 0
M  V30 5 C 5.529039 -2.503625 1.252305 0
M  V30 6 C 5.300187 -1.070485 0.845497 0
M  V30 7 C 3.853931 -0.715409 0.742908 0
M  V30 8 C 3.608896 0.722469 0.332484 0
M  V30 9 N 2.151123 0.915716 0.275896 0
M  V30 10 C 1.376791 1.348348 1.386992 0
M  V30 11 O 1.817566 1.619946 2.533147 0
M  V30 12 C -0.049403 1.471366 1.118263 0
M  V30 13 C -1.035307 2.085616 1.694482 0
M  V30 14 C -2.420103 2.028240 1.182110 0
M  V30 15 C -3.444403 2.929987 1.062088 0
M  V30 16 C -4.454764 2.187475 0.498863 0
M  V30 17 C -4.044302 0.903176 0.295409 0
M  V30 18 C -4.810538 -0.197076 -0.277436 0
M  V30 19 C -6.111409 -0.070769 -0.714598 0
M  V30 20 C -6.723473 -1.200719 -1.232492 0
M  V30 21 C -6.103856 -2.444877 -1.335407 0
M  V30 22 C -4.803319 -2.572443 -0.898857 0
M  V30 23 C -4.032586 -3.846318 -0.953409 0
M  V30 24 F -2.941488 -3.797050 -0.095530 0
M  V30 25 F -4.819821 -4.888192 -0.476152 0
M  V30 26 F -3.607453 -4.091214 -2.240862 0
M  V30 27 C -4.193707 -1.447426 -0.383087 0
M  V30 28 O -2.823061 0.872506 0.723053 0
M  V30 29 S -0.290854 0.493486 -0.390691 0
M  V30 30 C 1.434555 0.666055 -0.929713 0
M  V30 31 S 2.052407 0.565782 -2.428878 0
M  V30 32 H 5.069092 -1.812285 5.784814 0
M  V30 33 H 5.246114 -3.920987 2.798097 0
M  V30 34 H 3.830562 -2.899029 2.567549 0
M  V30 35 H 5.034602 -3.152909 0.500163 0
M  V30 36 H 6.593144 -2.722092 1.214896 0
M  V30 37 H 5.754987 -0.953346 -0.164699 0
M  V30 38 H 5.856360 -0.396700 1.525085 0
M  V30 39 H 3.331332 -1.388216 0.057642 0
M  V30 40 H 3.355283 -0.857653 1.737174 0
M  V30 41 H 4.009251 1.371217 1.128854 0
M  V30 42 H 4.052969 0.954230 -0.647033 0
M  V30 43 H -0.783844 2.646258 2.579218 0
M  V30 44 H -3.311803 3.950164 1.387532 0
M  V30 45 H -5.428014 2.640019 0.274523 0
M  V30 46 H -6.608404 0.881315 -0.644542 0
M  V30 47 H -7.756526 -1.130110 -1.587214 0
M  V30 48 H -6.605410 -3.311368 -1.744388 0
M  V30 49 H -3.162983 -1.545784 -0.036432 0
M  V30 END ATOM
M  V30 BEGIN BOND
M  V30 1 2 1 2
M  V30 2 1 2 3
M  V30 3 1 2 4
M  V30 4 1 4 5
M  V30 5 1 5 6
M  V30 6 1 6 7
M  V30 7 1 7 8
M  V30 8 1 8 9
M  V30 9 1 9 10
M  V30 10 2 10 11
M  V30 11 1 10 12
M  V30 12 2 12 13
M  V30 13 1 13 14
M  V30 14 2 14 15
M  V30 15 1 15 16
M  V30 16 2 16 17
M  V30 17 1 17 18
M  V30 18 2 18 19
M  V30 19 1 19 20
M  V30 20 2 20 21
M  V30 21 1 21 22
M  V30 22 1 22 23
M  V30 23 1 23 24
M  V30 24 1 23 25
M  V30 25 1 23 26
M  V30 26 2 22 27
M  V30 27 1 17 28
M  V30 28 1 12 29
M  V30 29 1 29 30
M  V30 30 2 30 31
M  V30 31 1 30 9
M  V30 32 1 28 14
M  V30 33 1 27 18
M  V30 34 1 3 32
M  V30 35 1 4 33
M  V30 36 1 4 34
M  V30 37 1 5 35
M  V30 38 1 5 36
M  V30 39 1 6 37
M  V30 40 1 6 38
M  V30 41 1 7 39
M  V30 42 1 7 40
M  V30 43 1 8 41
M  V30 44 1 8 42
M  V30 45 1 13 43
M  V30 46 1 15 44
M  V30 47 1 16 45
M  V30 48 1 19 46
M  V30 49 1 20 47
M  V30 50 1 21 48
M  V30 51 1 27 49
M  V30 END BOND
M  V30 END CTAB
M  END
>  <Dataset>  (573) 
ChEMBL_Kinases

>  <Ligand_Instance>  (573) 
nan

>  <PDB_ID>  (573) 
nan

>  <Standardized_SMILES>  (573) 
O=C(O)CCCCCN1C(=O)/C(=C/c2ccc(-c3cccc(C(F)(F)F)c3)o2)SC1=S

>  <Name>  (573) 
nan

>  <Pocket>  (573) 
nan

>  <ATP_Site>  (573) 
nan

>  <Peripheral>  (573) 
nan

>  <Num_H_Atoms_ProtBoundConf>  (573) 
nan

>  <Num_Resolved_Atoms>  (573) 
nan

>  <Num_Not_Resolved_Atoms>  (573) 
nan

$$$$
CHEMBL2349218
     RDKit          3D

  0  0  0  0  0  0  0  0  0  0999 V3000
M  V30 BEGIN CTAB
M  V30 COUNTS 45 47 0 0 0
M  V30 BEGIN ATOM
M  V30 1 C 4.091715 0.484954 5.455107 0
M  V30 2 C 3.844638 -0.955853 5.182585 0
M  V30 3 C 4.711773 -1.583264 4.140351 0
M  V30 4 C 4.609975 -0.998223 2.776633 0
M  V30 5 C 5.541128 -1.769192 1.872406 0
M  V30 6 O 6.772658 -1.916626 2.137010 0
M  V30 7 O 5.163634 -2.381394 0.688054 0
M  V30 8 N 3.268903 -0.970229 2.224022 0
M  V30 9 C 2.698446 0.267633 1.748833 0
M  V30 10 O 3.219110 1.421125 1.741403 0
M  V30 11 C 1.350138 0.103901 1.222719 0
M  V30 12 C 0.663412 0.768036 0.366461 0
M  V30 13 C -0.688607 0.521743 -0.097154 0
M  V30 14 C -1.514708 0.268186 1.024170 0
M  V30 15 C -2.800190 0.033985 0.516104 0
M  V30 16 C -2.696344 0.153705 -0.876036 0
M  V30 17 C -3.773394 -0.007428 -1.857445 0
M  V30 18 C -3.374729 0.158692 -3.182830 0
M  V30 19 C -4.444349 -0.014392 -4.074306 0
M  V30 20 C -5.738314 -0.308280 -3.785521 0
M  V30 21 N -6.705312 -0.451258 -4.825617 0 CHG=1 VAL=4
M  V30 22 O -7.874423 -0.716133 -4.419358 0
M  V30 23 O -6.427339 -0.320156 -6.181158 0 CHG=-1 VAL=1
M  V30 24 C -6.030229 -0.453383 -2.444590 0
M  V30 25 C -5.059046 -0.306387 -1.467278 0
M  V30 26 O -1.466655 0.427996 -1.092286 0
M  V30 27 S 0.762304 -1.392972 2.051598 0
M  V30 28 C 2.434252 -2.138559 2.107019 0
M  V30 29 S 3.009439 -3.663332 2.053201 0
M  V30 30 H 3.185671 0.878740 5.964022 0
M  V30 31 H 4.198322 1.090757 4.516671 0
M  V30 32 H 5.021948 0.677350 6.035361 0
M  V30 33 H 2.749651 -1.048604 4.932521 0
M  V30 34 H 3.999261 -1.535375 6.140617 0
M  V30 35 H 5.771362 -1.447447 4.500804 0
M  V30 36 H 4.482145 -2.689606 4.141778 0
M  V30 37 H 5.058604 0.024510 2.793626 0
M  V30 38 H 5.845421 -2.585733 -0.053287 0
M  V30 39 H 1.217237 1.624643 -0.041056 0
M  V30 40 H -1.489352 0.198930 2.123214 0
M  V30 41 H -3.773672 -0.200966 0.973421 0
M  V30 42 H -2.409600 0.390611 -3.566809 0
M  V30 43 H -4.198740 0.103547 -5.139499 0
M  V30 44 H -7.059938 -0.691489 -2.180529 0
M  V30 45 H -5.317370 -0.425767 -0.424810 0
M  V30 END ATOM
M  V30 BEGIN BOND
M  V30 1 1 1 2
M  V30 2 1 2 3
M  V30 3 1 3 4
M  V30 4 1 4 5
M  V30 5 2 5 6
M  V30 6 1 5 7
M  V30 7 1 4 8
M  V30 8 1 8 9
M  V30 9 2 9 10
M  V30 10 1 9 11
M  V30 11 2 11 12
M  V30 12 1 12 13
M  V30 13 2 13 14
M  V30 14 1 14 15
M  V30 15 2 15 16
M  V30 16 1 16 17
M  V30 17 2 17 18
M  V30 18 1 18 19
M  V30 19 2 19 20
M  V30 20 1 20 21
M  V30 21 2 21 22
M  V30 22 1 21 23
M  V30 23 1 20 24
M  V30 24 2 24 25
M  V30 25 1 16 26
M  V30 26 1 11 27
M  V30 27 1 27 28
M  V30 28 2 28 29
M  V30 29 1 28 8
M  V30 30 1 26 13
M  V30 31 1 25 17
M  V30 32 1 1 30
M  V30 33 1 1 31
M  V30 34 1 1 32
M  V30 35 1 2 33
M  V30 36 1 2 34
M  V30 37 1 3 35
M  V30 38 1 3 36
M  V30 39 1 4 37
M  V30 40 1 7 38
M  V30 41 1 12 39
M  V30 42 1 14 40
M  V30 43 1 15 41
M  V30 44 1 18 42
M  V30 45 1 19 43
M  V30 46 1 24 44
M  V30 47 1 25 45
M  V30 END BOND
M  V30 END CTAB
M  END
>  <Dataset>  (574) 
ChEMBL_Kinases

>  <Ligand_Instance>  (574) 
nan

>  <PDB_ID>  (574) 
nan

>  <Standardized_SMILES>  (574) 
CCCC(C(=O)O)N1C(=O)/C(=C/c2ccc(-c3ccc([N+](=O)[O-])cc3)o2)SC1=S

>  <Name>  (574) 
nan

>  <Pocket>  (574) 
nan

>  <ATP_Site>  (574) 
nan

>  <Peripheral>  (574) 
nan

>  <Num_H_Atoms_ProtBoundConf>  (574) 
nan

>  <Num_Resolved_Atoms>  (574) 
nan

>  <Num_Not_Resolved_Atoms>  (574) 
nan

$$$$
CHEMBL2349217
     RDKit          3D

  0  0  0  0  0  0  0  0  0  0999 V3000
M  V30 BEGIN CTAB
M  V30 COUNTS 39 41 0 0 0
M  V30 BEGIN ATOM
M  V30 1 O 2.575898 -7.402237 -0.359022 0
M  V30 2 C 3.011186 -6.701624 0.615822 0
M  V30 3 O 3.754910 -7.668432 1.227308 0
M  V30 4 C 2.596129 -5.282244 0.703246 0
M  V30 5 C 1.672519 -4.967902 -0.483255 0
M  V30 6 N 1.247165 -3.582021 -0.426626 0
M  V30 7 C 1.937635 -2.533605 -1.031696 0
M  V30 8 O 3.002999 -2.636529 -1.697545 0
M  V30 9 C 1.375936 -1.224631 -0.875931 0
M  V30 10 C 1.811169 -0.025930 -1.216963 0
M  V30 11 C 1.024666 1.177332 -0.936358 0
M  V30 12 C 0.884424 2.314412 -1.705055 0
M  V30 13 C 0.036326 3.104737 -0.952712 0
M  V30 14 C -0.302833 2.445244 0.213949 0
M  V30 15 C -1.167413 2.878863 1.311105 0
M  V30 16 C -1.328651 2.003171 2.367236 0
M  V30 17 C -2.123853 2.308741 3.457373 0
M  V30 18 C -2.747377 3.537142 3.431671 0
M  V30 19 N -3.574737 3.894624 4.529592 0 CHG=1 VAL=4
M  V30 20 O -3.745432 3.131389 5.502196 0
M  V30 21 O -4.241326 5.089772 4.605294 0 CHG=-1 VAL=1
M  V30 22 C -2.604056 4.429657 2.391239 0
M  V30 23 C -1.796916 4.106083 1.296659 0
M  V30 24 O 0.319373 1.303395 0.160676 0
M  V30 25 S -0.213624 -1.467227 -0.043727 0
M  V30 26 C 0.062047 -3.229024 0.276977 0
M  V30 27 S -0.896882 -4.172917 1.201288 0
M  V30 28 H 3.381218 -8.345071 1.871821 0
M  V30 29 H 3.513139 -4.668539 0.588643 0
M  V30 30 H 2.085338 -5.112569 1.661588 0
M  V30 31 H 0.836815 -5.666984 -0.420703 0
M  V30 32 H 2.247626 -5.150599 -1.411086 0
M  V30 33 H 2.765967 0.025224 -1.708346 0
M  V30 34 H 1.349347 2.500170 -2.666411 0
M  V30 35 H -0.311174 4.093866 -1.234815 0
M  V30 36 H -0.841968 1.032567 2.397976 0
M  V30 37 H -2.272366 1.652551 4.296513 0
M  V30 38 H -3.086255 5.408223 2.345723 0
M  V30 39 H -1.650006 4.760117 0.462467 0
M  V30 END ATOM
M  V30 BEGIN BOND
M  V30 1 2 1 2
M  V30 2 1 2 3
M  V30 3 1 2 4
M  V30 4 1 4 5
M  V30 5 1 5 6
M  V30 6 1 6 7
M  V30 7 2 7 8
M  V30 8 1 7 9
M  V30 9 2 9 10
M  V30 10 1 10 11
M  V30 11 2 11 12
M  V30 12 1 12 13
M  V30 13 2 13 14
M  V30 14 1 14 15
M  V30 15 2 15 16
M  V30 16 1 16 17
M  V30 17 2 17 18
M  V30 18 1 18 19
M  V30 19 2 19 20
M  V30 20 1 19 21
M  V30 21 1 18 22
M  V30 22 2 22 23
M  V30 23 1 14 24
M  V30 24 1 9 25
M  V30 25 1 25 26
M  V30 26 2 26 27
M  V30 27 1 26 6
M  V30 28 1 24 11
M  V30 29 1 23 15
M  V30 30 1 3 28
M  V30 31 1 4 29
M  V30 32 1 4 30
M  V30 33 1 5 31
M  V30 34 1 5 32
M  V30 35 1 10 33
M  V30 36 1 12 34
M  V30 37 1 13 35
M  V30 38 1 16 36
M  V30 39 1 17 37
M  V30 40 1 22 38
M  V30 41 1 23 39
M  V30 END BOND
M  V30 END CTAB
M  END
>  <Dataset>  (575) 
ChEMBL_Kinases

>  <Ligand_Instance>  (575) 
nan

>  <PDB_ID>  (575) 
nan

>  <Standardized_SMILES>  (575) 
O=C(O)CCN1C(=O)/C(=C/c2ccc(-c3ccc([N+](=O)[O-])cc3)o2)SC1=S

>  <Name>  (575) 
nan

>  <Pocket>  (575) 
nan

>  <ATP_Site>  (575) 
nan

>  <Peripheral>  (575) 
nan

>  <Num_H_Atoms_ProtBoundConf>  (575) 
nan

>  <Num_Resolved_Atoms>  (575) 
nan

>  <Num_Not_Resolved_Atoms>  (575) 
nan

$$$$
CHEMBL2349216
     RDKit          3D

  0  0  0  0  0  0  0  0  0  0999 V3000
M  V30 BEGIN CTAB
M  V30 COUNTS 46 48 0 0 0
M  V30 BEGIN ATOM
M  V30 1 C 1.985078 -4.483180 6.491071 0
M  V30 2 C 1.239304 -3.175947 6.592384 0
M  V30 3 C 1.609977 -2.337692 5.399927 0
M  V30 4 C 2.680886 -1.469444 5.416172 0
M  V30 5 C 3.016087 -0.699691 4.300567 0
M  V30 6 C 2.268992 -0.797367 3.145995 0
M  V30 7 C 2.557744 -0.025982 1.939011 0
M  V30 8 C 3.604859 0.871354 1.829711 0
M  V30 9 C 3.466513 1.340056 0.523556 0
M  V30 10 C 2.372331 0.721162 -0.078443 0
M  V30 11 C 1.820021 0.871317 -1.423801 0
M  V30 12 C 0.511758 0.785047 -1.552966 0
M  V30 13 S -0.561761 0.491663 -0.120066 0
M  V30 14 C -1.834707 -0.342700 -1.114288 0
M  V30 15 S -2.889997 -1.474121 -0.663460 0
M  V30 16 N -1.664225 0.261929 -2.415788 0
M  V30 17 C -2.768775 0.215532 -3.383683 0
M  V30 18 C -3.236398 1.629329 -3.703095 0
M  V30 19 C -3.707078 2.311691 -2.473260 0
M  V30 20 O -2.905635 2.760215 -1.646016 0
M  V30 21 O -5.097403 2.427277 -2.287689 0
M  V30 22 C -2.406010 -0.513917 -4.615661 0
M  V30 23 O -1.211744 -0.796626 -4.319399 0
M  V30 24 O -2.017759 -1.204857 -5.749731 0
M  V30 25 C -0.413584 0.871247 -2.668902 0
M  V30 26 O -0.043906 1.453107 -3.718117 0
M  V30 27 O 1.862840 -0.099193 0.837682 0
M  V30 28 C 1.212670 -1.683117 3.195608 0
M  V30 29 C 0.835557 -2.467212 4.266033 0
M  V30 30 H 2.024769 -5.002271 7.469173 0
M  V30 31 H 1.487591 -5.173078 5.779561 0
M  V30 32 H 3.042745 -4.274022 6.192782 0
M  V30 33 H 0.139752 -3.389872 6.585446 0
M  V30 34 H 1.451366 -2.668621 7.536350 0
M  V30 35 H 3.270552 -1.396173 6.338152 0
M  V30 36 H 3.853248 -0.017344 4.305549 0
M  V30 37 H 4.344823 1.142288 2.568331 0
M  V30 38 H 4.092560 2.064491 0.034538 0
M  V30 39 H 2.368327 1.047349 -2.337460 0
M  V30 40 H -3.660347 -0.304701 -2.982735 0
M  V30 41 H -2.420260 2.223828 -4.201509 0
M  V30 42 H -4.051434 1.532399 -4.449307 0
M  V30 43 H -5.487944 2.750927 -1.419913 0
M  V30 44 H -2.423712 -2.104626 -6.002335 0
M  V30 45 H 0.599704 -1.783345 2.294330 0
M  V30 46 H -0.029079 -3.133575 4.173596 0
M  V30 END ATOM
M  V30 BEGIN BOND
M  V30 1 1 1 2
M  V30 2 1 2 3
M  V30 3 2 3 4
M  V30 4 1 4 5
M  V30 5 2 5 6
M  V30 6 1 6 7
M  V30 7 2 7 8
M  V30 8 1 8 9
M  V30 9 2 9 10
M  V30 10 1 10 11
M  V30 11 2 11 12
M  V30 12 1 12 13
M  V30 13 1 13 14
M  V30 14 2 14 15
M  V30 15 1 14 16
M  V30 16 1 16 17
M  V30 17 1 17 18
M  V30 18 1 18 19
M  V30 19 2 19 20
M  V30 20 1 19 21
M  V30 21 1 17 22
M  V30 22 2 22 23
M  V30 23 1 22 24
M  V30 24 1 16 25
M  V30 25 2 25 26
M  V30 26 1 10 27
M  V30 27 1 6 28
M  V30 28 2 28 29
M  V30 29 1 29 3
M  V30 30 1 27 7
M  V30 31 1 25 12
M  V30 32 1 1 30
M  V30 33 1 1 31
M  V30 34 1 1 32
M  V30 35 1 2 33
M  V30 36 1 2 34
M  V30 37 1 4 35
M  V30 38 1 5 36
M  V30 39 1 8 37
M  V30 40 1 9 38
M  V30 41 1 11 39
M  V30 42 1 17 40
M  V30 43 1 18 41
M  V30 44 1 18 42
M  V30 45 1 21 43
M  V30 46 1 24 44
M  V30 47 1 28 45
M  V30 48 1 29 46
M  V30 END BOND
M  V30 END CTAB
M  END
>  <Dataset>  (576) 
ChEMBL_Kinases

>  <Ligand_Instance>  (576) 
nan

>  <PDB_ID>  (576) 
nan

>  <Standardized_SMILES>  (576) 
CCc1ccc(-c2ccc(/C=C3\SC(=S)N(C(CC(=O)O)C(=O)O)C3=O)o2)cc1

>  <Name>  (576) 
nan

>  <Pocket>  (576) 
nan

>  <ATP_Site>  (576) 
nan

>  <Peripheral>  (576) 
nan

>  <Num_H_Atoms_ProtBoundConf>  (576) 
nan

>  <Num_Resolved_Atoms>  (576) 
nan

>  <Num_Not_Resolved_Atoms>  (576) 
nan

$$$$
CHEMBL2349215
     RDKit          3D

  0  0  0  0  0  0  0  0  0  0999 V3000
M  V30 BEGIN CTAB
M  V30 COUNTS 51 53 0 0 0
M  V30 BEGIN ATOM
M  V30 1 C 8.156380 -4.613751 1.273631 0
M  V30 2 C 6.821953 -5.039095 1.846622 0
M  V30 3 O 5.930268 -3.948919 1.711839 0
M  V30 4 C 6.067810 -2.715814 2.277305 0
M  V30 5 O 7.054896 -2.445200 3.006345 0
M  V30 6 C 5.045331 -1.677597 2.033490 0
M  V30 7 C 5.150780 -0.435651 2.585647 0
M  V30 8 C 4.197099 0.564357 2.365352 0
M  V30 9 C 3.111235 0.285766 1.561879 0
M  V30 10 C 2.065177 1.271002 1.273395 0
M  V30 11 C 2.020360 2.566687 1.746189 0
M  V30 12 C 0.868192 3.175130 1.243420 0
M  V30 13 C 0.275016 2.181570 0.478858 0
M  V30 14 C -0.979379 2.444867 -0.223246 0
M  V30 15 C -1.875893 1.485989 -0.304038 0
M  V30 16 S -1.794137 -0.209451 0.357692 0
M  V30 17 C -3.591990 -0.270475 0.616197 0
M  V30 18 S -4.350356 -1.079712 1.832687 0
M  V30 19 N -4.132794 0.541501 -0.450525 0
M  V30 20 C -5.494883 0.394978 -0.922756 0
M  V30 21 C -5.709856 -0.874795 -1.681340 0
M  V30 22 C -5.444807 -2.118740 -0.967025 0
M  V30 23 O -4.287417 -2.633782 -1.064819 0
M  V30 24 O -6.435945 -2.737883 -0.190378 0
M  V30 25 C -6.477322 0.693661 0.117611 0
M  V30 26 C -7.931539 0.569305 -0.154990 0
M  V30 27 O -6.113539 1.051079 1.230872 0
M  V30 28 C -3.193291 1.484586 -0.935141 0
M  V30 29 O -3.374164 2.343011 -1.872773 0
M  V30 30 O 1.005437 1.092886 0.525622 0
M  V30 31 C 3.009870 -0.973179 1.006148 0
M  V30 32 C 3.964378 -1.967851 1.228812 0
M  V30 33 H 9.011245 -5.115984 1.781557 0
M  V30 34 H 8.129752 -4.910773 0.180874 0
M  V30 35 H 8.221133 -3.511774 1.326547 0
M  V30 36 H 6.465632 -5.923502 1.295546 0
M  V30 37 H 6.943553 -5.265117 2.933440 0
M  V30 38 H 6.015661 -0.215857 3.225559 0
M  V30 39 H 4.296839 1.554754 2.815716 0
M  V30 40 H 2.776028 2.995639 2.396272 0
M  V30 41 H 0.645437 4.191851 1.494296 0
M  V30 42 H -1.197598 3.410675 -0.683427 0
M  V30 43 H -5.599391 1.219669 -1.703395 0
M  V30 44 H -6.733078 -0.835239 -2.115353 0
M  V30 45 H -5.035190 -0.832420 -2.583260 0
M  V30 46 H -6.325493 -3.681062 0.153969 0
M  V30 47 H -8.364527 1.557530 -0.472521 0
M  V30 48 H -8.414201 0.280477 0.824354 0
M  V30 49 H -8.206079 -0.226896 -0.847915 0
M  V30 50 H 2.173568 -1.261730 0.358001 0
M  V30 51 H 3.887542 -2.961431 0.791819 0
M  V30 END ATOM
M  V30 BEGIN BOND
M  V30 1 1 1 2
M  V30 2 1 2 3
M  V30 3 1 3 4
M  V30 4 2 4 5
M  V30 5 1 4 6
M  V30 6 2 6 7
M  V30 7 1 7 8
M  V30 8 2 8 9
M  V30 9 1 9 10
M  V30 10 2 10 11
M  V30 11 1 11 12
M  V30 12 2 12 13
M  V30 13 1 13 14
M  V30 14 2 14 15
M  V30 15 1 15 16
M  V30 16 1 16 17
M  V30 17 2 17 18
M  V30 18 1 17 19
M  V30 19 1 19 20
M  V30 20 1 20 21
M  V30 21 1 21 22
M  V30 22 2 22 23
M  V30 23 1 22 24
M  V30 24 1 20 25
M  V30 25 1 25 26
M  V30 26 2 25 27
M  V30 27 1 19 28
M  V30 28 2 28 29
M  V30 29 1 13 30
M  V30 30 1 9 31
M  V30 31 2 31 32
M  V30 32 1 32 6
M  V30 33 1 30 10
M  V30 34 1 28 15
M  V30 35 1 1 33
M  V30 36 1 1 34
M  V30 37 1 1 35
M  V30 38 1 2 36
M  V30 39 1 2 37
M  V30 40 1 7 38
M  V30 41 1 8 39
M  V30 42 1 11 40
M  V30 43 1 12 41
M  V30 44 1 14 42
M  V30 45 1 20 43
M  V30 46 1 21 44
M  V30 47 1 21 45
M  V30 48 1 24 46
M  V30 49 1 26 47
M  V30 50 1 26 48
M  V30 51 1 26 49
M  V30 52 1 31 50
M  V30 53 1 32 51
M  V30 END BOND
M  V30 END CTAB
M  END
>  <Dataset>  (577) 
ChEMBL_Kinases

>  <Ligand_Instance>  (577) 
nan

>  <PDB_ID>  (577) 
nan

>  <Standardized_SMILES>  (577) 
CCOC(=O)c1ccc(-c2ccc(/C=C3\SC(=S)N(C(CC(=O)O)C(C)=O)C3=O)o2)cc1

>  <Name>  (577) 
nan

>  <Pocket>  (577) 
nan

>  <ATP_Site>  (577) 
nan

>  <Peripheral>  (577) 
nan

>  <Num_H_Atoms_ProtBoundConf>  (577) 
nan

>  <Num_Resolved_Atoms>  (577) 
nan

>  <Num_Not_Resolved_Atoms>  (577) 
nan

$$$$
CHEMBL2349214
     RDKit          3D

  0  0  0  0  0  0  0  0  0  0999 V3000
M  V30 BEGIN CTAB
M  V30 COUNTS 40 42 0 0 0
M  V30 BEGIN ATOM
M  V30 1 C 3.802111 -7.044419 1.205737 0
M  V30 2 O 2.859504 -6.026233 1.470913 0
M  V30 3 C 2.708970 -4.891770 0.726667 0
M  V30 4 C 1.699979 -4.092591 1.243470 0
M  V30 5 C 1.353345 -2.870057 0.654061 0
M  V30 6 C 2.039653 -2.458230 -0.470601 0
M  V30 7 C 1.702009 -1.188452 -1.112168 0
M  V30 8 C 2.298528 -0.650892 -2.230150 0
M  V30 9 C 1.672069 0.530466 -2.469363 0
M  V30 10 C 0.706353 0.693541 -1.496171 0
M  V30 11 C -0.278765 1.741654 -1.217626 0
M  V30 12 C -0.601897 2.099077 0.001802 0
M  V30 13 S 0.184231 1.281745 1.411733 0
M  V30 14 C -0.763212 2.207071 2.645312 0
M  V30 15 S -0.679416 2.023203 4.264405 0
M  V30 16 N -1.591450 3.123076 1.937991 0
M  V30 17 C -2.477882 4.069482 2.636720 0
M  V30 18 C -3.810359 3.464840 2.855322 0
M  V30 19 C -5.200268 3.388593 3.308951 0
M  V30 20 O -3.218901 2.574539 2.286596 0
M  V30 21 C -1.507063 3.066566 0.544039 0
M  V30 22 O -2.140461 3.773403 -0.281462 0
M  V30 23 O 0.755823 -0.350880 -0.707491 0
M  V30 24 C 3.045759 -3.237998 -0.999758 0
M  V30 25 C 3.363619 -4.435757 -0.397053 0
M  V30 26 H 3.337529 -8.056671 1.396100 0
M  V30 27 H 4.127895 -6.953287 0.153287 0
M  V30 28 H 4.644857 -6.952998 1.931730 0
M  V30 29 H 1.076357 -4.296892 2.127217 0
M  V30 30 H 0.574773 -2.218372 1.025018 0
M  V30 31 H 3.107736 -1.052374 -2.830820 0
M  V30 32 H 1.804215 1.289907 -3.235842 0
M  V30 33 H -0.783537 2.267366 -2.025110 0
M  V30 34 H -2.534370 5.013184 2.059890 0
M  V30 35 H -2.070294 4.332891 3.614623 0
M  V30 36 H -5.436341 2.320833 3.483713 0
M  V30 37 H -5.390070 3.960650 4.245091 0
M  V30 38 H -5.926327 3.788720 2.560237 0
M  V30 39 H 3.611932 -2.956134 -1.880869 0
M  V30 40 H 4.136846 -5.125243 -0.730314 0
M  V30 END ATOM
M  V30 BEGIN BOND
M  V30 1 1 1 2
M  V30 2 1 2 3
M  V30 3 2 3 4
M  V30 4 1 4 5
M  V30 5 2 5 6
M  V30 6 1 6 7
M  V30 7 2 7 8
M  V30 8 1 8 9
M  V30 9 2 9 10
M  V30 10 1 10 11
M  V30 11 2 11 12
M  V30 12 1 12 13
M  V30 13 1 13 14
M  V30 14 2 14 15
M  V30 15 1 14 16
M  V30 16 1 16 17
M  V30 17 1 17 18
M  V30 18 1 18 19
M  V30 19 2 18 20
M  V30 20 1 16 21
M  V30 21 2 21 22
M  V30 22 1 10 23
M  V30 23 1 6 24
M  V30 24 2 24 25
M  V30 25 1 25 3
M  V30 26 1 23 7
M  V30 27 1 21 12
M  V30 28 1 1 26
M  V30 29 1 1 27
M  V30 30 1 1 28
M  V30 31 1 4 29
M  V30 32 1 5 30
M  V30 33 1 8 31
M  V30 34 1 9 32
M  V30 35 1 11 33
M  V30 36 1 17 34
M  V30 37 1 17 35
M  V30 38 1 19 36
M  V30 39 1 19 37
M  V30 40 1 19 38
M  V30 41 1 24 39
M  V30 42 1 25 40
M  V30 END BOND
M  V30 END CTAB
M  END
>  <Dataset>  (578) 
ChEMBL_Kinases

>  <Ligand_Instance>  (578) 
nan

>  <PDB_ID>  (578) 
nan

>  <Standardized_SMILES>  (578) 
COc1ccc(-c2ccc(/C=C3\SC(=S)N(CC(C)=O)C3=O)o2)cc1

>  <Name>  (578) 
nan

>  <Pocket>  (578) 
nan

>  <ATP_Site>  (578) 
nan

>  <Peripheral>  (578) 
nan

>  <Num_H_Atoms_ProtBoundConf>  (578) 
nan

>  <Num_Resolved_Atoms>  (578) 
nan

>  <Num_Not_Resolved_Atoms>  (578) 
nan

$$$$
CHEMBL237127
     RDKit          3D

  0  0  0  0  0  0  0  0  0  0999 V3000
M  V30 BEGIN CTAB
M  V30 COUNTS 41 44 0 0 0
M  V30 BEGIN ATOM
M  V30 1 C 0.551493 -3.556123 2.245338 0
M  V30 2 C 0.772401 -4.195542 0.943425 0
M  V30 3 C 0.996776 -5.539885 0.945294 0
M  V30 4 C 1.209611 -6.229593 -0.206948 0
M  V30 5 C 1.224814 -5.694819 -1.458936 0
M  V30 6 O 1.432764 -6.337869 -2.662786 0
M  V30 7 C 0.989499 -4.321232 -1.394946 0
M  V30 8 C 0.758964 -3.523666 -0.238335 0
M  V30 9 N 0.583483 -2.206147 -0.554283 0
M  V30 10 C 0.565320 -0.846044 -0.767320 0
M  V30 11 C 0.829206 -0.488329 -2.124778 0
M  V30 12 C 0.890315 0.786439 -2.693079 0
M  V30 13 N 0.658705 1.716283 -1.773189 0
M  V30 14 C 0.401167 1.502243 -0.482867 0
M  V30 15 C 0.163396 2.582630 0.355694 0
M  V30 16 C -0.124434 2.437561 1.696427 0
M  V30 17 C -0.387577 3.578545 2.565547 0
M  V30 18 C -0.366583 4.915746 1.998623 0
M  V30 19 S -0.771385 5.911483 3.489383 0
M  V30 20 C -0.893100 4.347031 4.601444 0
M  V30 21 C -1.184648 4.770461 5.977326 0
M  V30 22 O -1.326667 5.974728 6.388348 0
M  V30 23 N -0.658445 3.466629 3.840760 0
M  V30 24 C -0.154273 1.130636 2.128032 0
M  V30 25 C 0.074758 0.042141 1.329832 0
M  V30 26 C 0.355569 0.238186 0.010700 0
M  V30 27 H 1.287729 -2.761437 2.471299 0
M  V30 28 H -0.482871 -3.107678 2.330465 0
M  V30 29 H 0.569053 -4.300394 3.081398 0
M  V30 30 H 1.009640 -6.107716 1.876853 0
M  V30 31 H 1.381081 -7.295025 -0.147025 0
M  V30 32 H 2.095728 -5.965736 -3.359059 0
M  V30 33 H 0.994030 -3.851875 -2.401792 0
M  V30 34 H -0.400709 -2.320851 -0.997002 0
M  V30 35 H 1.013816 -1.289275 -2.868511 0
M  V30 36 H 1.097734 0.927352 -3.724507 0
M  V30 37 H 0.216147 3.552340 -0.097605 0
M  V30 38 H -0.169191 5.210760 0.996681 0
M  V30 39 H -1.315138 5.753027 6.384931 0
M  V30 40 H -0.375551 0.949831 3.178289 0
M  V30 41 H 0.040210 -0.950863 1.671961 0
M  V30 END ATOM
M  V30 BEGIN BOND
M  V30 1 1 1 2
M  V30 2 2 2 3
M  V30 3 1 3 4
M  V30 4 2 4 5
M  V30 5 1 5 6
M  V30 6 1 5 7
M  V30 7 2 7 8
M  V30 8 1 8 9
M  V30 9 1 9 10
M  V30 10 2 10 11
M  V30 11 1 11 12
M  V30 12 2 12 13
M  V30 13 1 13 14
M  V30 14 2 14 15
M  V30 15 1 15 16
M  V30 16 1 16 17
M  V30 17 2 17 18
M  V30 18 1 18 19
M  V30 19 1 19 20
M  V30 20 1 20 21
M  V30 21 2 21 22
M  V30 22 2 20 23
M  V30 23 2 16 24
M  V30 24 1 24 25
M  V30 25 2 25 26
M  V30 26 1 8 2
M  V30 27 1 26 10
M  V30 28 1 26 14
M  V30 29 1 23 17
M  V30 30 1 1 27
M  V30 31 1 1 28
M  V30 32 1 1 29
M  V30 33 1 3 30
M  V30 34 1 4 31
M  V30 35 1 6 32
M  V30 36 1 7 33
M  V30 37 1 9 34
M  V30 38 1 11 35
M  V30 39 1 12 36
M  V30 40 1 15 37
M  V30 41 1 18 38
M  V30 42 1 21 39
M  V30 43 1 24 40
M  V30 44 1 25 41
M  V30 END BOND
M  V30 END CTAB
M  END
>  <Dataset>  (579) 
ChEMBL_Kinases

>  <Ligand_Instance>  (579) 
nan

>  <PDB_ID>  (579) 
nan

>  <Standardized_SMILES>  (579) 
Cc1ccc(O)cc1Nc1ccnc2cc(-c3csc(C=O)n3)ccc12

>  <Name>  (579) 
nan

>  <Pocket>  (579) 
nan

>  <ATP_Site>  (579) 
nan

>  <Peripheral>  (579) 
nan

>  <Num_H_Atoms_ProtBoundConf>  (579) 
nan

>  <Num_Resolved_Atoms>  (579) 
nan

>  <Num_Not_Resolved_Atoms>  (579) 
nan

$$$$
CHEMBL2376096
     RDKit          3D

  0  0  0  0  0  0  0  0  0  0999 V3000
M  V30 BEGIN CTAB
M  V30 COUNTS 57 60 0 0 0
M  V30 BEGIN ATOM
M  V30 1 C 3.051130 -6.081854 4.909942 0
M  V30 2 O 3.507149 -4.751856 4.716095 0
M  V30 3 C 3.023841 -3.908547 3.721446 0
M  V30 4 C 3.600754 -2.653940 3.704191 0
M  V30 5 C 3.177212 -1.734396 2.736382 0
M  V30 6 C 2.188209 -2.170104 1.852363 0
M  V30 7 C 1.785192 -1.152506 0.855497 0
M  V30 8 C 2.756018 -0.420096 0.201866 0
M  V30 9 C 2.292387 0.520098 -0.723794 0
M  V30 10 C 3.179839 1.305453 -1.432458 0
M  V30 11 C 4.652946 1.136079 -1.195312 0
M  V30 12 N 2.693656 2.199454 -2.314942 0
M  V30 13 C 1.375246 2.366241 -2.541756 0
M  V30 14 N 0.970118 3.340497 -3.497152 0
M  V30 15 N 0.528120 1.586751 -1.836676 0
M  V30 16 C 0.940511 0.681711 -0.947336 0
M  V30 17 N 0.014271 -0.045391 -0.296540 0
M  V30 18 C -1.417771 0.081691 -0.490996 0 CFG=1
M  V30 19 C -2.042367 0.917712 0.593563 0
M  V30 20 C -3.449572 1.261760 0.233933 0
M  V30 21 C -4.034825 0.288209 -0.757236 0 CFG=2
M  V30 22 O -4.121332 -0.964060 -0.126955 0
M  V30 23 C -5.475993 -1.348825 -0.008554 0
M  V30 24 C -5.508911 -2.681779 0.665686 0
M  V30 25 O -6.589050 -3.278330 0.907066 0
M  V30 26 O -4.581944 -3.581046 1.174340 0
M  V30 27 C -3.279656 0.230370 -2.051487 0
M  V30 28 C -1.820065 0.626675 -1.818682 0
M  V30 29 C 0.458856 -0.961980 0.605505 0
M  V30 30 O -0.386986 -1.654763 1.227443 0
M  V30 31 C 1.627108 -3.430800 1.890705 0
M  V30 32 N 2.065642 -4.300739 2.849009 0
M  V30 33 H 3.747913 -6.827636 4.498282 0
M  V30 34 H 2.093942 -6.184811 4.367254 0
M  V30 35 H 2.861846 -6.332455 5.965165 0
M  V30 36 H 4.367912 -2.347846 4.406892 0
M  V30 37 H 3.599964 -0.740535 2.684048 0
M  V30 38 H 3.812451 -0.557035 0.386775 0
M  V30 39 H 5.196978 1.948460 -1.724915 0
M  V30 40 H 5.021675 0.177243 -1.563789 0
M  V30 41 H 4.875670 1.301077 -0.111122 0
M  V30 42 H 0.405573 4.221710 -3.416219 0
M  V30 43 H 0.399744 4.218190 -3.377976 0
M  V30 44 H -1.802549 -0.978238 -0.461517 0
M  V30 45 H -1.447044 1.861593 0.660106 0
M  V30 46 H -1.973446 0.435385 1.592974 0
M  V30 47 H -4.077017 1.152850 1.163353 0
M  V30 48 H -3.580852 2.316430 -0.074990 0
M  V30 49 H -5.082512 0.596930 -0.973186 0
M  V30 50 H -5.983321 -0.598126 0.663674 0
M  V30 51 H -5.981136 -1.376638 -0.997485 0
M  V30 52 H -4.399537 -4.493996 0.730675 0
M  V30 53 H -3.270503 -0.835388 -2.371809 0
M  V30 54 H -3.704208 0.885779 -2.829697 0
M  V30 55 H -1.846726 1.744088 -1.860593 0
M  V30 56 H -1.212993 0.175688 -2.637904 0
M  V30 57 H 0.860457 -3.698156 1.167938 0
M  V30 END ATOM
M  V30 BEGIN BOND
M  V30 1 1 1 2
M  V30 2 1 2 3
M  V30 3 2 3 4
M  V30 4 1 4 5
M  V30 5 2 5 6
M  V30 6 1 6 7
M  V30 7 2 7 8
M  V30 8 1 8 9
M  V30 9 2 9 10
M  V30 10 1 10 11
M  V30 11 1 10 12
M  V30 12 2 12 13
M  V30 13 1 13 14
M  V30 14 1 13 15
M  V30 15 2 15 16
M  V30 16 1 16 17
M  V30 17 1 17 18
M  V30 18 1 18 19
M  V30 19 1 19 20
M  V30 20 1 20 21
M  V30 21 1 21 22
M  V30 22 1 22 23
M  V30 23 1 23 24
M  V30 24 2 24 25
M  V30 25 1 24 26
M  V30 26 1 21 27
M  V30 27 1 27 28
M  V30 28 1 17 29
M  V30 29 2 29 30
M  V30 30 1 6 31
M  V30 31 2 31 32
M  V30 32 1 32 3
M  V30 33 1 29 7
M  V30 34 1 16 9
M  V30 35 1 28 18
M  V30 36 1 1 33
M  V30 37 1 1 34
M  V30 38 1 1 35
M  V30 39 1 4 36
M  V30 40 1 5 37
M  V30 41 1 8 38
M  V30 42 1 11 39
M  V30 43 1 11 40
M  V30 44 1 11 41
M  V30 45 1 14 42
M  V30 46 1 14 43
M  V30 47 1 18 44 CFG=3
M  V30 48 1 19 45
M  V30 49 1 19 46
M  V30 50 1 20 47
M  V30 51 1 20 48
M  V30 52 1 21 49 CFG=3
M  V30 53 1 23 50
M  V30 54 1 23 51
M  V30 55 1 26 52
M  V30 56 1 27 53
M  V30 57 1 27 54
M  V30 58 1 28 55
M  V30 59 1 28 56
M  V30 60 1 31 57
M  V30 END BOND
M  V30 END CTAB
M  END
>  <Dataset>  (580) 
ChEMBL_Kinases

>  <Ligand_Instance>  (580) 
nan

>  <PDB_ID>  (580) 
nan

>  <Standardized_SMILES>  (580) 
COc1ccc(-c2cc3c(C)nc(N)nc3n([C@H]3CC[C@H](OCC(=O)O)CC3)c2=O)cn1

>  <Name>  (580) 
nan

>  <Pocket>  (580) 
nan

>  <ATP_Site>  (580) 
nan

>  <Peripheral>  (580) 
nan

>  <Num_H_Atoms_ProtBoundConf>  (580) 
nan

>  <Num_Resolved_Atoms>  (580) 
nan

>  <Num_Not_Resolved_Atoms>  (580) 
nan

$$$$
CHEMBL2376095
     RDKit          3D

  0  0  0  0  0  0  0  0  0  0999 V3000
M  V30 BEGIN CTAB
M  V30 COUNTS 55 58 0 0 0
M  V30 BEGIN ATOM
M  V30 1 C 0.153436 -1.784862 8.120602 0
M  V30 2 O 1.275486 -1.307431 7.369424 0
M  V30 3 C 1.085394 -0.976846 6.019763 0
M  V30 4 C 2.231011 -0.520686 5.365173 0
M  V30 5 C 2.083714 -0.179327 4.013567 0
M  V30 6 C 0.839719 -0.309636 3.414164 0
M  V30 7 C 0.707837 0.052116 2.002658 0
M  V30 8 C 1.333319 1.256565 1.678321 0
M  V30 9 C 1.261778 1.682996 0.359458 0
M  V30 10 C 1.845340 2.845468 -0.036304 0
M  V30 11 C 2.567653 3.673040 0.943102 0
M  V30 12 N 1.739541 3.205457 -1.336307 0
M  V30 13 C 1.076228 2.435123 -2.210770 0
M  V30 14 N 1.000821 2.871607 -3.569776 0
M  V30 15 N 0.510625 1.290150 -1.783247 0
M  V30 16 C 0.578991 0.885728 -0.530281 0
M  V30 17 N -0.027264 -0.278513 -0.223571 0
M  V30 18 C -0.739799 -1.128012 -1.109996 0 CFG=1
M  V30 19 C -2.206446 -1.165337 -0.708791 0
M  V30 20 C -2.733843 -2.494396 -1.192845 0
M  V30 21 C -1.968365 -3.020579 -2.377001 0 CFG=1
M  V30 22 O -2.882821 -3.761155 -3.126281 0
M  V30 23 C -2.456915 -5.106566 -3.188260 0
M  V30 24 O -1.200887 -5.189775 -3.789038 0
M  V30 25 C -1.429578 -1.953997 -3.273130 0
M  V30 26 C -0.695409 -0.838803 -2.556689 0
M  V30 27 C 0.040005 -0.696677 1.057851 0
M  V30 28 O -0.457827 -1.759406 1.566150 0
M  V30 29 C -0.274870 -0.767727 4.102292 0
M  V30 30 N -0.110730 -1.093501 5.412414 0
M  V30 31 H 0.461853 -2.621342 8.783699 0
M  V30 32 H -0.622932 -2.199445 7.424235 0
M  V30 33 H -0.357280 -0.977425 8.674360 0
M  V30 34 H 3.188263 -0.437273 5.886983 0
M  V30 35 H 2.927878 0.177656 3.456368 0
M  V30 36 H 1.867559 1.871113 2.396804 0
M  V30 37 H 1.959142 3.897344 1.840885 0
M  V30 38 H 2.937309 4.627758 0.506043 0
M  V30 39 H 3.479465 3.115559 1.269834 0
M  V30 40 H 0.416165 3.748280 -3.706469 0
M  V30 41 H 1.410935 2.497271 -4.471871 0
M  V30 42 H -0.349201 -2.170824 -0.937612 0
M  V30 43 H -2.685814 -0.311393 -1.254761 0
M  V30 44 H -2.317226 -0.999416 0.363160 0
M  V30 45 H -3.809751 -2.391345 -1.338356 0
M  V30 46 H -2.565910 -3.221698 -0.353364 0
M  V30 47 H -1.174291 -3.734051 -2.056213 0
M  V30 48 H -2.410044 -5.580446 -2.190579 0
M  V30 49 H -3.137094 -5.691393 -3.827349 0
M  V30 50 H -1.242704 -4.801507 -4.707043 0
M  V30 51 H -0.733198 -2.468444 -3.989690 0
M  V30 52 H -2.265968 -1.606468 -3.906423 0
M  V30 53 H -1.274440 0.091876 -2.804011 0
M  V30 54 H 0.335758 -0.755797 -2.986310 0
M  V30 55 H -1.239536 -0.864546 3.622273 0
M  V30 END ATOM
M  V30 BEGIN BOND
M  V30 1 1 1 2
M  V30 2 1 2 3
M  V30 3 2 3 4
M  V30 4 1 4 5
M  V30 5 2 5 6
M  V30 6 1 6 7
M  V30 7 2 7 8
M  V30 8 1 8 9
M  V30 9 2 9 10
M  V30 10 1 10 11
M  V30 11 1 10 12
M  V30 12 2 12 13
M  V30 13 1 13 14
M  V30 14 1 13 15
M  V30 15 2 15 16
M  V30 16 1 16 17
M  V30 17 1 17 18
M  V30 18 1 18 19
M  V30 19 1 19 20
M  V30 20 1 20 21
M  V30 21 1 21 22
M  V30 22 1 22 23
M  V30 23 1 23 24
M  V30 24 1 21 25
M  V30 25 1 25 26
M  V30 26 1 17 27
M  V30 27 2 27 28
M  V30 28 1 6 29
M  V30 29 2 29 30
M  V30 30 1 30 3
M  V30 31 1 27 7
M  V30 32 1 16 9
M  V30 33 1 26 18
M  V30 34 1 1 31
M  V30 35 1 1 32
M  V30 36 1 1 33
M  V30 37 1 4 34
M  V30 38 1 5 35
M  V30 39 1 8 36
M  V30 40 1 11 37
M  V30 41 1 11 38
M  V30 42 1 11 39
M  V30 43 1 14 40
M  V30 44 1 14 41
M  V30 45 1 18 42 CFG=3
M  V30 46 1 19 43
M  V30 47 1 19 44
M  V30 48 1 20 45
M  V30 49 1 20 46
M  V30 50 1 21 47 CFG=1
M  V30 51 1 23 48
M  V30 52 1 23 49
M  V30 53 1 24 50
M  V30 54 1 25 51
M  V30 55 1 25 52
M  V30 56 1 26 53
M  V30 57 1 26 54
M  V30 58 1 29 55
M  V30 END BOND
M  V30 END CTAB
M  END
>  <Dataset>  (581) 
ChEMBL_Kinases

>  <Ligand_Instance>  (581) 
nan

>  <PDB_ID>  (581) 
nan

>  <Standardized_SMILES>  (581) 
COc1ccc(-c2cc3c(C)nc(N)nc3n([C@H]3CC[C@@H](OCO)CC3)c2=O)cn1

>  <Name>  (581) 
nan

>  <Pocket>  (581) 
nan

>  <ATP_Site>  (581) 
nan

>  <Peripheral>  (581) 
nan

>  <Num_H_Atoms_ProtBoundConf>  (581) 
nan

>  <Num_Resolved_Atoms>  (581) 
nan

>  <Num_Not_Resolved_Atoms>  (581) 
nan

$$$$
CHEMBL2376093
     RDKit          3D

  0  0  0  0  0  0  0  0  0  0999 V3000
M  V30 BEGIN CTAB
M  V30 COUNTS 54 57 0 0 0
M  V30 BEGIN ATOM
M  V30 1 C 3.080732 0.290312 7.799681 0
M  V30 2 O 2.725819 -0.813184 6.985825 0
M  V30 3 C 2.402125 -0.584736 5.648446 0
M  V30 4 N 2.419687 0.670706 5.110023 0
M  V30 5 C 2.099385 0.866566 3.801192 0
M  V30 6 C 1.762593 -0.250183 3.062406 0
M  V30 7 C 1.416939 -0.028867 1.645138 0
M  V30 8 C 2.154763 0.787834 0.811277 0
M  V30 9 C 1.748345 0.932674 -0.509693 0
M  V30 10 C 2.461775 1.741416 -1.372990 0
M  V30 11 C 3.665423 2.458662 -0.892096 0
M  V30 12 N 2.047633 1.871745 -2.667386 0
M  V30 13 C 0.936380 1.199953 -3.082676 0
M  V30 14 N 0.430137 1.275949 -4.415516 0
M  V30 15 N 0.242188 0.408636 -2.229539 0
M  V30 16 C 0.625803 0.260715 -0.949135 0
M  V30 17 N -0.117072 -0.542600 -0.166378 0
M  V30 18 C -1.292440 -1.261779 -0.579886 0 CFG=1
M  V30 19 C -2.587612 -0.577804 -0.227385 0
M  V30 20 C -3.708862 -1.403849 -0.793014 0
M  V30 21 C -3.309897 -2.819785 -1.137722 0 CFG=1
M  V30 22 O -4.443927 -3.430493 -1.661608 0
M  V30 23 C -4.814550 -4.555078 -0.925497 0
M  V30 24 O -3.795226 -5.514314 -0.911682 0
M  V30 25 C -2.266839 -2.805800 -2.233823 0
M  V30 26 C -1.311407 -1.625700 -2.027607 0
M  V30 27 C 0.307627 -0.664041 1.124465 0
M  V30 28 O -0.371436 -1.418193 1.899382 0
M  V30 29 C 1.739578 -1.524953 3.589470 0
M  V30 30 N 2.067556 -1.654550 4.895468 0
M  V30 31 H 2.454264 0.354412 8.711397 0
M  V30 32 H 2.942945 1.271372 7.264300 0
M  V30 33 H 4.176971 0.291463 8.065598 0
M  V30 34 H 2.125837 1.877950 3.414091 0
M  V30 35 H 3.026508 1.291772 1.206104 0
M  V30 36 H 3.439198 2.938461 0.074728 0
M  V30 37 H 3.997308 3.218795 -1.612325 0
M  V30 38 H 4.528880 1.774009 -0.732934 0
M  V30 39 H -0.219571 2.048792 -4.712679 0
M  V30 40 H 0.532170 0.708184 -5.303140 0
M  V30 41 H -1.293753 -2.217619 0.006039 0
M  V30 42 H -2.663746 0.458146 -0.574526 0
M  V30 43 H -2.678166 -0.523020 0.894593 0
M  V30 44 H -4.093367 -0.946696 -1.723076 0
M  V30 45 H -4.523784 -1.425906 -0.036353 0
M  V30 46 H -2.955326 -3.374597 -0.242424 0
M  V30 47 H -5.672188 -5.057469 -1.416750 0
M  V30 48 H -5.134854 -4.297059 0.103787 0
M  V30 49 H -3.385310 -5.593721 -0.018129 0
M  V30 50 H -2.775542 -2.754514 -3.221976 0
M  V30 51 H -1.688864 -3.761064 -2.253304 0
M  V30 52 H -0.294803 -1.905416 -2.372619 0
M  V30 53 H -1.743076 -0.820243 -2.690002 0
M  V30 54 H 1.474008 -2.368742 2.989157 0
M  V30 END ATOM
M  V30 BEGIN BOND
M  V30 1 1 1 2
M  V30 2 1 2 3
M  V30 3 2 3 4
M  V30 4 1 4 5
M  V30 5 2 5 6
M  V30 6 1 6 7
M  V30 7 2 7 8
M  V30 8 1 8 9
M  V30 9 2 9 10
M  V30 10 1 10 11
M  V30 11 1 10 12
M  V30 12 2 12 13
M  V30 13 1 13 14
M  V30 14 1 13 15
M  V30 15 2 15 16
M  V30 16 1 16 17
M  V30 17 1 17 18
M  V30 18 1 18 19
M  V30 19 1 19 20
M  V30 20 1 20 21
M  V30 21 1 21 22
M  V30 22 1 22 23
M  V30 23 1 23 24
M  V30 24 1 21 25
M  V30 25 1 25 26
M  V30 26 1 17 27
M  V30 27 2 27 28
M  V30 28 1 6 29
M  V30 29 2 29 30
M  V30 30 1 30 3
M  V30 31 1 27 7
M  V30 32 1 16 9
M  V30 33 1 26 18
M  V30 34 1 1 31
M  V30 35 1 1 32
M  V30 36 1 1 33
M  V30 37 1 5 34
M  V30 38 1 8 35
M  V30 39 1 11 36
M  V30 40 1 11 37
M  V30 41 1 11 38
M  V30 42 1 14 39
M  V30 43 1 14 40
M  V30 44 1 18 41 CFG=1
M  V30 45 1 19 42
M  V30 46 1 19 43
M  V30 47 1 20 44
M  V30 48 1 20 45
M  V30 49 1 21 46 CFG=1
M  V30 50 1 23 47
M  V30 51 1 23 48
M  V30 52 1 24 49
M  V30 53 1 25 50
M  V30 54 1 25 51
M  V30 55 1 26 52
M  V30 56 1 26 53
M  V30 57 1 29 54
M  V30 END BOND
M  V30 END CTAB
M  END
>  <Dataset>  (582) 
ChEMBL_Kinases

>  <Ligand_Instance>  (582) 
nan

>  <PDB_ID>  (582) 
nan

>  <Standardized_SMILES>  (582) 
COc1ncc(-c2cc3c(C)nc(N)nc3n([C@H]3CC[C@@H](OCO)CC3)c2=O)cn1

>  <Name>  (582) 
nan

>  <Pocket>  (582) 
nan

>  <ATP_Site>  (582) 
nan

>  <Peripheral>  (582) 
nan

>  <Num_H_Atoms_ProtBoundConf>  (582) 
nan

>  <Num_Resolved_Atoms>  (582) 
nan

>  <Num_Not_Resolved_Atoms>  (582) 
nan

$$$$
CHEMBL2376092
     RDKit          3D

  0  0  0  0  0  0  0  0  0  0999 V3000
M  V30 BEGIN CTAB
M  V30 COUNTS 49 52 0 0 0
M  V30 BEGIN ATOM
M  V30 1 C 4.256035 0.917915 3.208124 0
M  V30 2 C 3.352083 -0.165482 2.751032 0
M  V30 3 N 3.457121 -1.415356 3.288279 0
M  V30 4 C 2.622001 -2.389916 2.856623 0
M  V30 5 N 2.814520 -3.660029 3.482079 0
M  V30 6 N 1.675191 -2.218867 1.918297 0
M  V30 7 C 1.532922 -1.006143 1.359655 0
M  V30 8 C 2.376329 -0.003691 1.789067 0
M  V30 9 C 2.332302 1.301224 1.285111 0
M  V30 10 C 1.374397 1.550851 0.304662 0
M  V30 11 C 1.247192 2.877750 -0.284714 0
M  V30 12 C 0.032105 3.526608 -0.495159 0
M  V30 13 N 0.345462 4.707000 -1.048210 0
M  V30 14 N 1.663074 4.816860 -1.186577 0
M  V30 15 C 2.260787 3.702801 -0.724862 0
M  V30 16 C 0.565502 0.500669 -0.075751 0
M  V30 17 O -0.268099 0.767204 -0.947612 0
M  V30 18 N 0.600073 -0.735007 0.395248 0
M  V30 19 C -0.222394 -1.849275 0.024503 0 CFG=1
M  V30 20 C -0.957992 -2.396214 1.199706 0
M  V30 21 C -2.429485 -2.350085 1.201490 0
M  V30 22 C -3.117334 -2.449575 -0.131500 0 CFG=1
M  V30 23 O -4.447258 -2.113955 0.033055 0
M  V30 24 C -5.293433 -3.058189 -0.556795 0
M  V30 25 O -5.113427 -4.321423 -0.001648 0
M  V30 26 C -2.494790 -1.292693 -0.940453 0
M  V30 27 C -1.068536 -1.747261 -1.158365 0
M  V30 28 H 4.769652 0.588742 4.121387 0
M  V30 29 H 4.966260 1.246582 2.436990 0
M  V30 30 H 3.657759 1.825089 3.506979 0
M  V30 31 H 3.762418 -4.045236 3.216371 0
M  V30 32 H 1.939944 -3.841858 4.033484 0
M  V30 33 H 2.976544 2.094899 1.603345 0
M  V30 34 H -0.941707 3.112290 -0.242786 0
M  V30 35 H 2.220825 5.626235 -1.588910 0
M  V30 36 H 3.305805 3.402140 -0.659847 0
M  V30 37 H 0.548106 -2.658437 -0.218368 0
M  V30 38 H -0.638055 -1.808092 2.119343 0
M  V30 39 H -0.648585 -3.446139 1.473967 0
M  V30 40 H -2.832990 -3.173308 1.820585 0
M  V30 41 H -2.800782 -1.388102 1.654160 0
M  V30 42 H -2.940727 -3.373902 -0.681129 0
M  V30 43 H -6.347936 -2.743720 -0.483014 0
M  V30 44 H -4.956715 -3.139734 -1.625074 0
M  V30 45 H -5.122995 -4.205799 0.997318 0
M  V30 46 H -2.993723 -1.178160 -1.904818 0
M  V30 47 H -2.611645 -0.433303 -0.272850 0
M  V30 48 H -0.609638 -1.258956 -2.048772 0
M  V30 49 H -1.203264 -2.804402 -1.558047 0
M  V30 END ATOM
M  V30 BEGIN BOND
M  V30 1 1 1 2
M  V30 2 2 2 3
M  V30 3 1 3 4
M  V30 4 1 4 5
M  V30 5 2 4 6
M  V30 6 1 6 7
M  V30 7 2 7 8
M  V30 8 1 8 9
M  V30 9 2 9 10
M  V30 10 1 10 11
M  V30 11 1 11 12
M  V30 12 2 12 13
M  V30 13 1 13 14
M  V30 14 1 14 15
M  V30 15 1 10 16
M  V30 16 2 16 17
M  V30 17 1 16 18
M  V30 18 1 18 19
M  V30 19 1 19 20
M  V30 20 1 20 21
M  V30 21 1 21 22
M  V30 22 1 22 23
M  V30 23 1 23 24
M  V30 24 1 24 25
M  V30 25 1 22 26
M  V30 26 1 26 27
M  V30 27 1 8 2
M  V30 28 2 15 11
M  V30 29 1 27 19
M  V30 30 1 18 7
M  V30 31 1 1 28
M  V30 32 1 1 29
M  V30 33 1 1 30
M  V30 34 1 5 31
M  V30 35 1 5 32
M  V30 36 1 9 33
M  V30 37 1 12 34
M  V30 38 1 14 35
M  V30 39 1 15 36
M  V30 40 1 19 37 CFG=3
M  V30 41 1 20 38
M  V30 42 1 20 39
M  V30 43 1 21 40
M  V30 44 1 21 41
M  V30 45 1 22 42 CFG=3
M  V30 46 1 24 43
M  V30 47 1 24 44
M  V30 48 1 25 45
M  V30 49 1 26 46
M  V30 50 1 26 47
M  V30 51 1 27 48
M  V30 52 1 27 49
M  V30 END BOND
M  V30 END CTAB
M  END
>  <Dataset>  (583) 
ChEMBL_Kinases

>  <Ligand_Instance>  (583) 
nan

>  <PDB_ID>  (583) 
nan

>  <Standardized_SMILES>  (583) 
Cc1nc(N)nc2c1cc(-c1cn[nH]c1)c(=O)n2[C@H]1CC[C@@H](OCO)CC1

>  <Name>  (583) 
nan

>  <Pocket>  (583) 
nan

>  <ATP_Site>  (583) 
nan

>  <Peripheral>  (583) 
nan

>  <Num_H_Atoms_ProtBoundConf>  (583) 
nan

>  <Num_Resolved_Atoms>  (583) 
nan

>  <Num_Not_Resolved_Atoms>  (583) 
nan

$$$$
CHEMBL2375970
     RDKit          3D

  0  0  0  0  0  0  0  0  0  0999 V3000
M  V30 BEGIN CTAB
M  V30 COUNTS 52 55 0 0 0
M  V30 BEGIN ATOM
M  V30 1 C 0.247645 1.432966 5.055217 0
M  V30 2 C -0.304176 0.432216 4.099151 0
M  V30 3 N -1.292634 -0.427535 4.396516 0
M  V30 4 C -1.753204 -1.320963 3.473150 0
M  V30 5 N -2.808726 -2.168917 3.942177 0
M  V30 6 N -1.267042 -1.411212 2.221155 0
M  V30 7 C -0.275797 -0.567799 1.882368 0
M  V30 8 C 0.204259 0.351750 2.819610 0
M  V30 9 C 1.221291 1.224208 2.488241 0
M  V30 10 C 1.756352 1.172827 1.214222 0
M  V30 11 C 2.838713 2.030429 0.709279 0
M  V30 12 C 2.717794 2.609679 -0.558097 0
M  V30 13 N 3.857811 3.331135 -0.734185 0
M  V30 14 N 4.622296 3.208571 0.336872 0
M  V30 15 C 5.922004 3.810219 0.568715 0
M  V30 16 C 4.046567 2.418546 1.260689 0
M  V30 17 C 1.229183 0.237767 0.346012 0
M  V30 18 O 1.691044 0.156004 -0.833864 0
M  V30 19 N 0.224664 -0.646948 0.624057 0
M  V30 20 C -0.264439 -1.585155 -0.333391 0 CFG=1
M  V30 21 C -0.474886 -2.981414 0.109584 0
M  V30 22 C -1.893757 -3.488775 -0.148614 0
M  V30 23 C -2.104212 -3.474876 -1.644135 0 CFG=1
M  V30 24 O -3.407589 -3.706726 -2.025222 0
M  V30 25 C -3.567416 -4.843619 -2.811084 0
M  V30 26 O -4.936795 -4.970843 -3.133481 0
M  V30 27 C -1.705473 -2.116930 -2.187343 0
M  V30 28 C -1.526935 -1.104084 -1.060887 0
M  V30 29 H 1.273990 1.162422 5.348182 0
M  V30 30 H -0.440201 1.574026 5.920955 0
M  V30 31 H 0.260477 2.438319 4.557484 0
M  V30 32 H -3.861000 -2.098382 3.837029 0
M  V30 33 H -3.854616 -2.250046 3.932150 0
M  V30 34 H 1.648329 1.958338 3.141450 0
M  V30 35 H 1.978430 2.602466 -1.347723 0
M  V30 36 H 5.909861 4.313755 1.575487 0
M  V30 37 H 6.718058 3.039315 0.634762 0
M  V30 38 H 6.158502 4.594574 -0.150817 0
M  V30 39 H 4.361337 2.092925 2.241288 0
M  V30 40 H 0.494599 -1.595005 -1.173256 0
M  V30 41 H 0.146183 -3.712991 -0.491573 0
M  V30 42 H -0.136171 -3.212263 1.155672 0
M  V30 43 H -1.911287 -4.553633 0.182083 0
M  V30 44 H -2.674811 -2.889404 0.305107 0
M  V30 45 H -1.480482 -4.296300 -2.084160 0
M  V30 46 H -3.032731 -4.694746 -3.752311 0
M  V30 47 H -3.298239 -5.765918 -2.254776 0
M  V30 48 H -5.068982 -5.147869 -4.105192 0
M  V30 49 H -0.676508 -2.218842 -2.641382 0
M  V30 50 H -2.417109 -1.709576 -2.927067 0
M  V30 51 H -1.338119 -0.127258 -1.584386 0
M  V30 52 H -2.391711 -1.000971 -0.412031 0
M  V30 END ATOM
M  V30 BEGIN BOND
M  V30 1 1 1 2
M  V30 2 2 2 3
M  V30 3 1 3 4
M  V30 4 1 4 5
M  V30 5 2 4 6
M  V30 6 1 6 7
M  V30 7 2 7 8
M  V30 8 1 8 9
M  V30 9 2 9 10
M  V30 10 1 10 11
M  V30 11 1 11 12
M  V30 12 2 12 13
M  V30 13 1 13 14
M  V30 14 1 14 15
M  V30 15 1 14 16
M  V30 16 1 10 17
M  V30 17 2 17 18
M  V30 18 1 17 19
M  V30 19 1 19 20
M  V30 20 1 20 21
M  V30 21 1 21 22
M  V30 22 1 22 23
M  V30 23 1 23 24
M  V30 24 1 24 25
M  V30 25 1 25 26
M  V30 26 1 23 27
M  V30 27 1 27 28
M  V30 28 1 8 2
M  V30 29 2 16 11
M  V30 30 1 28 20
M  V30 31 1 19 7
M  V30 32 1 1 29
M  V30 33 1 1 30
M  V30 34 1 1 31
M  V30 35 1 5 32
M  V30 36 1 5 33
M  V30 37 1 9 34
M  V30 38 1 12 35
M  V30 39 1 15 36
M  V30 40 1 15 37
M  V30 41 1 15 38
M  V30 42 1 16 39
M  V30 43 1 20 40 CFG=3
M  V30 44 1 21 41
M  V30 45 1 21 42
M  V30 46 1 22 43
M  V30 47 1 22 44
M  V30 48 1 23 45 CFG=3
M  V30 49 1 25 46
M  V30 50 1 25 47
M  V30 51 1 26 48
M  V30 52 1 27 49
M  V30 53 1 27 50
M  V30 54 1 28 51
M  V30 55 1 28 52
M  V30 END BOND
M  V30 END CTAB
M  END
>  <Dataset>  (584) 
ChEMBL_Kinases

>  <Ligand_Instance>  (584) 
nan

>  <PDB_ID>  (584) 
nan

>  <Standardized_SMILES>  (584) 
Cc1nc(N)nc2c1cc(-c1cnn(C)c1)c(=O)n2[C@H]1CC[C@@H](OCO)CC1

>  <Name>  (584) 
nan

>  <Pocket>  (584) 
nan

>  <ATP_Site>  (584) 
nan

>  <Peripheral>  (584) 
nan

>  <Num_H_Atoms_ProtBoundConf>  (584) 
nan

>  <Num_Resolved_Atoms>  (584) 
nan

>  <Num_Not_Resolved_Atoms>  (584) 
nan

$$$$
CHEMBL2375969
     RDKit          3D

  0  0  0  0  0  0  0  0  0  0999 V3000
M  V30 BEGIN CTAB
M  V30 COUNTS 57 61 0 0 0
M  V30 BEGIN ATOM
M  V30 1 C 0.961491 -0.845289 5.447709 0
M  V30 2 C 0.418235 -1.760392 4.407228 0
M  V30 3 N 0.048734 -3.047390 4.626786 0
M  V30 4 C -0.436132 -3.822754 3.640572 0
M  V30 5 N -0.759109 -5.138076 4.099582 0
M  V30 6 N -0.590602 -3.388870 2.376357 0
M  V30 7 C -0.235630 -2.117732 2.117078 0
M  V30 8 C 0.264177 -1.304834 3.114730 0
M  V30 9 C 0.624143 -0.001468 2.832784 0
M  V30 10 C 0.455797 0.420163 1.527880 0
M  V30 11 C 0.851052 1.806566 1.278467 0
M  V30 12 C 0.483658 2.823997 2.142252 0
M  V30 13 N 0.889151 4.091466 1.844835 0
M  V30 14 C 1.628168 4.353895 0.740959 0
M  V30 15 C 1.998593 5.669460 0.512551 0
M  V30 16 C 2.761844 6.007419 -0.609070 0
M  V30 17 C 3.129084 4.983467 -1.474289 0
M  V30 18 C 2.774582 3.664839 -1.272135 0
M  V30 19 C 2.017814 3.369069 -0.149241 0
M  V30 20 C 1.614419 2.061720 0.133872 0
M  V30 21 C -0.046873 -0.419624 0.555742 0
M  V30 22 O -0.129284 0.144975 -0.581303 0
M  V30 23 N -0.400954 -1.710319 0.844880 0
M  V30 24 C -0.904431 -2.458917 -0.258661 0 CFG=1
M  V30 25 C 0.158336 -2.715517 -1.307469 0
M  V30 26 C -0.556799 -3.071717 -2.590182 0
M  V30 27 C -2.018779 -3.322670 -2.409521 0 CFG=1
M  V30 28 O -2.415804 -4.107293 -3.516188 0
M  V30 29 C -3.386773 -3.474915 -4.262356 0
M  V30 30 O -2.970530 -2.236017 -4.783532 0
M  V30 31 C -2.395237 -4.110009 -1.200234 0
M  V30 32 C -1.680883 -3.692894 0.067400 0
M  V30 33 H 1.916971 -0.381424 5.127060 0
M  V30 34 H 0.224781 -0.045241 5.675664 0
M  V30 35 H 1.182083 -1.382500 6.377939 0
M  V30 36 H -1.671553 -5.631809 4.136456 0
M  V30 37 H -0.089049 -5.856724 4.495148 0
M  V30 38 H 1.016025 0.641405 3.606959 0
M  V30 39 H -0.106258 2.606709 3.021567 0
M  V30 40 H 1.712063 6.454046 1.183651 0
M  V30 41 H 3.077868 7.034347 -0.829956 0
M  V30 42 H 3.725002 5.247258 -2.350038 0
M  V30 43 H 3.054463 2.861113 -1.937961 0
M  V30 44 H 1.934343 1.332842 -0.575292 0
M  V30 45 H -1.660512 -1.779530 -0.756846 0
M  V30 46 H 0.832101 -3.548128 -1.016442 0
M  V30 47 H 0.802879 -1.823617 -1.417707 0
M  V30 48 H -0.032936 -3.911538 -3.098509 0
M  V30 49 H -0.479276 -2.151461 -3.241482 0
M  V30 50 H -2.617265 -2.371358 -2.439475 0
M  V30 51 H -4.341572 -3.388131 -3.723352 0
M  V30 52 H -3.566508 -4.115855 -5.153002 0
M  V30 53 H -3.809446 -1.725434 -5.010522 0
M  V30 54 H -3.495456 -3.986189 -1.067552 0
M  V30 55 H -2.229805 -5.195685 -1.431315 0
M  V30 56 H -2.409962 -3.494367 0.849882 0
M  V30 57 H -1.058423 -4.552819 0.368735 0
M  V30 END ATOM
M  V30 BEGIN BOND
M  V30 1 1 1 2
M  V30 2 2 2 3
M  V30 3 1 3 4
M  V30 4 1 4 5
M  V30 5 2 4 6
M  V30 6 1 6 7
M  V30 7 2 7 8
M  V30 8 1 8 9
M  V30 9 2 9 10
M  V30 10 1 10 11
M  V30 11 2 11 12
M  V30 12 1 12 13
M  V30 13 2 13 14
M  V30 14 1 14 15
M  V30 15 2 15 16
M  V30 16 1 16 17
M  V30 17 2 17 18
M  V30 18 1 18 19
M  V30 19 2 19 20
M  V30 20 1 10 21
M  V30 21 2 21 22
M  V30 22 1 21 23
M  V30 23 1 23 24
M  V30 24 1 24 25
M  V30 25 1 25 26
M  V30 26 1 26 27
M  V30 27 1 27 28
M  V30 28 1 28 29
M  V30 29 1 29 30
M  V30 30 1 27 31
M  V30 31 1 31 32
M  V30 32 1 8 2
M  V30 33 1 20 11
M  V30 34 1 32 24
M  V30 35 1 23 7
M  V30 36 1 19 14
M  V30 37 1 1 33
M  V30 38 1 1 34
M  V30 39 1 1 35
M  V30 40 1 5 36
M  V30 41 1 5 37
M  V30 42 1 9 38
M  V30 43 1 12 39
M  V30 44 1 15 40
M  V30 45 1 16 41
M  V30 46 1 17 42
M  V30 47 1 18 43
M  V30 48 1 20 44
M  V30 49 1 24 45 CFG=3
M  V30 50 1 25 46
M  V30 51 1 25 47
M  V30 52 1 26 48
M  V30 53 1 26 49
M  V30 54 1 27 50 CFG=1
M  V30 55 1 29 51
M  V30 56 1 29 52
M  V30 57 1 30 53
M  V30 58 1 31 54
M  V30 59 1 31 55
M  V30 60 1 32 56
M  V30 61 1 32 57
M  V30 END BOND
M  V30 END CTAB
M  END
>  <Dataset>  (585) 
ChEMBL_Kinases

>  <Ligand_Instance>  (585) 
nan

>  <PDB_ID>  (585) 
nan

>  <Standardized_SMILES>  (585) 
Cc1nc(N)nc2c1cc(-c1cnc3ccccc3c1)c(=O)n2[C@H]1CC[C@@H](OCO)CC1

>  <Name>  (585) 
nan

>  <Pocket>  (585) 
nan

>  <ATP_Site>  (585) 
nan

>  <Peripheral>  (585) 
nan

>  <Num_H_Atoms_ProtBoundConf>  (585) 
nan

>  <Num_Resolved_Atoms>  (585) 
nan

>  <Num_Not_Resolved_Atoms>  (585) 
nan

$$$$
CHEMBL2375968
     RDKit          3D

  0  0  0  0  0  0  0  0  0  0999 V3000
M  V30 BEGIN CTAB
M  V30 COUNTS 55 58 0 0 0
M  V30 BEGIN ATOM
M  V30 1 C 2.474509 -3.076180 7.640005 0
M  V30 2 O 2.427101 -3.548371 6.305392 0
M  V30 3 C 2.082313 -2.699673 5.259064 0
M  V30 4 N 1.772043 -1.395782 5.409642 0
M  V30 5 C 1.444616 -0.622795 4.349284 0
M  V30 6 C 1.445183 -1.238781 3.108320 0
M  V30 7 C 1.089524 -0.389037 1.977002 0
M  V30 8 C 1.568016 0.897370 1.749833 0
M  V30 9 C 1.164471 1.615070 0.643636 0
M  V30 10 C 1.682056 2.877974 0.490502 0
M  V30 11 C 2.642261 3.422504 1.501139 0
M  V30 12 N 1.276117 3.578336 -0.606707 0
M  V30 13 C 0.404841 3.023292 -1.479856 0
M  V30 14 N 0.086093 3.896033 -2.573816 0
M  V30 15 N -0.116771 1.790242 -1.354095 0
M  V30 16 C 0.269966 1.066076 -0.267799 0
M  V30 17 N -0.186680 -0.178022 -0.039178 0
M  V30 18 C -1.116422 -0.752809 -0.983528 0 CFG=1
M  V30 19 C -2.384347 0.060165 -1.145988 0
M  V30 20 C -3.470694 -0.898011 -1.649370 0
M  V30 21 C -2.875890 -1.903241 -2.604149 0 CFG=2
M  V30 22 O -2.723330 -3.148910 -2.025217 0
M  V30 23 C -3.538777 -4.106586 -2.647550 0
M  V30 24 O -3.141691 -4.150159 -4.003941 0
M  V30 25 C -1.624703 -1.397544 -3.281300 0
M  V30 26 C -0.522364 -1.034800 -2.334428 0
M  V30 27 C 0.202937 -0.866509 1.025641 0
M  V30 28 O -0.264161 -2.040528 1.188542 0
M  V30 29 C 1.753336 -2.568841 2.887881 0
M  V30 30 C 2.085675 -3.327088 4.017395 0
M  V30 31 F 2.394243 -4.635989 3.843192 0
M  V30 32 H 2.228715 -1.995062 7.689755 0
M  V30 33 H 3.480090 -3.204925 8.087792 0
M  V30 34 H 1.716497 -3.569634 8.296151 0
M  V30 35 H 1.196242 0.420088 4.467995 0
M  V30 36 H 2.264671 1.252821 2.511608 0
M  V30 37 H 2.209231 3.292017 2.535928 0
M  V30 38 H 2.757694 4.514255 1.387617 0
M  V30 39 H 3.621872 2.894188 1.432555 0
M  V30 40 H -0.809772 4.428808 -2.548605 0
M  V30 41 H 0.618141 4.114770 -3.452725 0
M  V30 42 H -1.465235 -1.757931 -0.603043 0
M  V30 43 H -2.319148 0.843979 -1.913156 0
M  V30 44 H -2.675976 0.469368 -0.145648 0
M  V30 45 H -4.260137 -0.300067 -2.115644 0
M  V30 46 H -3.922436 -1.404709 -0.758416 0
M  V30 47 H -3.626258 -2.036907 -3.419494 0
M  V30 48 H -3.296959 -5.116771 -2.259205 0
M  V30 49 H -4.613890 -3.845222 -2.596757 0
M  V30 50 H -2.198167 -4.444110 -4.050468 0
M  V30 51 H -1.310885 -2.186205 -3.991852 0
M  V30 52 H -1.922980 -0.517442 -3.874436 0
M  V30 53 H 0.021522 -0.162533 -2.708667 0
M  V30 54 H 0.212278 -1.878334 -2.179305 0
M  V30 55 H 1.740501 -2.998786 1.915719 0
M  V30 END ATOM
M  V30 BEGIN BOND
M  V30 1 1 1 2
M  V30 2 1 2 3
M  V30 3 2 3 4
M  V30 4 1 4 5
M  V30 5 2 5 6
M  V30 6 1 6 7
M  V30 7 2 7 8
M  V30 8 1 8 9
M  V30 9 2 9 10
M  V30 10 1 10 11
M  V30 11 1 10 12
M  V30 12 2 12 13
M  V30 13 1 13 14
M  V30 14 1 13 15
M  V30 15 2 15 16
M  V30 16 1 16 17
M  V30 17 1 17 18
M  V30 18 1 18 19
M  V30 19 1 19 20
M  V30 20 1 20 21
M  V30 21 1 21 22
M  V30 22 1 22 23
M  V30 23 1 23 24
M  V30 24 1 21 25
M  V30 25 1 25 26
M  V30 26 1 17 27
M  V30 27 2 27 28
M  V30 28 1 6 29
M  V30 29 2 29 30
M  V30 30 1 30 31
M  V30 31 1 30 3
M  V30 32 1 27 7
M  V30 33 1 16 9
M  V30 34 1 26 18
M  V30 35 1 1 32
M  V30 36 1 1 33
M  V30 37 1 1 34
M  V30 38 1 5 35
M  V30 39 1 8 36
M  V30 40 1 11 37
M  V30 41 1 11 38
M  V30 42 1 11 39
M  V30 43 1 14 40
M  V30 44 1 14 41
M  V30 45 1 18 42 CFG=1
M  V30 46 1 19 43
M  V30 47 1 19 44
M  V30 48 1 20 45
M  V30 49 1 20 46
M  V30 50 1 21 47 CFG=3
M  V30 51 1 23 48
M  V30 52 1 23 49
M  V30 53 1 24 50
M  V30 54 1 25 51
M  V30 55 1 25 52
M  V30 56 1 26 53
M  V30 57 1 26 54
M  V30 58 1 29 55
M  V30 END BOND
M  V30 END CTAB
M  END
>  <Dataset>  (586) 
ChEMBL_Kinases

>  <Ligand_Instance>  (586) 
nan

>  <PDB_ID>  (586) 
nan

>  <Standardized_SMILES>  (586) 
COc1ncc(-c2cc3c(C)nc(N)nc3n([C@H]3CC[C@H](OCO)CC3)c2=O)cc1F

>  <Name>  (586) 
nan

>  <Pocket>  (586) 
nan

>  <ATP_Site>  (586) 
nan

>  <Peripheral>  (586) 
nan

>  <Num_H_Atoms_ProtBoundConf>  (586) 
nan

>  <Num_Resolved_Atoms>  (586) 
nan

>  <Num_Not_Resolved_Atoms>  (586) 
nan

$$$$
CHEMBL2375967
     RDKit          3D

  0  0  0  0  0  0  0  0  0  0999 V3000
M  V30 BEGIN CTAB
M  V30 COUNTS 49 52 0 0 0
M  V30 BEGIN ATOM
M  V30 1 C 4.598362 0.695728 2.728062 0
M  V30 2 C 3.521416 -0.336493 2.695209 0
M  V30 3 N 3.555656 -1.361468 3.596963 0
M  V30 4 C 2.556638 -2.286781 3.539219 0
M  V30 5 N 2.464910 -3.410684 4.418552 0
M  V30 6 N 1.581050 -2.189033 2.630186 0
M  V30 7 C 1.545178 -1.164409 1.727356 0
M  V30 8 C 2.518660 -0.215711 1.743571 0
M  V30 9 C 2.505301 0.814341 0.855207 0
M  V30 10 C 1.465333 0.846075 -0.052094 0
M  V30 11 C 1.426041 1.940821 -1.017680 0
M  V30 12 C 0.442479 2.789254 -1.489715 0
M  V30 13 N 0.980745 3.628056 -2.394523 0
M  V30 14 N 2.267166 3.338890 -2.509524 0
M  V30 15 C 2.587156 2.318450 -1.691505 0
M  V30 16 C 0.524384 -0.145290 -0.004461 0
M  V30 17 O -0.379801 -0.040672 -0.858856 0
M  V30 18 N 0.494451 -1.177586 0.849115 0
M  V30 19 C -0.491224 -2.203434 0.887357 0 CFG=1
M  V30 20 C -1.519979 -1.816306 1.942142 0
M  V30 21 C -2.580558 -0.894455 1.435934 0
M  V30 22 C -3.235443 -1.414676 0.173325 0 CFG=2
M  V30 23 O -4.607431 -1.447470 0.264096 0
M  V30 24 C -5.284957 -0.756547 -0.720290 0
M  V30 25 O -4.993470 -1.250827 -1.984955 0
M  V30 26 C -2.677783 -2.789816 -0.084488 0
M  V30 27 C -1.155514 -2.681540 -0.291255 0
M  V30 28 H 5.281364 0.498231 3.568418 0
M  V30 29 H 5.181553 0.717981 1.781675 0
M  V30 30 H 4.172230 1.720369 2.849077 0
M  V30 31 H 3.270863 -4.054983 4.628536 0
M  V30 32 H 1.529879 -3.584400 4.869942 0
M  V30 33 H 3.305666 1.534241 0.919627 0
M  V30 34 H -0.566908 2.698195 -1.115668 0
M  V30 35 H 2.955829 3.833705 -3.150907 0
M  V30 36 H 3.581351 1.899731 -1.606166 0
M  V30 37 H 0.026115 -3.082390 1.392209 0
M  V30 38 H -0.964168 -1.261717 2.730075 0
M  V30 39 H -1.923796 -2.713219 2.455393 0
M  V30 40 H -3.354023 -0.847935 2.249249 0
M  V30 41 H -2.133280 0.097804 1.246729 0
M  V30 42 H -3.015308 -0.801911 -0.724999 0
M  V30 43 H -5.181960 0.333349 -0.670064 0
M  V30 44 H -6.370510 -0.988729 -0.555886 0
M  V30 45 H -5.350223 -2.154820 -2.089110 0
M  V30 46 H -3.165710 -3.285398 -0.934533 0
M  V30 47 H -2.838642 -3.455812 0.788169 0
M  V30 48 H -1.042173 -2.227468 -1.267091 0
M  V30 49 H -0.914018 -3.770692 -0.506022 0
M  V30 END ATOM
M  V30 BEGIN BOND
M  V30 1 1 1 2
M  V30 2 2 2 3
M  V30 3 1 3 4
M  V30 4 1 4 5
M  V30 5 2 4 6
M  V30 6 1 6 7
M  V30 7 2 7 8
M  V30 8 1 8 9
M  V30 9 2 9 10
M  V30 10 1 10 11
M  V30 11 1 11 12
M  V30 12 2 12 13
M  V30 13 1 13 14
M  V30 14 1 14 15
M  V30 15 1 10 16
M  V30 16 2 16 17
M  V30 17 1 16 18
M  V30 18 1 18 19
M  V30 19 1 19 20
M  V30 20 1 20 21
M  V30 21 1 21 22
M  V30 22 1 22 23
M  V30 23 1 23 24
M  V30 24 1 24 25
M  V30 25 1 22 26
M  V30 26 1 26 27
M  V30 27 1 8 2
M  V30 28 2 15 11
M  V30 29 1 27 19
M  V30 30 1 18 7
M  V30 31 1 1 28
M  V30 32 1 1 29
M  V30 33 1 1 30
M  V30 34 1 5 31
M  V30 35 1 5 32
M  V30 36 1 9 33
M  V30 37 1 12 34
M  V30 38 1 14 35
M  V30 39 1 15 36
M  V30 40 1 19 37 CFG=1
M  V30 41 1 20 38
M  V30 42 1 20 39
M  V30 43 1 21 40
M  V30 44 1 21 41
M  V30 45 1 22 42 CFG=3
M  V30 46 1 24 43
M  V30 47 1 24 44
M  V30 48 1 25 45
M  V30 49 1 26 46
M  V30 50 1 26 47
M  V30 51 1 27 48
M  V30 52 1 27 49
M  V30 END BOND
M  V30 END CTAB
M  END
>  <Dataset>  (587) 
ChEMBL_Kinases

>  <Ligand_Instance>  (587) 
nan

>  <PDB_ID>  (587) 
nan

>  <Standardized_SMILES>  (587) 
Cc1nc(N)nc2c1cc(-c1cn[nH]c1)c(=O)n2[C@H]1CC[C@H](OCO)CC1

>  <Name>  (587) 
nan

>  <Pocket>  (587) 
nan

>  <ATP_Site>  (587) 
nan

>  <Peripheral>  (587) 
nan

>  <Num_H_Atoms_ProtBoundConf>  (587) 
nan

>  <Num_Resolved_Atoms>  (587) 
nan

>  <Num_Not_Resolved_Atoms>  (587) 
nan

$$$$
CHEMBL2375966
     RDKit          3D

  0  0  0  0  0  0  0  0  0  0999 V3000
M  V30 BEGIN CTAB
M  V30 COUNTS 52 55 0 0 0
M  V30 BEGIN ATOM
M  V30 1 C 0.049194 0.986343 4.898201 0
M  V30 2 C 0.011524 -0.223446 4.060098 0
M  V30 3 N -0.372770 -1.425799 4.522828 0
M  V30 4 C -0.380102 -2.499757 3.681178 0
M  V30 5 N -0.803897 -3.732328 4.267230 0
M  V30 6 N -0.020107 -2.432617 2.390391 0
M  V30 7 C 0.369651 -1.257450 1.884991 0
M  V30 8 C 0.378621 -0.169713 2.732156 0
M  V30 9 C 0.782330 1.049350 2.225206 0
M  V30 10 C 1.151614 1.070743 0.877199 0
M  V30 11 C 1.565003 2.422956 0.440848 0
M  V30 12 C 1.140476 2.999136 -0.753002 0
M  V30 13 N 1.719729 4.220530 -0.801767 0
M  V30 14 N 2.460426 4.416960 0.276923 0
M  V30 15 C 3.234994 5.627261 0.565136 0
M  V30 16 C 2.393332 3.326044 1.076022 0
M  V30 17 C 1.118013 -0.057117 0.089073 0
M  V30 18 O 1.499894 0.251092 -1.069481 0
M  V30 19 N 0.722374 -1.250994 0.584845 0
M  V30 20 C 0.733097 -2.320780 -0.321013 0 CFG=1
M  V30 21 C 0.003043 -3.571521 -0.018360 0
M  V30 22 C -1.485615 -3.516660 -0.159468 0
M  V30 23 C -1.824113 -3.180069 -1.589811 0 CFG=2
M  V30 24 O -2.631452 -4.130775 -2.182009 0
M  V30 25 C -3.848640 -3.481209 -2.480995 0
M  V30 26 O -4.744588 -4.339266 -3.082027 0
M  V30 27 C -0.605781 -2.872568 -2.393926 0
M  V30 28 C 0.242167 -1.839108 -1.676527 0
M  V30 29 H 1.067868 1.395372 5.044101 0
M  V30 30 H -0.427763 0.803855 5.877496 0
M  V30 31 H -0.537479 1.815048 4.435950 0
M  V30 32 H -0.114061 -4.003567 5.027516 0
M  V30 33 H -0.209510 -4.098497 5.022018 0
M  V30 34 H 0.793821 1.909233 2.877951 0
M  V30 35 H 0.481360 2.524336 -1.462169 0
M  V30 36 H 4.026368 5.400695 1.300125 0
M  V30 37 H 3.689572 6.041311 -0.368663 0
M  V30 38 H 2.591454 6.410555 1.019825 0
M  V30 39 H 2.881538 3.149379 2.042842 0
M  V30 40 H 1.811322 -2.618754 -0.479239 0
M  V30 41 H 0.366916 -4.156389 0.854030 0
M  V30 42 H 0.311655 -4.269887 -0.868858 0
M  V30 43 H -1.849418 -4.574331 0.002050 0
M  V30 44 H -2.027766 -2.898677 0.544124 0
M  V30 45 H -2.436234 -2.237532 -1.564607 0
M  V30 46 H -3.692251 -2.623381 -3.178669 0
M  V30 47 H -4.276601 -3.026009 -1.541211 0
M  V30 48 H -5.587265 -4.331547 -2.559341 0
M  V30 49 H -0.054502 -3.720623 -2.794524 0
M  V30 50 H -0.981155 -2.320311 -3.306934 0
M  V30 51 H -0.407003 -0.943590 -1.617010 0
M  V30 52 H 1.085060 -1.592469 -2.367055 0
M  V30 END ATOM
M  V30 BEGIN BOND
M  V30 1 1 1 2
M  V30 2 2 2 3
M  V30 3 1 3 4
M  V30 4 1 4 5
M  V30 5 2 4 6
M  V30 6 1 6 7
M  V30 7 2 7 8
M  V30 8 1 8 9
M  V30 9 2 9 10
M  V30 10 1 10 11
M  V30 11 1 11 12
M  V30 12 2 12 13
M  V30 13 1 13 14
M  V30 14 1 14 15
M  V30 15 1 14 16
M  V30 16 1 10 17
M  V30 17 2 17 18
M  V30 18 1 17 19
M  V30 19 1 19 20
M  V30 20 1 20 21
M  V30 21 1 21 22
M  V30 22 1 22 23
M  V30 23 1 23 24
M  V30 24 1 24 25
M  V30 25 1 25 26
M  V30 26 1 23 27
M  V30 27 1 27 28
M  V30 28 1 8 2
M  V30 29 2 16 11
M  V30 30 1 28 20
M  V30 31 1 19 7
M  V30 32 1 1 29
M  V30 33 1 1 30
M  V30 34 1 1 31
M  V30 35 1 5 32
M  V30 36 1 5 33
M  V30 37 1 9 34
M  V30 38 1 12 35
M  V30 39 1 15 36
M  V30 40 1 15 37
M  V30 41 1 15 38
M  V30 42 1 16 39
M  V30 43 1 20 40 CFG=3
M  V30 44 1 21 41
M  V30 45 1 21 42
M  V30 46 1 22 43
M  V30 47 1 22 44
M  V30 48 1 23 45 CFG=1
M  V30 49 1 25 46
M  V30 50 1 25 47
M  V30 51 1 26 48
M  V30 52 1 27 49
M  V30 53 1 27 50
M  V30 54 1 28 51
M  V30 55 1 28 52
M  V30 END BOND
M  V30 END CTAB
M  END
>  <Dataset>  (588) 
ChEMBL_Kinases

>  <Ligand_Instance>  (588) 
nan

>  <PDB_ID>  (588) 
nan

>  <Standardized_SMILES>  (588) 
Cc1nc(N)nc2c1cc(-c1cnn(C)c1)c(=O)n2[C@H]1CC[C@H](OCO)CC1

>  <Name>  (588) 
nan

>  <Pocket>  (588) 
nan

>  <ATP_Site>  (588) 
nan

>  <Peripheral>  (588) 
nan

>  <Num_H_Atoms_ProtBoundConf>  (588) 
nan

>  <Num_Resolved_Atoms>  (588) 
nan

>  <Num_Not_Resolved_Atoms>  (588) 
nan

$$$$
CHEMBL2375965
     RDKit          3D

  0  0  0  0  0  0  0  0  0  0999 V3000
M  V30 BEGIN CTAB
M  V30 COUNTS 57 61 0 0 0
M  V30 BEGIN ATOM
M  V30 1 C 0.870092 0.215519 5.602742 0
M  V30 2 C 0.360571 -0.956422 4.814876 0
M  V30 3 N 0.001265 -2.110243 5.431677 0
M  V30 4 C -0.455268 -3.143115 4.664249 0
M  V30 5 N -0.827946 -4.346805 5.328848 0
M  V30 6 N -0.552738 -3.033208 3.317181 0
M  V30 7 C -0.203756 -1.893816 2.651049 0
M  V30 8 C 0.249338 -0.877128 3.442791 0
M  V30 9 C 0.609978 0.293776 2.777890 0
M  V30 10 C 0.513731 0.414408 1.404372 0
M  V30 11 C 0.905476 1.666922 0.751701 0
M  V30 12 C 0.535546 2.911353 1.219890 0
M  V30 13 N 0.950857 4.022275 0.541186 0
M  V30 14 C 1.713768 3.866231 -0.571488 0
M  V30 15 C 2.086513 5.039578 -1.191396 0
M  V30 16 C 2.872236 5.038235 -2.347071 0
M  V30 17 C 3.239824 3.792026 -2.811708 0
M  V30 18 C 2.886473 2.596828 -2.218993 0
M  V30 19 C 2.109374 2.647959 -1.079042 0
M  V30 20 C 1.684676 1.513542 -0.385096 0
M  V30 21 C 0.039815 -0.684604 0.703720 0
M  V30 22 O -0.035025 -0.540732 -0.543583 0
M  V30 23 N -0.319153 -1.834441 1.309545 0
M  V30 24 C -0.812772 -2.965641 0.531347 0 CFG=1
M  V30 25 C -2.258447 -2.731378 0.181718 0
M  V30 26 C -2.598384 -3.795841 -0.869411 0
M  V30 27 C -1.944539 -3.232356 -2.119540 0 CFG=2
M  V30 28 O -2.464940 -3.927502 -3.189469 0
M  V30 29 C -3.273255 -3.160100 -4.005659 0
M  V30 30 O -4.371275 -2.642788 -3.300161 0
M  V30 31 C -0.473974 -3.287340 -1.956880 0
M  V30 32 C 0.076846 -3.342557 -0.588206 0
M  V30 33 H 0.157370 1.054278 5.623187 0
M  V30 34 H 1.165399 -0.121871 6.618661 0
M  V30 35 H 1.800550 0.607761 5.099626 0
M  V30 36 H -0.424225 -5.255980 5.005436 0
M  V30 37 H -0.491780 -5.322283 5.098691 0
M  V30 38 H 0.982207 1.161474 3.312037 0
M  V30 39 H -0.073575 2.955283 2.113205 0
M  V30 40 H 1.790597 6.015592 -0.815691 0
M  V30 41 H 3.184705 5.941506 -2.861834 0
M  V30 42 H 3.854751 3.784995 -3.715810 0
M  V30 43 H 3.184170 1.632736 -2.598046 0
M  V30 44 H 2.007125 0.567541 -0.801680 0
M  V30 45 H -0.863155 -3.845192 1.241803 0
M  V30 46 H -2.488954 -1.753380 -0.236979 0
M  V30 47 H -2.929569 -2.947857 1.030693 0
M  V30 48 H -2.027308 -4.716411 -0.618376 0
M  V30 49 H -3.674641 -3.955841 -0.958890 0
M  V30 50 H -2.322587 -2.171675 -2.179975 0
M  V30 51 H -2.771991 -2.358595 -4.547627 0
M  V30 52 H -3.703795 -3.848532 -4.767889 0
M  V30 53 H -4.757170 -1.858559 -3.746468 0
M  V30 54 H -0.130129 -4.170754 -2.562633 0
M  V30 55 H -0.058451 -2.420793 -2.552463 0
M  V30 56 H 0.567915 -4.348426 -0.426154 0
M  V30 57 H 0.969648 -2.651403 -0.558815 0
M  V30 END ATOM
M  V30 BEGIN BOND
M  V30 1 1 1 2
M  V30 2 2 2 3
M  V30 3 1 3 4
M  V30 4 1 4 5
M  V30 5 2 4 6
M  V30 6 1 6 7
M  V30 7 2 7 8
M  V30 8 1 8 9
M  V30 9 2 9 10
M  V30 10 1 10 11
M  V30 11 2 11 12
M  V30 12 1 12 13
M  V30 13 2 13 14
M  V30 14 1 14 15
M  V30 15 2 15 16
M  V30 16 1 16 17
M  V30 17 2 17 18
M  V30 18 1 18 19
M  V30 19 2 19 20
M  V30 20 1 10 21
M  V30 21 2 21 22
M  V30 22 1 21 23
M  V30 23 1 23 24
M  V30 24 1 24 25
M  V30 25 1 25 26
M  V30 26 1 26 27
M  V30 27 1 27 28
M  V30 28 1 28 29
M  V30 29 1 29 30
M  V30 30 1 27 31
M  V30 31 1 31 32
M  V30 32 1 8 2
M  V30 33 1 20 11
M  V30 34 1 32 24
M  V30 35 1 23 7
M  V30 36 1 19 14
M  V30 37 1 1 33
M  V30 38 1 1 34
M  V30 39 1 1 35
M  V30 40 1 5 36
M  V30 41 1 5 37
M  V30 42 1 9 38
M  V30 43 1 12 39
M  V30 44 1 15 40
M  V30 45 1 16 41
M  V30 46 1 17 42
M  V30 47 1 18 43
M  V30 48 1 20 44
M  V30 49 1 24 45 CFG=1
M  V30 50 1 25 46
M  V30 51 1 25 47
M  V30 52 1 26 48
M  V30 53 1 26 49
M  V30 54 1 27 50 CFG=3
M  V30 55 1 29 51
M  V30 56 1 29 52
M  V30 57 1 30 53
M  V30 58 1 31 54
M  V30 59 1 31 55
M  V30 60 1 32 56
M  V30 61 1 32 57
M  V30 END BOND
M  V30 END CTAB
M  END
>  <Dataset>  (589) 
ChEMBL_Kinases

>  <Ligand_Instance>  (589) 
nan

>  <PDB_ID>  (589) 
nan

>  <Standardized_SMILES>  (589) 
Cc1nc(N)nc2c1cc(-c1cnc3ccccc3c1)c(=O)n2[C@H]1CC[C@H](OCO)CC1

>  <Name>  (589) 
nan

>  <Pocket>  (589) 
nan

>  <ATP_Site>  (589) 
nan

>  <Peripheral>  (589) 
nan

>  <Num_H_Atoms_ProtBoundConf>  (589) 
nan

>  <Num_Resolved_Atoms>  (589) 
nan

>  <Num_Not_Resolved_Atoms>  (589) 
nan

$$$$
CHEMBL2375964
     RDKit          3D

  0  0  0  0  0  0  0  0  0  0999 V3000
M  V30 BEGIN CTAB
M  V30 COUNTS 58 61 0 0 0
M  V30 BEGIN ATOM
M  V30 1 C -1.868491 -1.373459 7.661293 0
M  V30 2 O -1.423820 -2.200426 6.601824 0
M  V30 3 C -1.340128 -1.680965 5.317690 0
M  V30 4 C -0.895750 -2.551229 4.329327 0
M  V30 5 C -0.814158 -2.022816 3.042072 0
M  V30 6 C -1.162777 -0.710814 2.806372 0
M  V30 7 C -1.109605 -0.066866 1.486033 0
M  V30 8 C -2.207707 0.714428 1.115717 0
M  V30 9 C -2.181336 1.330230 -0.120988 0
M  V30 10 C -3.229332 2.116838 -0.554811 0
M  V30 11 C -4.398158 2.286871 0.349664 0
M  V30 12 N -3.136596 2.691556 -1.781171 0
M  V30 13 C -2.039541 2.496575 -2.560626 0
M  V30 14 N -2.049013 3.151061 -3.835280 0
M  V30 15 N -1.015765 1.730599 -2.141641 0
M  V30 16 C -1.073341 1.138798 -0.918997 0
M  V30 17 N 0.007684 0.380550 -0.575829 0
M  V30 18 C 1.134105 0.234508 -1.482473 0 CFG=1
M  V30 19 C 2.455512 0.453599 -0.869520 0
M  V30 20 C 3.415093 -0.678856 -0.848791 0
M  V30 21 C 3.211951 -1.752681 -1.866713 0 CFG=1
M  V30 22 O 2.585082 -2.864938 -1.283069 0
M  V30 23 C 3.321091 -4.027735 -1.494588 0
M  V30 24 C 2.662138 -5.209073 -0.878766 0
M  V30 25 N 1.432819 -5.244254 -0.146054 0
M  V30 26 O 3.290137 -6.280696 -1.043996 0
M  V30 27 C 2.252184 -1.306294 -2.973454 0
M  V30 28 C 0.952841 -1.084767 -2.187274 0
M  V30 29 C -0.049319 -0.196899 0.618041 0
M  V30 30 O 0.879081 -0.904181 1.022852 0
M  V30 31 C -1.606455 0.136363 3.828077 0
M  V30 32 N -1.677543 -0.401566 5.074198 0
M  V30 33 H -1.648181 -0.326565 7.377745 0
M  V30 34 H -2.988743 -1.433862 7.704130 0
M  V30 35 H -1.430031 -1.635592 8.645193 0
M  V30 36 H -0.620540 -3.577482 4.500182 0
M  V30 37 H -0.476490 -2.624200 2.194801 0
M  V30 38 H -3.034045 0.821424 1.781099 0
M  V30 39 H -5.039837 3.134796 0.054111 0
M  V30 40 H -5.041883 1.385283 0.389927 0
M  V30 41 H -4.069447 2.541366 1.399947 0
M  V30 42 H -1.992699 2.589513 -4.692334 0
M  V30 43 H -2.108977 4.181534 -4.018566 0
M  V30 44 H 0.998952 1.000529 -2.302911 0
M  V30 45 H 2.287579 0.769516 0.198911 0
M  V30 46 H 2.983414 1.359490 -1.294422 0
M  V30 47 H 3.470735 -1.180005 0.144768 0
M  V30 48 H 4.462431 -0.318740 -1.009898 0
M  V30 49 H 4.145079 -2.108071 -2.349586 0
M  V30 50 H 3.332542 -4.174401 -2.602830 0
M  V30 51 H 4.349406 -3.933649 -1.087771 0
M  V30 52 H 0.763067 -5.509343 -0.919002 0
M  V30 53 H 1.406943 -5.032094 0.884114 0
M  V30 54 H 2.062746 -2.152304 -3.641601 0
M  V30 55 H 2.596152 -0.395274 -3.473201 0
M  V30 56 H 0.078852 -0.980819 -2.873988 0
M  V30 57 H 0.824583 -1.913337 -1.487862 0
M  V30 58 H -1.887881 1.170980 3.677190 0
M  V30 END ATOM
M  V30 BEGIN BOND
M  V30 1 1 1 2
M  V30 2 1 2 3
M  V30 3 2 3 4
M  V30 4 1 4 5
M  V30 5 2 5 6
M  V30 6 1 6 7
M  V30 7 2 7 8
M  V30 8 1 8 9
M  V30 9 2 9 10
M  V30 10 1 10 11
M  V30 11 1 10 12
M  V30 12 2 12 13
M  V30 13 1 13 14
M  V30 14 1 13 15
M  V30 15 2 15 16
M  V30 16 1 16 17
M  V30 17 1 17 18
M  V30 18 1 18 19
M  V30 19 1 19 20
M  V30 20 1 20 21
M  V30 21 1 21 22
M  V30 22 1 22 23
M  V30 23 1 23 24
M  V30 24 1 24 25
M  V30 25 2 24 26
M  V30 26 1 21 27
M  V30 27 1 27 28
M  V30 28 1 17 29
M  V30 29 2 29 30
M  V30 30 1 6 31
M  V30 31 2 31 32
M  V30 32 1 32 3
M  V30 33 1 29 7
M  V30 34 1 16 9
M  V30 35 1 28 18
M  V30 36 1 1 33
M  V30 37 1 1 34
M  V30 38 1 1 35
M  V30 39 1 4 36
M  V30 40 1 5 37
M  V30 41 1 8 38
M  V30 42 1 11 39
M  V30 43 1 11 40
M  V30 44 1 11 41
M  V30 45 1 14 42
M  V30 46 1 14 43
M  V30 47 1 18 44 CFG=3
M  V30 48 1 19 45
M  V30 49 1 19 46
M  V30 50 1 20 47
M  V30 51 1 20 48
M  V30 52 1 21 49 CFG=3
M  V30 53 1 23 50
M  V30 54 1 23 51
M  V30 55 1 25 52
M  V30 56 1 25 53
M  V30 57 1 27 54
M  V30 58 1 27 55
M  V30 59 1 28 56
M  V30 60 1 28 57
M  V30 61 1 31 58
M  V30 END BOND
M  V30 END CTAB
M  END
>  <Dataset>  (590) 
ChEMBL_Kinases

>  <Ligand_Instance>  (590) 
nan

>  <PDB_ID>  (590) 
nan

>  <Standardized_SMILES>  (590) 
COc1ccc(-c2cc3c(C)nc(N)nc3n([C@H]3CC[C@@H](OCC(N)=O)CC3)c2=O)cn1

>  <Name>  (590) 
nan

>  <Pocket>  (590) 
nan

>  <ATP_Site>  (590) 
nan

>  <Peripheral>  (590) 
nan

>  <Num_H_Atoms_ProtBoundConf>  (590) 
nan

>  <Num_Resolved_Atoms>  (590) 
nan

>  <Num_Not_Resolved_Atoms>  (590) 
nan

$$$$
CHEMBL2375963
     RDKit          3D

  0  0  0  0  0  0  0  0  0  0999 V3000
M  V30 BEGIN CTAB
M  V30 COUNTS 58 61 0 0 0
M  V30 BEGIN ATOM
M  V30 1 C 3.593092 -2.959914 6.953297 0
M  V30 2 O 3.017118 -1.668417 6.818478 0
M  V30 3 C 2.595911 -1.203338 5.578787 0
M  V30 4 N 2.690859 -1.907211 4.429480 0
M  V30 5 C 2.257415 -1.389154 3.246890 0
M  V30 6 C 1.698731 -0.107639 3.185805 0
M  V30 7 C 1.263327 0.359391 1.873467 0
M  V30 8 C 1.588628 1.637136 1.458658 0
M  V30 9 C 1.162609 2.044158 0.210466 0
M  V30 10 C 1.464152 3.298137 -0.236460 0
M  V30 11 C 2.242467 4.190787 0.637138 0
M  V30 12 N 1.037735 3.663145 -1.451925 0
M  V30 13 C 0.318167 2.822142 -2.244006 0
M  V30 14 N -0.097495 3.287006 -3.523231 0
M  V30 15 N 0.039483 1.595779 -1.772306 0
M  V30 16 C 0.436170 1.163984 -0.562000 0
M  V30 17 N 0.093234 -0.088151 -0.205790 0
M  V30 18 C -0.654314 -1.026350 -0.969134 0 CFG=1
M  V30 19 C -1.659476 -0.383202 -1.907477 0
M  V30 20 C -2.794109 -1.356192 -2.187524 0
M  V30 21 C -2.250470 -2.752421 -2.113594 0 CFG=1
M  V30 22 O -2.952842 -3.653957 -2.909922 0
M  V30 23 C -3.367523 -4.779841 -2.213172 0
M  V30 24 C -4.270460 -4.478144 -1.076096 0
M  V30 25 N -4.882160 -3.373310 -0.429971 0
M  V30 26 O -4.586907 -5.579571 -0.511042 0
M  V30 27 C -0.853235 -2.693402 -2.724706 0
M  V30 28 C 0.141005 -1.983623 -1.812278 0
M  V30 29 C 0.535280 -0.429204 1.018992 0
M  V30 30 O 0.273014 -1.578185 1.455987 0
M  V30 31 C 1.600897 0.613034 4.358740 0
M  V30 32 C 2.043795 0.082504 5.564954 0
M  V30 33 F 1.913662 0.851573 6.673476 0
M  V30 34 H 4.695647 -2.828945 6.949021 0
M  V30 35 H 3.287232 -3.408370 7.920775 0
M  V30 36 H 3.330177 -3.608143 6.113869 0
M  V30 37 H 2.393009 -2.057213 2.406577 0
M  V30 38 H 2.155645 2.270812 2.107696 0
M  V30 39 H 2.362595 5.208710 0.214676 0
M  V30 40 H 3.234323 3.726576 0.812224 0
M  V30 41 H 1.644700 4.290003 1.583306 0
M  V30 42 H -0.940109 3.863538 -3.265979 0
M  V30 43 H 0.455758 2.997072 -4.384099 0
M  V30 44 H -1.205213 -1.680054 -0.224602 0
M  V30 45 H -1.093482 -0.167603 -2.859467 0
M  V30 46 H -2.079588 0.554069 -1.554574 0
M  V30 47 H -3.108028 -1.178615 -3.253413 0
M  V30 48 H -3.678585 -1.151684 -1.588644 0
M  V30 49 H -2.233303 -3.200702 -1.110442 0
M  V30 50 H -3.849313 -5.488262 -2.936333 0
M  V30 51 H -2.491265 -5.364402 -1.819447 0
M  V30 52 H -5.702676 -3.327014 -1.070019 0
M  V30 53 H -4.184287 -3.185526 0.349006 0
M  V30 54 H -0.991760 -2.162770 -3.696439 0
M  V30 55 H -0.526577 -3.714927 -3.005845 0
M  V30 56 H 0.624721 -2.802472 -1.222992 0
M  V30 57 H 0.845165 -1.453860 -2.487449 0
M  V30 58 H 1.162061 1.614379 4.295879 0
M  V30 END ATOM
M  V30 BEGIN BOND
M  V30 1 1 1 2
M  V30 2 1 2 3
M  V30 3 2 3 4
M  V30 4 1 4 5
M  V30 5 2 5 6
M  V30 6 1 6 7
M  V30 7 2 7 8
M  V30 8 1 8 9
M  V30 9 2 9 10
M  V30 10 1 10 11
M  V30 11 1 10 12
M  V30 12 2 12 13
M  V30 13 1 13 14
M  V30 14 1 13 15
M  V30 15 2 15 16
M  V30 16 1 16 17
M  V30 17 1 17 18
M  V30 18 1 18 19
M  V30 19 1 19 20
M  V30 20 1 20 21
M  V30 21 1 21 22
M  V30 22 1 22 23
M  V30 23 1 23 24
M  V30 24 1 24 25
M  V30 25 2 24 26
M  V30 26 1 21 27
M  V30 27 1 27 28
M  V30 28 1 17 29
M  V30 29 2 29 30
M  V30 30 1 6 31
M  V30 31 2 31 32
M  V30 32 1 32 33
M  V30 33 1 32 3
M  V30 34 1 29 7
M  V30 35 1 16 9
M  V30 36 1 28 18
M  V30 37 1 1 34
M  V30 38 1 1 35
M  V30 39 1 1 36
M  V30 40 1 5 37
M  V30 41 1 8 38
M  V30 42 1 11 39
M  V30 43 1 11 40
M  V30 44 1 11 41
M  V30 45 1 14 42
M  V30 46 1 14 43
M  V30 47 1 18 44 CFG=1
M  V30 48 1 19 45
M  V30 49 1 19 46
M  V30 50 1 20 47
M  V30 51 1 20 48
M  V30 52 1 21 49 CFG=1
M  V30 53 1 23 50
M  V30 54 1 23 51
M  V30 55 1 25 52
M  V30 56 1 25 53
M  V30 57 1 27 54
M  V30 58 1 27 55
M  V30 59 1 28 56
M  V30 60 1 28 57
M  V30 61 1 31 58
M  V30 END BOND
M  V30 END CTAB
M  END
>  <Dataset>  (591) 
ChEMBL_Kinases

>  <Ligand_Instance>  (591) 
nan

>  <PDB_ID>  (591) 
nan

>  <Standardized_SMILES>  (591) 
COc1ncc(-c2cc3c(C)nc(N)nc3n([C@H]3CC[C@@H](OCC(N)=O)CC3)c2=O)cc1F

>  <Name>  (591) 
nan

>  <Pocket>  (591) 
nan

>  <ATP_Site>  (591) 
nan

>  <Peripheral>  (591) 
nan

>  <Num_H_Atoms_ProtBoundConf>  (591) 
nan

>  <Num_Resolved_Atoms>  (591) 
nan

>  <Num_Not_Resolved_Atoms>  (591) 
nan

$$$$
CHEMBL2375962
     RDKit          3D

  0  0  0  0  0  0  0  0  0  0999 V3000
M  V30 BEGIN CTAB
M  V30 COUNTS 52 55 0 0 0
M  V30 BEGIN ATOM
M  V30 1 C 4.191385 1.217562 3.886840 0
M  V30 2 C 3.280584 0.157946 3.337189 0
M  V30 3 N 3.468562 -1.156000 3.606735 0
M  V30 4 C 2.614084 -2.084293 3.084350 0
M  V30 5 N 2.847377 -3.473468 3.394268 0
M  V30 6 N 1.572046 -1.741407 2.297077 0
M  V30 7 C 1.382603 -0.457425 2.029526 0
M  V30 8 C 2.219777 0.517715 2.534647 0
M  V30 9 C 1.990740 1.832655 2.235352 0
M  V30 10 C 0.906415 2.128245 1.422361 0
M  V30 11 C 0.694621 3.536362 1.126027 0
M  V30 12 C 1.740503 4.390427 0.760207 0
M  V30 13 N 1.248185 5.623950 0.549231 0
M  V30 14 N -0.067111 5.611072 0.760671 0
M  V30 15 C -0.432091 4.359074 1.111822 0
M  V30 16 C 0.093780 1.123717 0.937953 0
M  V30 17 O -0.854631 1.544366 0.210356 0
M  V30 18 N 0.324612 -0.189144 1.238332 0
M  V30 19 C -0.605562 -1.082609 0.657749 0 CFG=1
M  V30 20 C -0.500719 -1.150155 -0.863231 0
M  V30 21 C -1.859015 -1.655805 -1.316022 0
M  V30 22 C -2.129034 -3.053080 -0.796961 0 CFG=1
M  V30 23 O -1.549822 -3.921559 -1.678107 0
M  V30 24 C -2.390562 -4.706745 -2.408465 0
M  V30 25 C -3.354668 -4.045403 -3.276739 0
M  V30 26 N -3.991680 -2.928290 -3.863821 0
M  V30 27 O -4.075470 -4.899274 -3.899345 0
M  V30 28 C -1.784997 -3.233308 0.640888 0
M  V30 29 C -0.591790 -2.478962 1.147074 0
M  V30 30 H 4.858014 0.730285 4.624335 0
M  V30 31 H 4.780313 1.709273 3.106596 0
M  V30 32 H 3.586729 1.963857 4.479566 0
M  V30 33 H 3.545547 -4.070336 2.882165 0
M  V30 34 H 2.262666 -3.852182 4.178380 0
M  V30 35 H 2.638559 2.595869 2.625337 0
M  V30 36 H 2.791038 4.123506 0.656268 0
M  V30 37 H -0.699708 6.417167 0.672061 0
M  V30 38 H -1.405870 3.955121 1.360762 0
M  V30 39 H -1.636400 -0.680329 0.887594 0
M  V30 40 H 0.234683 -1.913330 -1.128886 0
M  V30 41 H -0.359708 -0.159604 -1.330723 0
M  V30 42 H -1.966262 -1.663147 -2.401979 0
M  V30 43 H -2.606452 -0.970874 -0.857933 0
M  V30 44 H -3.231149 -3.187777 -0.875782 0
M  V30 45 H -2.954850 -5.414714 -1.737539 0
M  V30 46 H -1.753272 -5.369789 -3.039079 0
M  V30 47 H -4.842607 -2.486309 -3.404966 0
M  V30 48 H -3.666852 -2.496087 -4.750232 0
M  V30 49 H -1.568510 -4.325948 0.824748 0
M  V30 50 H -2.652001 -3.005878 1.295553 0
M  V30 51 H 0.300605 -3.065736 0.782534 0
M  V30 52 H -0.678296 -2.515745 2.268947 0
M  V30 END ATOM
M  V30 BEGIN BOND
M  V30 1 1 1 2
M  V30 2 2 2 3
M  V30 3 1 3 4
M  V30 4 1 4 5
M  V30 5 2 4 6
M  V30 6 1 6 7
M  V30 7 2 7 8
M  V30 8 1 8 9
M  V30 9 2 9 10
M  V30 10 1 10 11
M  V30 11 1 11 12
M  V30 12 2 12 13
M  V30 13 1 13 14
M  V30 14 1 14 15
M  V30 15 1 10 16
M  V30 16 2 16 17
M  V30 17 1 16 18
M  V30 18 1 18 19
M  V30 19 1 19 20
M  V30 20 1 20 21
M  V30 21 1 21 22
M  V30 22 1 22 23
M  V30 23 1 23 24
M  V30 24 1 24 25
M  V30 25 1 25 26
M  V30 26 2 25 27
M  V30 27 1 22 28
M  V30 28 1 28 29
M  V30 29 1 8 2
M  V30 30 2 15 11
M  V30 31 1 29 19
M  V30 32 1 18 7
M  V30 33 1 1 30
M  V30 34 1 1 31
M  V30 35 1 1 32
M  V30 36 1 5 33
M  V30 37 1 5 34
M  V30 38 1 9 35
M  V30 39 1 12 36
M  V30 40 1 14 37
M  V30 41 1 15 38
M  V30 42 1 19 39 CFG=3
M  V30 43 1 20 40
M  V30 44 1 20 41
M  V30 45 1 21 42
M  V30 46 1 21 43
M  V30 47 1 22 44 CFG=1
M  V30 48 1 24 45
M  V30 49 1 24 46
M  V30 50 1 26 47
M  V30 51 1 26 48
M  V30 52 1 28 49
M  V30 53 1 28 50
M  V30 54 1 29 51
M  V30 55 1 29 52
M  V30 END BOND
M  V30 END CTAB
M  END
>  <Dataset>  (592) 
ChEMBL_Kinases

>  <Ligand_Instance>  (592) 
nan

>  <PDB_ID>  (592) 
nan

>  <Standardized_SMILES>  (592) 
Cc1nc(N)nc2c1cc(-c1cn[nH]c1)c(=O)n2[C@H]1CC[C@@H](OCC(N)=O)CC1

>  <Name>  (592) 
nan

>  <Pocket>  (592) 
nan

>  <ATP_Site>  (592) 
nan

>  <Peripheral>  (592) 
nan

>  <Num_H_Atoms_ProtBoundConf>  (592) 
nan

>  <Num_Resolved_Atoms>  (592) 
nan

>  <Num_Not_Resolved_Atoms>  (592) 
nan

$$$$
CHEMBL2375961
     RDKit          3D

  0  0  0  0  0  0  0  0  0  0999 V3000
M  V30 BEGIN CTAB
M  V30 COUNTS 57 60 0 0 0
M  V30 BEGIN ATOM
M  V30 1 C -2.290446 -3.736699 7.804442 0
M  V30 2 O -1.172819 -3.920688 6.962590 0
M  V30 3 C -0.960346 -3.077548 5.885756 0
M  V30 4 N -1.652105 -2.021700 5.425015 0
M  V30 5 C -1.246027 -1.343653 4.339455 0
M  V30 6 C -0.102339 -1.681384 3.630034 0
M  V30 7 C 0.238243 -0.873050 2.465150 0
M  V30 8 C 1.571456 -0.531544 2.390559 0
M  V30 9 C 1.945651 0.229702 1.304645 0
M  V30 10 C 3.253528 0.623860 1.135554 0
M  V30 11 C 4.325785 0.256512 2.104744 0
M  V30 12 N 3.574833 1.376167 0.043327 0
M  V30 13 C 2.632437 1.726911 -0.851993 0
M  V30 14 N 2.982137 2.508147 -1.983271 0
M  V30 15 N 1.358685 1.346560 -0.692367 0
M  V30 16 C 1.008922 0.606674 0.369594 0
M  V30 17 N -0.294977 0.291676 0.412372 0
M  V30 18 C -1.396773 0.573339 -0.431569 0 CFG=1
M  V30 19 C -1.244892 1.552848 -1.520534 0
M  V30 20 C -0.944302 1.014478 -2.885591 0
M  V30 21 C -1.889115 -0.055790 -3.361121 0 CFG=1
M  V30 22 O -1.105165 -1.230788 -3.456716 0
M  V30 23 C -1.169006 -1.799062 -4.703335 0
M  V30 24 C -0.320328 -3.018945 -4.706159 0
M  V30 25 N 0.513967 -3.743222 -3.811018 0
M  V30 26 O -0.348226 -3.580074 -5.843374 0
M  V30 27 C -2.862848 -0.347297 -2.241807 0
M  V30 28 C -1.987159 -0.697153 -1.040063 0
M  V30 29 C -0.651701 -0.463819 1.495552 0
M  V30 30 O -1.824927 -0.895451 1.773842 0
M  V30 31 C 0.586780 -2.765448 4.122905 0
M  V30 32 N 0.170341 -3.436090 5.210711 0
M  V30 33 H -2.716075 -4.708520 8.142422 0
M  V30 34 H -3.116791 -3.220816 7.243015 0
M  V30 35 H -2.086593 -3.156950 8.718229 0
M  V30 36 H -1.908505 -0.505024 4.078437 0
M  V30 37 H 2.304059 -0.822714 3.114925 0
M  V30 38 H 4.678127 -0.782849 1.940496 0
M  V30 39 H 3.960383 0.357548 3.146481 0
M  V30 40 H 5.204105 0.947879 1.952866 0
M  V30 41 H 3.801779 2.663075 -2.574988 0
M  V30 42 H 2.360207 3.171416 -2.493937 0
M  V30 43 H -2.229811 0.948653 0.251076 0
M  V30 44 H -0.582711 2.418336 -1.342223 0
M  V30 45 H -2.266802 2.058280 -1.638484 0
M  V30 46 H -1.119232 1.886937 -3.588762 0
M  V30 47 H 0.115609 0.756022 -3.057485 0
M  V30 48 H -2.394963 0.172266 -4.299767 0
M  V30 49 H -0.821762 -1.109126 -5.517994 0
M  V30 50 H -2.177953 -2.126856 -4.988405 0
M  V30 51 H 1.316090 -3.247635 -3.330815 0
M  V30 52 H 0.317117 -4.751078 -3.645230 0
M  V30 53 H -3.538275 0.496663 -2.021788 0
M  V30 54 H -3.418779 -1.263733 -2.512225 0
M  V30 55 H -1.157335 -1.306035 -1.447027 0
M  V30 56 H -2.646251 -1.241690 -0.353633 0
M  V30 57 H 1.487111 -3.035271 3.568577 0
M  V30 END ATOM
M  V30 BEGIN BOND
M  V30 1 1 1 2
M  V30 2 1 2 3
M  V30 3 2 3 4
M  V30 4 1 4 5
M  V30 5 2 5 6
M  V30 6 1 6 7
M  V30 7 2 7 8
M  V30 8 1 8 9
M  V30 9 2 9 10
M  V30 10 1 10 11
M  V30 11 1 10 12
M  V30 12 2 12 13
M  V30 13 1 13 14
M  V30 14 1 13 15
M  V30 15 2 15 16
M  V30 16 1 16 17
M  V30 17 1 17 18
M  V30 18 1 18 19
M  V30 19 1 19 20
M  V30 20 1 20 21
M  V30 21 1 21 22
M  V30 22 1 22 23
M  V30 23 1 23 24
M  V30 24 1 24 25
M  V30 25 2 24 26
M  V30 26 1 21 27
M  V30 27 1 27 28
M  V30 28 1 17 29
M  V30 29 2 29 30
M  V30 30 1 6 31
M  V30 31 2 31 32
M  V30 32 1 32 3
M  V30 33 1 29 7
M  V30 34 1 16 9
M  V30 35 1 28 18
M  V30 36 1 1 33
M  V30 37 1 1 34
M  V30 38 1 1 35
M  V30 39 1 5 36
M  V30 40 1 8 37
M  V30 41 1 11 38
M  V30 42 1 11 39
M  V30 43 1 11 40
M  V30 44 1 14 41
M  V30 45 1 14 42
M  V30 46 1 18 43 CFG=1
M  V30 47 1 19 44
M  V30 48 1 19 45
M  V30 49 1 20 46
M  V30 50 1 20 47
M  V30 51 1 21 48 CFG=3
M  V30 52 1 23 49
M  V30 53 1 23 50
M  V30 54 1 25 51
M  V30 55 1 25 52
M  V30 56 1 27 53
M  V30 57 1 27 54
M  V30 58 1 28 55
M  V30 59 1 28 56
M  V30 60 1 31 57
M  V30 END BOND
M  V30 END CTAB
M  END
>  <Dataset>  (593) 
ChEMBL_Kinases

>  <Ligand_Instance>  (593) 
nan

>  <PDB_ID>  (593) 
nan

>  <Standardized_SMILES>  (593) 
COc1ncc(-c2cc3c(C)nc(N)nc3n([C@H]3CC[C@@H](OCC(N)=O)CC3)c2=O)cn1

>  <Name>  (593) 
nan

>  <Pocket>  (593) 
nan

>  <ATP_Site>  (593) 
nan

>  <Peripheral>  (593) 
nan

>  <Num_H_Atoms_ProtBoundConf>  (593) 
nan

>  <Num_Resolved_Atoms>  (593) 
nan

>  <Num_Not_Resolved_Atoms>  (593) 
nan

$$$$
CHEMBL2375960
     RDKit          3D

  0  0  0  0  0  0  0  0  0  0999 V3000
M  V30 BEGIN CTAB
M  V30 COUNTS 55 58 0 0 0
M  V30 BEGIN ATOM
M  V30 1 C 1.293329 1.903362 4.525913 0
M  V30 2 C 0.683187 0.785271 3.777503 0
M  V30 3 N 0.206957 -0.295723 4.450521 0
M  V30 4 C -0.346298 -1.307247 3.757615 0
M  V30 5 N -0.868469 -2.472145 4.371958 0
M  V30 6 N -0.436329 -1.268935 2.420456 0
M  V30 7 C 0.007736 -0.241196 1.674180 0
M  V30 8 C 0.572485 0.789060 2.394170 0
M  V30 9 C 1.079923 1.917342 1.784657 0
M  V30 10 C 0.998490 1.973657 0.408199 0
M  V30 11 C 1.496513 3.108707 -0.362844 0
M  V30 12 C 0.754803 3.670075 -1.397756 0
M  V30 13 N 1.482841 4.665622 -1.881366 0
M  V30 14 N 2.638430 4.781422 -1.229205 0
M  V30 15 C 3.686509 5.754596 -1.479394 0
M  V30 16 C 2.673923 3.826394 -0.279797 0
M  V30 17 C 0.424380 0.916103 -0.260939 0
M  V30 18 O 0.351209 0.964287 -1.492376 0
M  V30 19 N -0.075862 -0.190852 0.310562 0
M  V30 20 C -0.688454 -1.343985 -0.250696 0 CFG=1
M  V30 21 C -2.158821 -1.412339 0.183781 0
M  V30 22 C -2.656135 -2.818781 0.098445 0
M  V30 23 C -1.864057 -3.555564 -0.953423 0 CFG=1
M  V30 24 O -2.553298 -4.688093 -1.398671 0
M  V30 25 C -1.840086 -5.822404 -1.083802 0
M  V30 26 C -1.596071 -6.018117 0.359752 0
M  V30 27 N -0.846173 -7.223425 0.602977 0
M  V30 28 O -1.580340 -5.864473 1.607325 0
M  V30 29 C -1.596342 -2.623179 -2.111753 0
M  V30 30 C -0.691447 -1.470849 -1.728964 0
M  V30 31 H 0.983567 1.826858 5.586350 0
M  V30 32 H 0.837537 2.874350 4.177838 0
M  V30 33 H 2.394179 1.965897 4.413077 0
M  V30 34 H -1.854552 -2.199824 4.497491 0
M  V30 35 H -0.402565 -3.366824 4.633233 0
M  V30 36 H 1.538341 2.770544 2.265184 0
M  V30 37 H -0.229217 3.432532 -1.818389 0
M  V30 38 H 3.591897 6.110504 -2.520333 0
M  V30 39 H 4.682523 5.309563 -1.336784 0
M  V30 40 H 3.551477 6.647216 -0.818975 0
M  V30 41 H 3.441356 3.597504 0.449777 0
M  V30 42 H -0.148173 -2.230273 0.195521 0
M  V30 43 H -2.363101 -0.884631 1.112505 0
M  V30 44 H -2.729194 -0.838837 -0.606944 0
M  V30 45 H -3.750771 -2.867648 -0.162594 0
M  V30 46 H -2.582693 -3.361022 1.068299 0
M  V30 47 H -0.945314 -3.941794 -0.479885 0
M  V30 48 H -0.833507 -5.732774 -1.579593 0
M  V30 49 H -2.307188 -6.731866 -1.459843 0
M  V30 50 H -0.939997 -8.268381 0.641937 0
M  V30 51 H 0.066407 -7.696991 0.841323 0
M  V30 52 H -1.154921 -3.240898 -2.921522 0
M  V30 53 H -2.580214 -2.291420 -2.514974 0
M  V30 54 H -1.176083 -0.576852 -2.206993 0
M  V30 55 H 0.302756 -1.684459 -2.165486 0
M  V30 END ATOM
M  V30 BEGIN BOND
M  V30 1 1 1 2
M  V30 2 2 2 3
M  V30 3 1 3 4
M  V30 4 1 4 5
M  V30 5 2 4 6
M  V30 6 1 6 7
M  V30 7 2 7 8
M  V30 8 1 8 9
M  V30 9 2 9 10
M  V30 10 1 10 11
M  V30 11 1 11 12
M  V30 12 2 12 13
M  V30 13 1 13 14
M  V30 14 1 14 15
M  V30 15 1 14 16
M  V30 16 1 10 17
M  V30 17 2 17 18
M  V30 18 1 17 19
M  V30 19 1 19 20
M  V30 20 1 20 21
M  V30 21 1 21 22
M  V30 22 1 22 23
M  V30 23 1 23 24
M  V30 24 1 24 25
M  V30 25 1 25 26
M  V30 26 1 26 27
M  V30 27 2 26 28
M  V30 28 1 23 29
M  V30 29 1 29 30
M  V30 30 1 8 2
M  V30 31 2 16 11
M  V30 32 1 30 20
M  V30 33 1 19 7
M  V30 34 1 1 31
M  V30 35 1 1 32
M  V30 36 1 1 33
M  V30 37 1 5 34
M  V30 38 1 5 35
M  V30 39 1 9 36
M  V30 40 1 12 37
M  V30 41 1 15 38
M  V30 42 1 15 39
M  V30 43 1 15 40
M  V30 44 1 16 41
M  V30 45 1 20 42 CFG=1
M  V30 46 1 21 43
M  V30 47 1 21 44
M  V30 48 1 22 45
M  V30 49 1 22 46
M  V30 50 1 23 47 CFG=1
M  V30 51 1 25 48
M  V30 52 1 25 49
M  V30 53 1 27 50
M  V30 54 1 27 51
M  V30 55 1 29 52
M  V30 56 1 29 53
M  V30 57 1 30 54
M  V30 58 1 30 55
M  V30 END BOND
M  V30 END CTAB
M  END
>  <Dataset>  (594) 
ChEMBL_Kinases

>  <Ligand_Instance>  (594) 
nan

>  <PDB_ID>  (594) 
nan

>  <Standardized_SMILES>  (594) 
Cc1nc(N)nc2c1cc(-c1cnn(C)c1)c(=O)n2[C@H]1CC[C@@H](OCC(N)=O)CC1

>  <Name>  (594) 
nan

>  <Pocket>  (594) 
nan

>  <ATP_Site>  (594) 
nan

>  <Peripheral>  (594) 
nan

>  <Num_H_Atoms_ProtBoundConf>  (594) 
nan

>  <Num_Resolved_Atoms>  (594) 
nan

>  <Num_Not_Resolved_Atoms>  (594) 
nan

$$$$
CHEMBL2375673
     RDKit          3D

  0  0  0  0  0  0  0  0  0  0999 V3000
M  V30 BEGIN CTAB
M  V30 COUNTS 52 55 0 0 0
M  V30 BEGIN ATOM
M  V30 1 C 1.858604 -4.651630 2.356845 0
M  V30 2 C 1.333239 -3.568493 2.240400 0
M  V30 3 C 0.716483 -2.263893 2.112078 0
M  V30 4 C 1.284362 -1.270052 1.304053 0
M  V30 5 C 2.530995 -1.662724 0.613155 0
M  V30 6 C 2.140291 -2.228627 -0.754768 0
M  V30 7 C 3.413537 -2.671632 -1.488707 0
M  V30 8 N 4.149177 -1.453519 -1.764776 0
M  V30 9 C 4.588988 -0.830593 -0.537083 0
M  V30 10 C 3.423563 -0.489495 0.371669 0
M  V30 11 C 0.597543 -0.087188 1.275739 0
M  V30 12 C -0.561080 0.101822 1.989765 0
M  V30 13 C -1.226821 1.406719 1.895306 0
M  V30 14 C -0.998831 2.494512 2.714362 0
M  V30 15 O -0.052602 2.330781 3.714930 0
M  V30 16 C -1.719653 3.648065 2.479772 0
M  V30 17 C -2.651125 3.757664 1.468454 0
M  V30 18 C -2.885168 2.663118 0.638980 0
M  V30 19 C -2.160463 1.488525 0.867208 0
M  V30 20 O -2.436395 0.449877 0.018270 0
M  V30 21 C -3.363545 0.460313 -1.038657 0
M  V30 22 C -3.381622 -0.868191 -1.741932 0
M  V30 23 C -3.748537 -2.058111 -0.910860 0
M  V30 24 C -2.342672 -1.885746 -1.515739 0
M  V30 25 N -1.073330 -0.899696 2.762966 0
M  V30 26 C -0.443644 -2.087085 2.832219 0
M  V30 27 N -0.997089 -3.114594 3.644556 0
M  V30 28 H 2.317199 -5.615085 2.447623 0
M  V30 29 H 3.052824 -2.490821 1.142581 0
M  V30 30 H 1.755676 -1.367602 -1.338498 0
M  V30 31 H 1.430949 -3.061550 -0.649615 0
M  V30 32 H 4.001520 -3.397653 -0.901776 0
M  V30 33 H 3.082027 -3.064426 -2.473196 0
M  V30 34 H 3.474639 -0.817539 -2.279096 0
M  V30 35 H 5.106837 0.113747 -0.775530 0
M  V30 36 H 5.272081 -1.515784 -0.023007 0
M  V30 37 H 3.885225 -0.232832 1.367102 0
M  V30 38 H 2.884191 0.401216 0.043409 0
M  V30 39 H 1.007568 0.678236 0.669804 0
M  V30 40 H -0.156717 2.851056 4.586599 0
M  V30 41 H -1.518641 4.482420 3.137866 0
M  V30 42 H -3.193101 4.704163 1.332667 0
M  V30 43 H -3.610946 2.725577 -0.160593 0
M  V30 44 H -3.127735 1.232097 -1.795090 0
M  V30 45 H -4.384065 0.637829 -0.605094 0
M  V30 46 H -3.835465 -0.834162 -2.762242 0
M  V30 47 H -4.321561 -2.914010 -1.350230 0
M  V30 48 H -3.818975 -1.894196 0.195005 0
M  V30 49 H -1.524794 -1.802261 -0.792431 0
M  V30 50 H -2.074024 -2.564406 -2.373092 0
M  V30 51 H -0.948819 -2.937730 4.688647 0
M  V30 52 H -1.385758 -3.922954 3.103670 0
M  V30 END ATOM
M  V30 BEGIN BOND
M  V30 1 3 1 2
M  V30 2 1 2 3
M  V30 3 2 3 4
M  V30 4 1 4 5
M  V30 5 1 5 6
M  V30 6 1 6 7
M  V30 7 1 7 8
M  V30 8 1 8 9
M  V30 9 1 9 10
M  V30 10 1 4 11
M  V30 11 2 11 12
M  V30 12 1 12 13
M  V30 13 2 13 14
M  V30 14 1 14 15
M  V30 15 1 14 16
M  V30 16 2 16 17
M  V30 17 1 17 18
M  V30 18 2 18 19
M  V30 19 1 19 20
M  V30 20 1 20 21
M  V30 21 1 21 22
M  V30 22 1 22 23
M  V30 23 1 23 24
M  V30 24 1 12 25
M  V30 25 2 25 26
M  V30 26 1 26 27
M  V30 27 1 26 3
M  V30 28 1 10 5
M  V30 29 1 19 13
M  V30 30 1 24 22
M  V30 31 1 1 28
M  V30 32 1 5 29
M  V30 33 1 6 30
M  V30 34 1 6 31
M  V30 35 1 7 32
M  V30 36 1 7 33
M  V30 37 1 8 34
M  V30 38 1 9 35
M  V30 39 1 9 36
M  V30 40 1 10 37
M  V30 41 1 10 38
M  V30 42 1 11 39
M  V30 43 1 15 40
M  V30 44 1 16 41
M  V30 45 1 17 42
M  V30 46 1 18 43
M  V30 47 1 21 44
M  V30 48 1 21 45
M  V30 49 1 22 46
M  V30 50 1 23 47
M  V30 51 1 23 48
M  V30 52 1 24 49
M  V30 53 1 24 50
M  V30 54 1 27 51
M  V30 55 1 27 52
M  V30 END BOND
M  V30 END CTAB
M  END
>  <Dataset>  (595) 
ChEMBL_Kinases

>  <Ligand_Instance>  (595) 
nan

>  <PDB_ID>  (595) 
nan

>  <Standardized_SMILES>  (595) 
C#Cc1c(C2CCNCC2)cc(-c2c(O)cccc2OCC2CC2)nc1N

>  <Name>  (595) 
nan

>  <Pocket>  (595) 
nan

>  <ATP_Site>  (595) 
nan

>  <Peripheral>  (595) 
nan

>  <Num_H_Atoms_ProtBoundConf>  (595) 
nan

>  <Num_Resolved_Atoms>  (595) 
nan

>  <Num_Not_Resolved_Atoms>  (595) 
nan

$$$$
CHEMBL2375674
     RDKit          3D

  0  0  0  0  0  0  0  0  0  0999 V3000
M  V30 BEGIN CTAB
M  V30 COUNTS 38 41 0 0 0
M  V30 BEGIN ATOM
M  V30 1 C -0.362768 -3.840216 6.056234 0
M  V30 2 N 0.746487 -3.185361 5.317762 0
M  V30 3 C -0.032342 -2.718907 4.443800 0
M  V30 4 N 1.232098 -2.242069 4.006013 0
M  V30 5 C 1.314250 -1.441115 2.816553 0
M  V30 6 S 2.664560 -0.576166 1.779535 0
M  V30 7 C 1.560793 0.073222 0.555501 0
M  V30 8 C 1.652255 0.876647 -0.695116 0
M  V30 9 C 2.919437 1.174625 -1.214655 0
M  V30 10 C 2.773247 1.935596 -2.336071 0
M  V30 11 C 1.686919 2.419925 -2.987832 0
M  V30 12 S 1.526050 3.403839 -4.452233 0
M  V30 13 C 1.353943 2.352659 -5.924216 0
M  V30 14 C 0.451912 2.061944 -2.381914 0
M  V30 15 C 0.501400 1.292352 -1.243245 0
M  V30 16 N 0.881840 -0.467016 1.235427 0
M  V30 17 C 0.201667 -1.076903 2.021139 0
M  V30 18 C -1.013276 -1.536075 2.446856 0
M  V30 19 C -0.812504 -2.250938 3.567269 0
M  V30 20 N -2.108247 -2.662469 3.878177 0
M  V30 21 C -2.949867 -2.203733 2.990016 0
M  V30 22 N -2.265487 -1.463611 2.038111 0
M  V30 23 C -2.487843 -0.701246 0.833537 0
M  V30 24 H -0.717675 -3.232502 6.905401 0
M  V30 25 H -0.078538 -4.843631 6.462217 0
M  V30 26 H -1.241011 -4.120418 5.393264 0
M  V30 27 H 1.288511 -3.639747 6.125395 0
M  V30 28 H 3.841192 0.845801 -0.789420 0
M  V30 29 H 3.698317 2.258098 -2.864914 0
M  V30 30 H 1.696323 1.317283 -5.684251 0
M  V30 31 H 1.919372 2.777877 -6.783684 0
M  V30 32 H 0.272961 2.249673 -6.217706 0
M  V30 33 H -0.514987 2.340599 -2.746273 0
M  V30 34 H -0.460037 1.011137 -0.772294 0
M  V30 35 H -4.011927 -2.267272 2.829011 0
M  V30 36 H -3.446671 -1.104646 0.410744 0
M  V30 37 H -1.723248 -1.016174 0.059508 0
M  V30 38 H -2.482386 0.377803 1.004536 0
M  V30 END ATOM
M  V30 BEGIN BOND
M  V30 1 1 1 2
M  V30 2 1 2 3
M  V30 3 2 3 4
M  V30 4 1 4 5
M  V30 5 1 5 6
M  V30 6 1 6 7
M  V30 7 1 7 8
M  V30 8 2 8 9
M  V30 9 1 9 10
M  V30 10 2 10 11
M  V30 11 1 11 12
M  V30 12 1 12 13
M  V30 13 1 11 14
M  V30 14 2 14 15
M  V30 15 2 7 16
M  V30 16 1 16 17
M  V30 17 1 17 18
M  V30 18 2 18 19
M  V30 19 1 19 20
M  V30 20 2 20 21
M  V30 21 1 21 22
M  V30 22 1 22 23
M  V30 23 1 19 3
M  V30 24 2 17 5
M  V30 25 1 22 18
M  V30 26 1 15 8
M  V30 27 1 1 24
M  V30 28 1 1 25
M  V30 29 1 1 26
M  V30 30 1 2 27
M  V30 31 1 9 28
M  V30 32 1 10 29
M  V30 33 1 13 30
M  V30 34 1 13 31
M  V30 35 1 13 32
M  V30 36 1 14 33
M  V30 37 1 15 34
M  V30 38 1 21 35
M  V30 39 1 23 36
M  V30 40 1 23 37
M  V30 41 1 23 38
M  V30 END BOND
M  V30 END CTAB
M  END
>  <Dataset>  (596) 
ChEMBL_Kinases

>  <Ligand_Instance>  (596) 
nan

>  <PDB_ID>  (596) 
nan

>  <Standardized_SMILES>  (596) 
CNc1nc2sc(-c3ccc(SC)cc3)nc2c2c1ncn2C

>  <Name>  (596) 
nan

>  <Pocket>  (596) 
nan

>  <ATP_Site>  (596) 
nan

>  <Peripheral>  (596) 
nan

>  <Num_H_Atoms_ProtBoundConf>  (596) 
nan

>  <Num_Resolved_Atoms>  (596) 
nan

>  <Num_Not_Resolved_Atoms>  (596) 
nan

$$$$
CHEMBL2375675
     RDKit          3D

  0  0  0  0  0  0  0  0  0  0999 V3000
M  V30 BEGIN CTAB
M  V30 COUNTS 37 40 0 0 0
M  V30 BEGIN ATOM
M  V30 1 C -3.551274 0.679774 0.757493 0
M  V30 2 C -2.711179 -0.304737 0.064053 0
M  V30 3 C -3.068153 -1.174932 -0.960501 0
M  V30 4 N -1.999349 -1.893221 -1.297892 0
M  V30 5 C -0.925319 -1.563354 -0.559320 0
M  V30 6 C 0.429360 -1.881837 -0.379935 0
M  V30 7 N 0.744500 -2.892678 -1.291669 0
M  V30 8 C 1.054952 -3.887994 -2.189344 0
M  V30 9 C 2.138799 -3.619933 -3.222569 0
M  V30 10 N 2.339511 -4.755716 -4.076383 0
M  V30 11 N 1.195606 -1.274158 0.528442 0
M  V30 12 C 0.757561 -0.316854 1.345894 0
M  V30 13 C 1.524407 0.302705 2.269408 0
M  V30 14 C 0.882695 1.225496 2.978151 0
M  V30 15 C 1.386442 2.077037 4.038580 0
M  V30 16 N 2.613533 2.117698 4.522481 0
M  V30 17 C 2.701829 3.036373 5.497771 0
M  V30 18 C 1.415617 3.583509 5.596571 0
M  V30 19 N 0.644618 2.974174 4.693127 0
M  V30 20 S -0.787732 1.265911 2.395130 0
M  V30 21 C -0.571250 -0.043476 1.130224 0
M  V30 22 N -1.417690 -0.601379 0.242578 0
M  V30 23 H -3.442619 1.699240 0.301329 0
M  V30 24 H -4.617467 0.416708 0.582786 0
M  V30 25 H -3.310172 0.812965 1.824242 0
M  V30 26 H -4.046315 -1.274880 -1.427091 0
M  V30 27 H 1.777430 -3.025544 -1.021197 0
M  V30 28 H 1.188144 -4.931989 -1.772156 0
M  V30 29 H 0.124200 -4.078588 -2.864067 0
M  V30 30 H 3.085525 -3.347706 -2.755828 0
M  V30 31 H 1.768564 -2.755188 -3.843111 0
M  V30 32 H 2.228034 -4.474855 -5.090240 0
M  V30 33 H 3.315427 -5.151072 -4.042700 0
M  V30 34 H 2.567961 0.130377 2.482917 0
M  V30 35 H 3.481003 3.415210 6.167130 0
M  V30 36 H 1.066796 4.356980 6.264679 0
M  V30 37 H -0.386345 3.199509 4.553988 0
M  V30 END ATOM
M  V30 BEGIN BOND
M  V30 1 1 1 2
M  V30 2 2 2 3
M  V30 3 1 3 4
M  V30 4 2 4 5
M  V30 5 1 5 6
M  V30 6 1 6 7
M  V30 7 1 7 8
M  V30 8 1 8 9
M  V30 9 1 9 10
M  V30 10 2 6 11
M  V30 11 1 11 12
M  V30 12 1 12 13
M  V30 13 2 13 14
M  V30 14 1 14 15
M  V30 15 2 15 16
M  V30 16 1 16 17
M  V30 17 2 17 18
M  V30 18 1 18 19
M  V30 19 1 14 20
M  V30 20 1 20 21
M  V30 21 1 21 22
M  V30 22 1 22 2
M  V30 23 1 22 5
M  V30 24 2 21 12
M  V30 25 1 19 15
M  V30 26 1 1 23
M  V30 27 1 1 24
M  V30 28 1 1 25
M  V30 29 1 3 26
M  V30 30 1 7 27
M  V30 31 1 8 28
M  V30 32 1 8 29
M  V30 33 1 9 30
M  V30 34 1 9 31
M  V30 35 1 10 32
M  V30 36 1 10 33
M  V30 37 1 13 34
M  V30 38 1 17 35
M  V30 39 1 18 36
M  V30 40 1 19 37
M  V30 END BOND
M  V30 END CTAB
M  END
>  <Dataset>  (597) 
ChEMBL_Kinases

>  <Ligand_Instance>  (597) 
nan

>  <PDB_ID>  (597) 
nan

>  <Standardized_SMILES>  (597) 
Cc1cnc2c(NCCN)nc3cc(-c4ncc[nH]4)sc3n12

>  <Name>  (597) 
nan

>  <Pocket>  (597) 
nan

>  <ATP_Site>  (597) 
nan

>  <Peripheral>  (597) 
nan

>  <Num_H_Atoms_ProtBoundConf>  (597) 
nan

>  <Num_Resolved_Atoms>  (597) 
nan

>  <Num_Not_Resolved_Atoms>  (597) 
nan

$$$$
CHEMBL2375676
     RDKit          3D

  0  0  0  0  0  0  0  0  0  0999 V3000
M  V30 BEGIN CTAB
M  V30 COUNTS 44 47 0 0 0
M  V30 BEGIN ATOM
M  V30 1 C -2.278434 -6.834637 -2.387521 0
M  V30 2 C -2.209786 -5.808812 -3.483723 0
M  V30 3 N -1.756479 -4.517987 -3.027521 0
M  V30 4 C -1.504633 -3.201128 -3.566782 0
M  V30 5 O -1.766353 -3.167533 -4.793127 0
M  V30 6 C -1.003313 -2.156855 -2.613759 0
M  V30 7 C -0.181409 -2.657302 -1.573089 0
M  V30 8 C 0.047897 -1.592271 -0.841692 0
M  V30 9 C -0.156928 -0.328624 -0.683259 0
M  V30 10 C 0.223329 0.718009 0.276593 0
M  V30 11 N 0.998624 0.564641 1.180148 0
M  V30 12 C 1.276901 1.575213 2.055829 0
M  V30 13 C 0.603724 2.845655 1.854815 0
M  V30 14 N 0.753724 3.938229 2.664711 0
M  V30 15 C 1.579429 3.994445 3.824124 0
M  V30 16 N 1.287878 5.230078 4.117328 0
M  V30 17 C 1.646737 5.344172 5.532178 0
M  V30 18 C 1.875085 2.741405 3.526784 0
M  V30 19 N 2.819310 2.687502 4.704228 0
M  V30 20 C 3.355414 1.492985 4.767860 0
M  V30 21 N 2.928761 0.703948 3.793230 0
M  V30 22 C 3.234233 -0.638631 3.403599 0
M  V30 23 C 2.143148 1.490534 3.192725 0
M  V30 24 S -0.420684 2.379048 0.294065 0
M  V30 25 C -0.987709 0.039355 -1.791121 0
M  V30 26 C -1.462673 -0.835111 -2.819952 0
M  V30 27 H -3.157471 -7.503445 -2.632876 0
M  V30 28 H -1.399306 -7.512966 -2.419060 0
M  V30 29 H -2.440714 -6.408284 -1.370643 0
M  V30 30 H -1.550768 -6.185260 -4.318401 0
M  V30 31 H -3.228820 -5.655152 -3.910085 0
M  V30 32 H -1.596429 -4.540252 -1.965639 0
M  V30 33 H 0.110624 -3.660860 -1.507620 0
M  V30 34 H 0.707626 -1.902819 0.040019 0
M  V30 35 H 0.953848 6.093347 3.734627 0
M  V30 36 H 2.006809 4.433779 6.020899 0
M  V30 37 H 2.518779 6.050766 5.621475 0
M  V30 38 H 0.762393 5.696258 6.098539 0
M  V30 39 H 4.086972 0.978595 5.461936 0
M  V30 40 H 2.677416 -1.353605 4.075396 0
M  V30 41 H 3.023543 -0.871040 2.362485 0
M  V30 42 H 4.326823 -0.872541 3.588023 0
M  V30 43 H -1.365131 1.055044 -1.985562 0
M  V30 44 H -2.084100 -0.518710 -3.622596 0
M  V30 END ATOM
M  V30 BEGIN BOND
M  V30 1 1 1 2
M  V30 2 1 2 3
M  V30 3 1 3 4
M  V30 4 2 4 5
M  V30 5 1 4 6
M  V30 6 2 6 7
M  V30 7 1 7 8
M  V30 8 2 8 9
M  V30 9 1 9 10
M  V30 10 2 10 11
M  V30 11 1 11 12
M  V30 12 2 12 13
M  V30 13 1 13 14
M  V30 14 2 14 15
M  V30 15 1 15 16
M  V30 16 1 16 17
M  V30 17 1 15 18
M  V30 18 1 18 19
M  V30 19 2 19 20
M  V30 20 1 20 21
M  V30 21 1 21 22
M  V30 22 1 21 23
M  V30 23 1 13 24
M  V30 24 1 9 25
M  V30 25 2 25 26
M  V30 26 1 26 6
M  V30 27 1 24 10
M  V30 28 1 23 12
M  V30 29 2 23 18
M  V30 30 1 1 27
M  V30 31 1 1 28
M  V30 32 1 1 29
M  V30 33 1 2 30
M  V30 34 1 2 31
M  V30 35 1 3 32
M  V30 36 1 7 33
M  V30 37 1 8 34
M  V30 38 1 16 35
M  V30 39 1 17 36
M  V30 40 1 17 37
M  V30 41 1 17 38
M  V30 42 1 20 39
M  V30 43 1 22 40
M  V30 44 1 22 41
M  V30 45 1 22 42
M  V30 46 1 25 43
M  V30 47 1 26 44
M  V30 END BOND
M  V30 END CTAB
M  END
>  <Dataset>  (598) 
ChEMBL_Kinases

>  <Ligand_Instance>  (598) 
nan

>  <PDB_ID>  (598) 
nan

>  <Standardized_SMILES>  (598) 
CCNC(=O)c1ccc(-c2nc3c(nc(NC)c4ncn(C)c43)s2)cc1

>  <Name>  (598) 
nan

>  <Pocket>  (598) 
nan

>  <ATP_Site>  (598) 
nan

>  <Peripheral>  (598) 
nan

>  <Num_H_Atoms_ProtBoundConf>  (598) 
nan

>  <Num_Resolved_Atoms>  (598) 
nan

>  <Num_Not_Resolved_Atoms>  (598) 
nan

$$$$
CHEMBL2375677
     RDKit          3D

  0  0  0  0  0  0  0  0  0  0999 V3000
M  V30 BEGIN CTAB
M  V30 COUNTS 48 52 0 0 0
M  V30 BEGIN ATOM
M  V30 1 C -2.090110 -8.993884 2.325704 0
M  V30 2 N -1.632457 -7.716462 1.964915 0
M  V30 3 C -1.180758 -6.457076 1.609377 0
M  V30 4 N 0.036397 -5.878569 1.789494 0
M  V30 5 C 0.216204 -4.603333 1.377411 0
M  V30 6 S 1.597885 -3.484013 1.432223 0
M  V30 7 C 0.610539 -2.096259 0.610405 0
M  V30 8 C 1.384887 -0.852264 0.419624 0
M  V30 9 C 2.729180 -0.707523 0.636049 0
M  V30 10 C 3.301518 0.538423 0.461441 0
M  V30 11 C 2.472732 1.598626 0.069701 0
M  V30 12 C 3.041462 2.948049 -0.179583 0
M  V30 13 O 4.152413 3.371151 -0.593958 0
M  V30 14 N 2.205298 4.096365 0.089757 0
M  V30 15 C 2.629598 5.461886 -0.123298 0
M  V30 16 C 1.708168 6.490327 0.308762 0
M  V30 17 C 1.818599 6.993587 1.548465 0
M  V30 18 C 1.131447 7.932280 2.222624 0
M  V30 19 C 0.054594 8.425597 1.263806 0
M  V30 20 S 0.319462 7.407530 -0.347664 0
M  V30 21 C 1.106156 1.471806 -0.155397 0
M  V30 22 C 0.564571 0.196424 0.030556 0
M  V30 23 N -0.428116 -2.650448 0.463796 0
M  V30 24 C -0.770982 -3.876054 0.787928 0
M  V30 25 C -2.043284 -4.387991 0.562672 0
M  V30 26 C -2.221517 -5.715204 0.996018 0
M  V30 27 N -3.521772 -6.017199 0.671775 0
M  V30 28 C -4.110895 -4.966212 0.082489 0
M  V30 29 N -3.216893 -3.974430 0.013632 0
M  V30 30 C -3.453647 -2.683249 -0.582914 0
M  V30 31 H -2.209285 -9.138635 3.453927 0
M  V30 32 H -3.185471 -9.141447 1.993158 0
M  V30 33 H -1.498503 -9.833123 1.958733 0
M  V30 34 H -0.694534 -8.035616 2.396812 0
M  V30 35 H 3.293917 -1.574129 0.932711 0
M  V30 36 H 4.354925 0.682539 0.623103 0
M  V30 37 H 1.215563 3.984473 0.470316 0
M  V30 38 H 2.751071 5.583376 -1.243399 0
M  V30 39 H 3.633673 5.588750 0.274862 0
M  V30 40 H 2.527300 6.760464 2.366916 0
M  V30 41 H 0.674502 8.650140 2.864403 0
M  V30 42 H -0.895723 9.072745 0.851928 0
M  V30 43 H 0.521773 2.321594 -0.460157 0
M  V30 44 H -0.502893 0.117174 -0.153118 0
M  V30 45 H -5.132613 -5.056689 -0.226527 0
M  V30 46 H -3.829996 -2.784212 -1.632036 0
M  V30 47 H -4.211850 -2.101084 -0.034416 0
M  V30 48 H -2.478509 -2.135412 -0.698304 0
M  V30 END ATOM
M  V30 BEGIN BOND
M  V30 1 1 1 2
M  V30 2 1 2 3
M  V30 3 2 3 4
M  V30 4 1 4 5
M  V30 5 1 5 6
M  V30 6 1 6 7
M  V30 7 1 7 8
M  V30 8 2 8 9
M  V30 9 1 9 10
M  V30 10 2 10 11
M  V30 11 1 11 12
M  V30 12 2 12 13
M  V30 13 1 12 14
M  V30 14 1 14 15
M  V30 15 1 15 16
M  V30 16 2 16 17
M  V30 17 1 17 18
M  V30 18 2 18 19
M  V30 19 1 19 20
M  V30 20 1 11 21
M  V30 21 2 21 22
M  V30 22 2 7 23
M  V30 23 1 23 24
M  V30 24 1 24 25
M  V30 25 2 25 26
M  V30 26 1 26 27
M  V30 27 2 27 28
M  V30 28 1 28 29
M  V30 29 1 29 30
M  V30 30 1 26 3
M  V30 31 2 24 5
M  V30 32 1 29 25
M  V30 33 1 22 8
M  V30 34 1 20 16
M  V30 35 1 1 31
M  V30 36 1 1 32
M  V30 37 1 1 33
M  V30 38 1 2 34
M  V30 39 1 9 35
M  V30 40 1 10 36
M  V30 41 1 14 37
M  V30 42 1 15 38
M  V30 43 1 15 39
M  V30 44 1 17 40
M  V30 45 1 18 41
M  V30 46 1 19 42
M  V30 47 1 21 43
M  V30 48 1 22 44
M  V30 49 1 28 45
M  V30 50 1 30 46
M  V30 51 1 30 47
M  V30 52 1 30 48
M  V30 END BOND
M  V30 END CTAB
M  END
>  <Dataset>  (599) 
ChEMBL_Kinases

>  <Ligand_Instance>  (599) 
nan

>  <PDB_ID>  (599) 
nan

>  <Standardized_SMILES>  (599) 
CNc1nc2sc(-c3ccc(C(=O)NCc4cccs4)cc3)nc2c2c1ncn2C

>  <Name>  (599) 
nan

>  <Pocket>  (599) 
nan

>  <ATP_Site>  (599) 
nan

>  <Peripheral>  (599) 
nan

>  <Num_H_Atoms_ProtBoundConf>  (599) 
nan

>  <Num_Resolved_Atoms>  (599) 
nan

>  <Num_Not_Resolved_Atoms>  (599) 
nan

$$$$
CHEMBL2375678
     RDKit          3D

  0  0  0  0  0  0  0  0  0  0999 V3000
M  V30 BEGIN CTAB
M  V30 COUNTS 31 34 0 0 0
M  V30 BEGIN ATOM
M  V30 1 C 1.700784 -0.453507 5.013611 0
M  V30 2 N 0.484197 -1.098019 4.585910 0
M  V30 3 C 0.142459 -1.074762 3.179174 0
M  V30 4 N 0.940900 -0.468645 2.307130 0
M  V30 5 C 0.673117 -0.416052 0.988842 0
M  V30 6 C 1.534960 0.223177 0.142210 0
M  V30 7 C 1.138915 0.195880 -1.145960 0
M  V30 8 C 1.713871 0.737728 -2.437107 0
M  V30 9 N 2.705583 1.338000 -2.559421 0
M  V30 10 C 3.153232 1.786675 -3.733274 0
M  V30 11 C 2.242820 1.440733 -4.912134 0
M  V30 12 S 0.865907 0.493928 -4.028667 0
M  V30 13 S -0.495589 -0.762648 -1.137811 0
M  V30 14 C -0.462116 -1.013680 0.565781 0
M  V30 15 C -1.296389 -1.650342 1.498001 0
M  V30 16 C -1.035603 -1.712234 2.849051 0
M  V30 17 N -2.052823 -2.395757 3.401842 0
M  V30 18 C -2.924625 -2.748576 2.408883 0
M  V30 19 N -2.447862 -2.279992 1.216698 0
M  V30 20 C -3.114240 -2.466267 -0.067379 0
M  V30 21 H 1.685022 0.635007 4.739580 0
M  V30 22 H 1.830517 -0.579812 6.098952 0
M  V30 23 H 2.545122 -0.957173 4.462334 0
M  V30 24 H -0.123985 -1.565164 5.285126 0
M  V30 25 H 2.465991 0.747522 0.273801 0
M  V30 26 H 4.107454 2.334636 -3.664465 0
M  V30 27 H 2.889643 1.965789 -5.832532 0
M  V30 28 H -3.823742 -3.307530 2.612889 0
M  V30 29 H -4.191227 -2.621989 0.112468 0
M  V30 30 H -2.661059 -3.305231 -0.624971 0
M  V30 31 H -3.036597 -1.546007 -0.683103 0
M  V30 END ATOM
M  V30 BEGIN BOND
M  V30 1 1 1 2
M  V30 2 1 2 3
M  V30 3 2 3 4
M  V30 4 1 4 5
M  V30 5 1 5 6
M  V30 6 2 6 7
M  V30 7 1 7 8
M  V30 8 2 8 9
M  V30 9 1 9 10
M  V30 10 2 10 11
M  V30 11 1 11 12
M  V30 12 1 7 13
M  V30 13 1 13 14
M  V30 14 1 14 15
M  V30 15 2 15 16
M  V30 16 1 16 17
M  V30 17 2 17 18
M  V30 18 1 18 19
M  V30 19 1 19 20
M  V30 20 1 16 3
M  V30 21 2 14 5
M  V30 22 1 19 15
M  V30 23 1 12 8
M  V30 24 1 1 21
M  V30 25 1 1 22
M  V30 26 1 1 23
M  V30 27 1 2 24
M  V30 28 1 6 25
M  V30 29 1 10 26
M  V30 30 1 11 27
M  V30 31 1 18 28
M  V30 32 1 20 29
M  V30 33 1 20 30
M  V30 34 1 20 31
M  V30 END BOND
M  V30 END CTAB
M  END
>  <Dataset>  (600) 
ChEMBL_Kinases

>  <Ligand_Instance>  (600) 
nan

>  <PDB_ID>  (600) 
nan

>  <Standardized_SMILES>  (600) 
CNc1nc2cc(-c3nccs3)sc2c2c1ncn2C

>  <Name>  (600) 
nan

>  <Pocket>  (600) 
nan

>  <ATP_Site>  (600) 
nan

>  <Peripheral>  (600) 
nan

>  <Num_H_Atoms_ProtBoundConf>  (600) 
nan

>  <Num_Resolved_Atoms>  (600) 
nan

>  <Num_Not_Resolved_Atoms>  (600) 
nan

$$$$
CHEMBL2375680
     RDKit          3D

  0  0  0  0  0  0  0  0  0  0999 V3000
M  V30 BEGIN CTAB
M  V30 COUNTS 30 32 0 0 0
M  V30 BEGIN ATOM
M  V30 1 C -2.287860 0.242484 0.848899 0
M  V30 2 C -1.148070 0.801183 1.615766 0
M  V30 3 C 0.126849 0.276862 1.510219 0
M  V30 4 C 0.740884 -0.786393 0.776851 0
M  V30 5 C 2.096169 -1.050686 0.950058 0
M  V30 6 C 2.783353 -2.049211 0.289416 0
M  V30 7 C 2.127048 -2.854231 -0.602279 0
M  V30 8 C 0.784716 -2.653559 -0.826892 0
M  V30 9 C 0.174202 -1.641422 -0.131752 0
M  V30 10 C 0.404461 -3.678512 -1.827780 0
M  V30 11 O 1.605783 -3.986060 -2.459390 0
M  V30 12 C 2.562307 -3.982234 -1.448964 0
M  V30 13 S 1.095589 1.249924 2.588882 0
M  V30 14 C -0.173691 2.350236 3.182084 0
M  V30 15 N -0.015333 3.412086 4.120900 0
M  V30 16 C -1.310242 1.858834 2.466033 0
M  V30 17 C -2.542117 2.564785 2.734568 0
M  V30 18 N -3.560019 3.129934 2.941105 0
M  V30 19 H -2.464333 -0.835953 1.120524 0
M  V30 20 H -3.263142 0.718795 1.184086 0
M  V30 21 H -2.173740 0.350031 -0.231772 0
M  V30 22 H 2.755544 -0.491323 1.630127 0
M  V30 23 H 3.834190 -2.230688 0.444319 0
M  V30 24 H -0.867409 -1.546560 -0.363047 0
M  V30 25 H 0.061234 -4.579926 -1.302134 0
M  V30 26 H -0.355018 -3.306755 -2.542913 0
M  V30 27 H 2.612177 -4.945790 -0.914763 0
M  V30 28 H 3.555728 -3.738856 -1.883579 0
M  V30 29 H -0.359845 4.296528 3.693956 0
M  V30 30 H 0.403458 3.089337 5.020377 0
M  V30 END ATOM
M  V30 BEGIN BOND
M  V30 1 1 1 2
M  V30 2 2 2 3
M  V30 3 1 3 4
M  V30 4 2 4 5
M  V30 5 1 5 6
M  V30 6 2 6 7
M  V30 7 1 7 8
M  V30 8 2 8 9
M  V30 9 1 8 10
M  V30 10 1 10 11
M  V30 11 1 11 12
M  V30 12 1 3 13
M  V30 13 1 13 14
M  V30 14 1 14 15
M  V30 15 2 14 16
M  V30 16 1 16 17
M  V30 17 3 17 18
M  V30 18 1 16 2
M  V30 19 1 9 4
M  V30 20 1 12 7
M  V30 21 1 1 19
M  V30 22 1 1 20
M  V30 23 1 1 21
M  V30 24 1 5 22
M  V30 25 1 6 23
M  V30 26 1 9 24
M  V30 27 1 10 25
M  V30 28 1 10 26
M  V30 29 1 12 27
M  V30 30 1 12 28
M  V30 31 1 15 29
M  V30 32 1 15 30
M  V30 END BOND
M  V30 END CTAB
M  END
>  <Dataset>  (601) 
ChEMBL_Kinases

>  <Ligand_Instance>  (601) 
nan

>  <PDB_ID>  (601) 
nan

>  <Standardized_SMILES>  (601) 
Cc1c(-c2ccc3c(c2)COC3)sc(N)c1C#N

>  <Name>  (601) 
nan

>  <Pocket>  (601) 
nan

>  <ATP_Site>  (601) 
nan

>  <Peripheral>  (601) 
nan

>  <Num_H_Atoms_ProtBoundConf>  (601) 
nan

>  <Num_Resolved_Atoms>  (601) 
nan

>  <Num_Not_Resolved_Atoms>  (601) 
nan

$$$$
CHEMBL2375684
     RDKit          3D

  0  0  0  0  0  0  0  0  0  0999 V3000
M  V30 BEGIN CTAB
M  V30 COUNTS 45 49 0 0 0
M  V30 BEGIN ATOM
M  V30 1 O -2.468088 -6.975183 0.851930 0
M  V30 2 C -1.860030 -6.172518 0.098839 0
M  V30 3 C -2.736844 -5.223907 -0.621045 0
M  V30 4 C -2.150238 -4.357238 -1.426704 0
M  V30 5 C -0.705761 -4.236071 -1.684613 0
M  V30 6 C -0.186366 -2.850995 -1.539588 0
M  V30 7 C -0.226358 -2.247114 -0.298959 0
M  V30 8 C 0.248608 -0.960309 -0.128710 0
M  V30 9 C 0.779346 -0.214229 -1.157674 0
M  V30 10 C 1.279052 1.138657 -0.977690 0
M  V30 11 C 1.804537 1.860728 -2.021276 0
M  V30 12 C 2.275828 3.142289 -1.837923 0
M  V30 13 N 2.195568 3.643600 -0.598778 0
M  V30 14 C 1.693819 2.992131 0.464784 0
M  V30 15 N 1.681252 3.656228 1.696369 0
M  V30 16 C 1.229964 3.245177 2.948935 0
M  V30 17 C 1.273248 3.984137 4.108543 0
M  V30 18 C 0.823564 3.564464 5.334859 0
M  V30 19 C 0.270432 2.311462 5.495787 0
M  V30 20 N -0.210674 1.736936 6.579004 0
M  V30 21 C -0.674282 0.681784 6.705532 0
M  V30 22 S -0.534862 0.032447 4.899297 0
M  V30 23 C 0.217363 1.557078 4.351175 0
M  V30 24 C 0.676190 2.000329 3.127471 0
M  V30 25 N 1.261184 1.762832 0.203303 0
M  V30 26 C 0.801137 -0.851306 -2.376590 0
M  V30 27 C 0.339160 -2.133297 -2.595494 0
M  V30 28 C 0.086521 -5.225683 -0.920594 0
M  V30 29 C -0.406396 -6.131912 -0.090969 0
M  V30 30 H -3.815532 -5.227584 -0.503004 0
M  V30 31 H -2.776894 -3.657513 -1.959898 0
M  V30 32 H -0.569805 -4.509716 -2.769726 0
M  V30 33 H -0.639381 -2.800479 0.549265 0
M  V30 34 H 0.182080 -0.561594 0.867793 0
M  V30 35 H 1.879664 1.480713 -3.024367 0
M  V30 36 H 2.703079 3.776673 -2.603286 0
M  V30 37 H 2.070951 4.646127 1.739564 0
M  V30 38 H 1.708055 4.991970 4.023382 0
M  V30 39 H 0.932561 4.281628 6.163607 0
M  V30 40 H -1.065854 0.278564 7.704632 0
M  V30 41 H 0.541622 1.258210 2.365578 0
M  V30 42 H 1.188488 -0.388018 -3.270177 0
M  V30 43 H 0.361473 -2.622631 -3.556611 0
M  V30 44 H 1.161129 -5.209106 -1.049501 0
M  V30 45 H 0.190327 -6.840763 0.453670 0
M  V30 END ATOM
M  V30 BEGIN BOND
M  V30 1 2 1 2
M  V30 2 1 2 3
M  V30 3 2 3 4
M  V30 4 1 4 5
M  V30 5 1 5 6
M  V30 6 2 6 7
M  V30 7 1 7 8
M  V30 8 2 8 9
M  V30 9 1 9 10
M  V30 10 2 10 11
M  V30 11 1 11 12
M  V30 12 2 12 13
M  V30 13 1 13 14
M  V30 14 1 14 15
M  V30 15 1 15 16
M  V30 16 2 16 17
M  V30 17 1 17 18
M  V30 18 2 18 19
M  V30 19 1 19 20
M  V30 20 2 20 21
M  V30 21 1 21 22
M  V30 22 1 22 23
M  V30 23 2 23 24
M  V30 24 2 14 25
M  V30 25 1 9 26
M  V30 26 2 26 27
M  V30 27 1 5 28
M  V30 28 2 28 29
M  V30 29 1 29 2
M  V30 30 1 27 6
M  V30 31 1 25 10
M  V30 32 1 24 16
M  V30 33 1 23 19
M  V30 34 1 3 30
M  V30 35 1 4 31
M  V30 36 1 5 32
M  V30 37 1 7 33
M  V30 38 1 8 34
M  V30 39 1 11 35
M  V30 40 1 12 36
M  V30 41 1 15 37
M  V30 42 1 17 38
M  V30 43 1 18 39
M  V30 44 1 21 40
M  V30 45 1 24 41
M  V30 46 1 26 42
M  V30 47 1 27 43
M  V30 48 1 28 44
M  V30 49 1 29 45
M  V30 END BOND
M  V30 END CTAB
M  END
>  <Dataset>  (602) 
ChEMBL_Kinases

>  <Ligand_Instance>  (602) 
nan

>  <PDB_ID>  (602) 
nan

>  <Standardized_SMILES>  (602) 
O=C1C=CC(c2ccc(-c3ccnc(Nc4ccc5ncsc5c4)n3)cc2)C=C1

>  <Name>  (602) 
nan

>  <Pocket>  (602) 
nan

>  <ATP_Site>  (602) 
nan

>  <Peripheral>  (602) 
nan

>  <Num_H_Atoms_ProtBoundConf>  (602) 
nan

>  <Num_Resolved_Atoms>  (602) 
nan

>  <Num_Not_Resolved_Atoms>  (602) 
nan

$$$$
CHEMBL2375959
     RDKit          3D

  0  0  0  0  0  0  0  0  0  0999 V3000
M  V30 BEGIN CTAB
M  V30 COUNTS 60 64 0 0 0
M  V30 BEGIN ATOM
M  V30 1 C 5.294267 -2.015201 1.281466 0
M  V30 2 C 4.151037 -2.903593 0.945203 0
M  V30 3 N 4.241150 -4.233010 0.753881 0
M  V30 4 C 3.158797 -4.971276 0.451370 0
M  V30 5 N 3.266254 -6.382338 0.250511 0
M  V30 6 N 1.953459 -4.362628 0.337232 0
M  V30 7 C 1.800722 -3.017964 0.520104 0
M  V30 8 C 2.919594 -2.292788 0.826907 0
M  V30 9 C 2.774032 -0.932863 1.013490 0
M  V30 10 C 1.518411 -0.372242 0.883288 0
M  V30 11 C 1.384190 1.061099 1.084688 0
M  V30 12 C 2.025826 1.639164 2.165688 0
M  V30 13 N 1.974360 2.953175 2.454456 0
M  V30 14 C 1.264754 3.817645 1.673935 0
M  V30 15 C 1.191412 5.169582 1.941697 0
M  V30 16 C 0.453690 6.015928 1.115840 0
M  V30 17 C -0.182437 5.410899 0.035277 0
M  V30 18 C -0.118395 4.060907 -0.245355 0
M  V30 19 C 0.622157 3.243737 0.592689 0
M  V30 20 C 0.652966 1.903497 0.267049 0
M  V30 21 C 0.445076 -1.198051 0.568742 0
M  V30 22 O -0.630653 -0.599659 0.475580 0
M  V30 23 N 0.535085 -2.515316 0.379157 0
M  V30 24 C -0.616811 -3.345234 0.049040 0 CFG=1
M  V30 25 C -1.524201 -3.649754 1.184862 0
M  V30 26 C -2.821444 -2.916171 1.217174 0
M  V30 27 C -3.482312 -2.646252 -0.074988 0 CFG=1
M  V30 28 O -3.683533 -1.273338 -0.334183 0
M  V30 29 C -4.998990 -0.921106 -0.462021 0
M  V30 30 C -5.076324 0.536630 -0.729882 0
M  V30 31 N -3.893965 1.320736 -0.813541 0
M  V30 32 O -6.184158 1.117227 -0.889570 0
M  V30 33 C -2.747133 -3.161658 -1.286984 0
M  V30 34 C -1.273907 -2.957452 -1.225685 0
M  V30 35 H 5.074682 -1.422140 2.203409 0
M  V30 36 H 5.488104 -1.327166 0.433786 0
M  V30 37 H 6.213525 -2.605624 1.493229 0
M  V30 38 H 3.751422 -6.864298 -0.550512 0
M  V30 39 H 2.910765 -7.188795 0.816808 0
M  V30 40 H 3.623267 -0.309303 1.257510 0
M  V30 41 H 2.607495 0.992047 2.822533 0
M  V30 42 H 1.722857 5.561073 2.813099 0
M  V30 43 H 0.383830 7.078616 1.308672 0
M  V30 44 H -0.768468 6.046933 -0.631158 0
M  V30 45 H -0.638719 3.693057 -1.093728 0
M  V30 46 H 0.149118 1.482564 -0.573049 0
M  V30 47 H -0.148678 -4.352711 -0.202444 0
M  V30 48 H -1.047574 -3.486123 2.188973 0
M  V30 49 H -1.796048 -4.748729 1.256498 0
M  V30 50 H -3.518064 -3.470778 1.900389 0
M  V30 51 H -2.635099 -1.955109 1.746389 0
M  V30 52 H -4.511267 -3.059999 -0.044379 0
M  V30 53 H -5.482695 -1.511831 -1.265829 0
M  V30 54 H -5.483891 -1.064377 0.531528 0
M  V30 55 H -3.131425 1.944293 -1.141131 0
M  V30 56 H -3.210270 1.944491 -1.257361 0
M  V30 57 H -2.943432 -4.250886 -1.374248 0
M  V30 58 H -3.121874 -2.710322 -2.228086 0
M  V30 59 H -1.080910 -1.880517 -1.412009 0
M  V30 60 H -0.842953 -3.461660 -2.141135 0
M  V30 END ATOM
M  V30 BEGIN BOND
M  V30 1 1 1 2
M  V30 2 2 2 3
M  V30 3 1 3 4
M  V30 4 1 4 5
M  V30 5 2 4 6
M  V30 6 1 6 7
M  V30 7 2 7 8
M  V30 8 1 8 9
M  V30 9 2 9 10
M  V30 10 1 10 11
M  V30 11 2 11 12
M  V30 12 1 12 13
M  V30 13 2 13 14
M  V30 14 1 14 15
M  V30 15 2 15 16
M  V30 16 1 16 17
M  V30 17 2 17 18
M  V30 18 1 18 19
M  V30 19 2 19 20
M  V30 20 1 10 21
M  V30 21 2 21 22
M  V30 22 1 21 23
M  V30 23 1 23 24
M  V30 24 1 24 25
M  V30 25 1 25 26
M  V30 26 1 26 27
M  V30 27 1 27 28
M  V30 28 1 28 29
M  V30 29 1 29 30
M  V30 30 1 30 31
M  V30 31 2 30 32
M  V30 32 1 27 33
M  V30 33 1 33 34
M  V30 34 1 8 2
M  V30 35 1 20 11
M  V30 36 1 34 24
M  V30 37 1 23 7
M  V30 38 1 19 14
M  V30 39 1 1 35
M  V30 40 1 1 36
M  V30 41 1 1 37
M  V30 42 1 5 38
M  V30 43 1 5 39
M  V30 44 1 9 40
M  V30 45 1 12 41
M  V30 46 1 15 42
M  V30 47 1 16 43
M  V30 48 1 17 44
M  V30 49 1 18 45
M  V30 50 1 20 46
M  V30 51 1 24 47 CFG=3
M  V30 52 1 25 48
M  V30 53 1 25 49
M  V30 54 1 26 50
M  V30 55 1 26 51
M  V30 56 1 27 52 CFG=1
M  V30 57 1 29 53
M  V30 58 1 29 54
M  V30 59 1 31 55
M  V30 60 1 31 56
M  V30 61 1 33 57
M  V30 62 1 33 58
M  V30 63 1 34 59
M  V30 64 1 34 60
M  V30 END BOND
M  V30 END CTAB
M  END
>  <Dataset>  (603) 
ChEMBL_Kinases

>  <Ligand_Instance>  (603) 
nan

>  <PDB_ID>  (603) 
nan

>  <Standardized_SMILES>  (603) 
Cc1nc(N)nc2c1cc(-c1cnc3ccccc3c1)c(=O)n2[C@H]1CC[C@@H](OCC(N)=O)CC1

>  <Name>  (603) 
nan

>  <Pocket>  (603) 
nan

>  <ATP_Site>  (603) 
nan

>  <Peripheral>  (603) 
nan

>  <Num_H_Atoms_ProtBoundConf>  (603) 
nan

>  <Num_Resolved_Atoms>  (603) 
nan

>  <Num_Not_Resolved_Atoms>  (603) 
nan

$$$$
CHEMBL2375688
     RDKit          3D

  0  0  0  0  0  0  0  0  0  0999 V3000
M  V30 BEGIN CTAB
M  V30 COUNTS 31 34 0 0 0
M  V30 BEGIN ATOM
M  V30 1 C -2.273318 -2.909531 2.552807 0
M  V30 2 C -0.857238 -2.967675 2.107181 0
M  V30 3 S 0.188119 -4.509992 2.485285 0
M  V30 4 C 1.595644 -3.890001 1.722670 0
M  V30 5 N 2.770522 -4.666440 1.696315 0
M  V30 6 C 1.276777 -2.668159 1.252989 0
M  V30 7 C 2.186017 -1.877408 0.576305 0
M  V30 8 O 3.374082 -2.223892 0.342788 0
M  V30 9 O 1.919184 -0.683989 0.102637 0
M  V30 10 C 0.724564 -0.181886 0.264960 0
M  V30 11 C 0.489843 1.089587 -0.256233 0
M  V30 12 C 1.508379 1.753655 -0.909693 0
M  V30 13 C 1.313887 3.013116 -1.438659 0
M  V30 14 C 0.056939 3.580196 -1.286140 0
M  V30 15 C -0.949664 2.901887 -0.629953 0
M  V30 16 C -0.755954 1.648208 -0.103449 0
M  V30 17 C -1.732731 0.934690 0.559381 0
M  V30 18 C -1.428811 -0.324967 1.051880 0
M  V30 19 C -0.208777 -0.941639 0.935077 0
M  V30 20 C 0.008005 -2.193466 1.453008 0
M  V30 21 H -2.541522 -3.875492 3.093638 0
M  V30 22 H -3.008035 -2.920149 1.718762 0
M  V30 23 H -2.469041 -2.157158 3.341315 0
M  V30 24 H 3.372776 -4.876236 2.535035 0
M  V30 25 H 3.065529 -5.067559 0.756259 0
M  V30 26 H 2.482006 1.300252 -1.021164 0
M  V30 27 H 2.055276 3.587022 -1.957010 0
M  V30 28 H -0.135435 4.567132 -1.687301 0
M  V30 29 H -1.927621 3.337347 -0.508581 0
M  V30 30 H -2.664977 1.433031 0.635839 0
M  V30 31 H -2.279788 -0.734797 1.529514 0
M  V30 END ATOM
M  V30 BEGIN BOND
M  V30 1 1 1 2
M  V30 2 1 2 3
M  V30 3 1 3 4
M  V30 4 1 4 5
M  V30 5 2 4 6
M  V30 6 1 6 7
M  V30 7 2 7 8
M  V30 8 1 7 9
M  V30 9 1 9 10
M  V30 10 2 10 11
M  V30 11 1 11 12
M  V30 12 2 12 13
M  V30 13 1 13 14
M  V30 14 2 14 15
M  V30 15 1 15 16
M  V30 16 2 16 17
M  V30 17 1 17 18
M  V30 18 2 18 19
M  V30 19 1 19 20
M  V30 20 2 20 2
M  V30 21 1 20 6
M  V30 22 1 19 10
M  V30 23 1 16 11
M  V30 24 1 1 21
M  V30 25 1 1 22
M  V30 26 1 1 23
M  V30 27 1 5 24
M  V30 28 1 5 25
M  V30 29 1 12 26
M  V30 30 1 13 27
M  V30 31 1 14 28
M  V30 32 1 15 29
M  V30 33 1 17 30
M  V30 34 1 18 31
M  V30 END BOND
M  V30 END CTAB
M  END
>  <Dataset>  (604) 
ChEMBL_Kinases

>  <Ligand_Instance>  (604) 
nan

>  <PDB_ID>  (604) 
nan

>  <Standardized_SMILES>  (604) 
Cc1sc(N)c2c(=O)oc3c4ccccc4ccc3c12

>  <Name>  (604) 
nan

>  <Pocket>  (604) 
nan

>  <ATP_Site>  (604) 
nan

>  <Peripheral>  (604) 
nan

>  <Num_H_Atoms_ProtBoundConf>  (604) 
nan

>  <Num_Resolved_Atoms>  (604) 
nan

>  <Num_Not_Resolved_Atoms>  (604) 
nan

$$$$
CHEMBL237570
     RDKit          3D

  0  0  0  0  0  0  0  0  0  0999 V3000
M  V30 BEGIN CTAB
M  V30 COUNTS 59 63 0 0 0
M  V30 BEGIN ATOM
M  V30 1 C 1.729576 1.522860 8.810773 0
M  V30 2 O 1.264465 2.167676 7.635509 0
M  V30 3 C 1.164550 1.469490 6.439584 0
M  V30 4 C 1.481218 0.141830 6.236778 0
M  V30 5 C 1.317040 -0.385501 4.971454 0
M  V30 6 C 0.846537 0.411844 3.947994 0
M  V30 7 C 0.673540 -0.109435 2.659350 0
M  V30 8 C 0.197363 0.665214 1.592235 0
M  V30 9 C 0.094007 -0.089495 0.348578 0
M  V30 10 C 0.806494 0.124062 -0.795468 0
M  V30 11 C 1.822243 1.109691 -1.102274 0
M  V30 12 C 3.057907 0.486529 -1.324535 0
M  V30 13 C 4.205961 1.218646 -1.642268 0
M  V30 14 N 4.092278 2.564110 -1.731134 0
M  V30 15 C 2.926271 3.174248 -1.523516 0
M  V30 16 C 1.776353 2.491617 -1.209555 0
M  V30 17 N 0.396886 -0.786803 -1.673492 0
M  V30 18 C -0.547339 -1.582881 -1.156960 0
M  V30 19 C -1.149635 -2.647183 -1.937855 0
M  V30 20 C -2.064737 -3.561765 -1.479436 0
M  V30 21 C -2.654214 -4.562560 -2.197016 0
M  V30 22 C -2.324442 -4.706172 -3.525840 0
M  V30 23 S -3.010936 -5.946169 -4.546193 0 CHG=1 VAL=3
M  V30 24 C -4.500190 -5.300514 -5.306167 0
M  V30 25 O -3.527114 -7.198691 -3.518786 0 CHG=-1 VAL=1
M  V30 26 C -1.412374 -3.816919 -4.036655 0
M  V30 27 C -0.826189 -2.800992 -3.272524 0
M  V30 28 C 0.136076 -1.922415 -3.962067 0
M  V30 29 N -0.712808 -1.129398 0.088429 0
M  V30 30 C -1.633486 -1.649380 1.063943 0
M  V30 31 C -0.106336 1.987158 1.841090 0
M  V30 32 C 0.054756 2.525520 3.100451 0
M  V30 33 C 0.526603 1.741123 4.139069 0
M  V30 34 C 0.687965 2.290807 5.417967 0
M  V30 35 H 2.730661 1.078399 8.583408 0
M  V30 36 H 1.066030 0.659300 9.085693 0
M  V30 37 H 1.864433 2.224956 9.636441 0
M  V30 38 H 1.842119 -0.403580 7.096873 0
M  V30 39 H 1.564218 -1.425504 4.808297 0
M  V30 40 H 0.938669 -1.153756 2.565271 0
M  V30 41 H 3.270029 -0.584809 -1.281061 0
M  V30 42 H 5.162006 0.791941 -1.818981 0
M  V30 43 H 2.776704 4.243063 -1.581030 0
M  V30 44 H 0.785848 2.857556 -1.022218 0
M  V30 45 H -2.402710 -3.566439 -0.465605 0
M  V30 46 H -3.372336 -5.265250 -1.800566 0
M  V30 47 H -4.968010 -4.524653 -4.646997 0
M  V30 48 H -5.211530 -6.150973 -5.438416 0
M  V30 49 H -4.191874 -4.845692 -6.263886 0
M  V30 50 H -1.156414 -3.932764 -5.078500 0
M  V30 51 H 1.165315 -1.952827 -3.552788 0
M  V30 52 H 0.202608 -2.232720 -5.037912 0
M  V30 53 H -0.185858 -0.846470 -3.937988 0
M  V30 54 H -2.696500 -1.648874 0.728661 0
M  V30 55 H -1.667494 -0.958821 1.961504 0
M  V30 56 H -1.393881 -2.679157 1.397130 0
M  V30 57 H -0.466870 2.514312 0.975949 0
M  V30 58 H -0.199522 3.568852 3.238972 0
M  V30 59 H 0.424943 3.322820 5.505833 0
M  V30 END ATOM
M  V30 BEGIN BOND
M  V30 1 1 1 2
M  V30 2 1 2 3
M  V30 3 2 3 4
M  V30 4 1 4 5
M  V30 5 2 5 6
M  V30 6 1 6 7
M  V30 7 2 7 8
M  V30 8 1 8 9
M  V30 9 2 9 10
M  V30 10 1 10 11
M  V30 11 2 11 12
M  V30 12 1 12 13
M  V30 13 2 13 14
M  V30 14 1 14 15
M  V30 15 2 15 16
M  V30 16 1 10 17
M  V30 17 2 17 18
M  V30 18 1 18 19
M  V30 19 2 19 20
M  V30 20 1 20 21
M  V30 21 2 21 22
M  V30 22 1 22 23
M  V30 23 1 23 24
M  V30 24 1 23 25
M  V30 25 1 22 26
M  V30 26 2 26 27
M  V30 27 1 27 28
M  V30 28 1 18 29
M  V30 29 1 29 30
M  V30 30 1 8 31
M  V30 31 2 31 32
M  V30 32 1 32 33
M  V30 33 2 33 34
M  V30 34 1 34 3
M  V30 35 1 33 6
M  V30 36 1 29 9
M  V30 37 1 16 11
M  V30 38 1 27 19
M  V30 39 1 1 35
M  V30 40 1 1 36
M  V30 41 1 1 37
M  V30 42 1 4 38
M  V30 43 1 5 39
M  V30 44 1 7 40
M  V30 45 1 12 41
M  V30 46 1 13 42
M  V30 47 1 15 43
M  V30 48 1 16 44
M  V30 49 1 20 45
M  V30 50 1 21 46
M  V30 51 1 24 47
M  V30 52 1 24 48
M  V30 53 1 24 49
M  V30 54 1 26 50
M  V30 55 1 28 51
M  V30 56 1 28 52
M  V30 57 1 28 53
M  V30 58 1 30 54
M  V30 59 1 30 55
M  V30 60 1 30 56
M  V30 61 1 31 57
M  V30 62 1 32 58
M  V30 63 1 34 59
M  V30 END BOND
M  V30 END CTAB
M  END
>  <Dataset>  (605) 
ChEMBL_Kinases

>  <Ligand_Instance>  (605) 
nan

>  <PDB_ID>  (605) 
nan

>  <Standardized_SMILES>  (605) 
COc1ccc2cc(-c3c(-c4ccncc4)nc(-c4ccc([S+](C)[O-])cc4C)n3C)ccc2c1

>  <Name>  (605) 
nan

>  <Pocket>  (605) 
nan

>  <ATP_Site>  (605) 
nan

>  <Peripheral>  (605) 
nan

>  <Num_H_Atoms_ProtBoundConf>  (605) 
nan

>  <Num_Resolved_Atoms>  (605) 
nan

>  <Num_Not_Resolved_Atoms>  (605) 
nan

$$$$
CHEMBL2375953
     RDKit          3D

  0  0  0  0  0  0  0  0  0  0999 V3000
M  V30 BEGIN CTAB
M  V30 COUNTS 60 64 0 0 0
M  V30 BEGIN ATOM
M  V30 1 C 4.371635 -1.275181 3.854384 0
M  V30 2 C 3.379308 -2.113233 3.168785 0
M  V30 3 N 3.516248 -3.455214 3.164651 0
M  V30 4 C 2.590915 -4.221311 2.526553 0
M  V30 5 N 2.785076 -5.646500 2.553480 0
M  V30 6 N 1.524660 -3.700733 1.886018 0
M  V30 7 C 1.328433 -2.346808 1.853470 0
M  V30 8 C 2.280592 -1.595817 2.507519 0
M  V30 9 C 2.195789 -0.209235 2.546387 0
M  V30 10 C 1.119799 0.366958 1.902618 0
M  V30 11 C 0.984946 1.820004 1.919937 0
M  V30 12 C 1.218904 2.470682 3.139065 0
M  V30 13 N 1.095342 3.829477 3.180412 0
M  V30 14 C 0.759284 4.558763 2.099155 0
M  V30 15 C 0.647541 5.929960 2.200144 0
M  V30 16 C 0.294976 6.660486 1.058803 0
M  V30 17 C 0.059378 6.018751 -0.162953 0
M  V30 18 C 0.194825 4.627498 -0.175803 0
M  V30 19 C 0.540469 3.867406 0.925639 0
M  V30 20 C 0.636815 2.500527 0.769213 0
M  V30 21 C 0.215902 -0.434417 1.275759 0
M  V30 22 O -0.740032 0.104980 0.705610 0
M  V30 23 N 0.276052 -1.786870 1.223325 0
M  V30 24 C -0.625261 -2.681149 0.587201 0 CFG=1
M  V30 25 C -1.995129 -2.195953 0.239657 0
M  V30 26 C -2.101174 -1.815347 -1.234812 0
M  V30 27 C -2.129173 -3.116253 -1.995006 0 CFG=2
M  V30 28 O -3.347972 -3.725394 -1.681294 0
M  V30 29 C -4.052241 -3.886909 -2.860180 0
M  V30 30 C -4.348089 -2.646609 -3.586495 0
M  V30 31 N -5.078843 -2.907271 -4.794942 0
M  V30 32 O -4.317596 -1.384429 -3.757293 0
M  V30 33 C -0.951264 -3.908700 -1.585048 0
M  V30 34 C 0.020255 -3.289153 -0.642086 0
M  V30 35 H 3.983043 -0.670992 4.683326 0
M  V30 36 H 4.748119 -0.537200 3.092949 0
M  V30 37 H 5.246434 -1.885777 4.134689 0
M  V30 38 H 3.131612 -5.788898 1.578534 0
M  V30 39 H 2.519079 -5.996504 3.495595 0
M  V30 40 H 2.922447 0.412213 3.048265 0
M  V30 41 H 1.491549 1.882074 4.019879 0
M  V30 42 H 0.823952 6.444921 3.129455 0
M  V30 43 H 0.190741 7.754165 1.079026 0
M  V30 44 H -0.212740 6.575714 -1.044914 0
M  V30 45 H 0.001355 4.185738 -1.145908 0
M  V30 46 H 0.456298 1.998633 -0.169386 0
M  V30 47 H -0.763916 -3.526874 1.290387 0
M  V30 48 H -2.417558 -1.472562 0.927209 0
M  V30 49 H -2.684606 -3.066520 0.323127 0
M  V30 50 H -1.212185 -1.286699 -1.621273 0
M  V30 51 H -3.031925 -1.248192 -1.337831 0
M  V30 52 H -2.059592 -2.914460 -3.092860 0
M  V30 53 H -5.033535 -4.394329 -2.685467 0
M  V30 54 H -3.501445 -4.548823 -3.587260 0
M  V30 55 H -6.134749 -2.839126 -4.866826 0
M  V30 56 H -4.453211 -3.175860 -5.609021 0
M  V30 57 H -1.308564 -4.855450 -1.095516 0
M  V30 58 H -0.423142 -4.273154 -2.497966 0
M  V30 59 H 0.542318 -2.475100 -1.185813 0
M  V30 60 H 0.786526 -4.054907 -0.409404 0
M  V30 END ATOM
M  V30 BEGIN BOND
M  V30 1 1 1 2
M  V30 2 2 2 3
M  V30 3 1 3 4
M  V30 4 1 4 5
M  V30 5 2 4 6
M  V30 6 1 6 7
M  V30 7 2 7 8
M  V30 8 1 8 9
M  V30 9 2 9 10
M  V30 10 1 10 11
M  V30 11 2 11 12
M  V30 12 1 12 13
M  V30 13 2 13 14
M  V30 14 1 14 15
M  V30 15 2 15 16
M  V30 16 1 16 17
M  V30 17 2 17 18
M  V30 18 1 18 19
M  V30 19 2 19 20
M  V30 20 1 10 21
M  V30 21 2 21 22
M  V30 22 1 21 23
M  V30 23 1 23 24
M  V30 24 1 24 25
M  V30 25 1 25 26
M  V30 26 1 26 27
M  V30 27 1 27 28
M  V30 28 1 28 29
M  V30 29 1 29 30
M  V30 30 1 30 31
M  V30 31 2 30 32
M  V30 32 1 27 33
M  V30 33 1 33 34
M  V30 34 1 8 2
M  V30 35 1 20 11
M  V30 36 1 34 24
M  V30 37 1 23 7
M  V30 38 1 19 14
M  V30 39 1 1 35
M  V30 40 1 1 36
M  V30 41 1 1 37
M  V30 42 1 5 38
M  V30 43 1 5 39
M  V30 44 1 9 40
M  V30 45 1 12 41
M  V30 46 1 15 42
M  V30 47 1 16 43
M  V30 48 1 17 44
M  V30 49 1 18 45
M  V30 50 1 20 46
M  V30 51 1 24 47 CFG=1
M  V30 52 1 25 48
M  V30 53 1 25 49
M  V30 54 1 26 50
M  V30 55 1 26 51
M  V30 56 1 27 52 CFG=3
M  V30 57 1 29 53
M  V30 58 1 29 54
M  V30 59 1 31 55
M  V30 60 1 31 56
M  V30 61 1 33 57
M  V30 62 1 33 58
M  V30 63 1 34 59
M  V30 64 1 34 60
M  V30 END BOND
M  V30 END CTAB
M  END
>  <Dataset>  (606) 
ChEMBL_Kinases

>  <Ligand_Instance>  (606) 
nan

>  <PDB_ID>  (606) 
nan

>  <Standardized_SMILES>  (606) 
Cc1nc(N)nc2c1cc(-c1cnc3ccccc3c1)c(=O)n2[C@H]1CC[C@H](OCC(N)=O)CC1

>  <Name>  (606) 
nan

>  <Pocket>  (606) 
nan

>  <ATP_Site>  (606) 
nan

>  <Peripheral>  (606) 
nan

>  <Num_H_Atoms_ProtBoundConf>  (606) 
nan

>  <Num_Resolved_Atoms>  (606) 
nan

>  <Num_Not_Resolved_Atoms>  (606) 
nan

$$$$
CHEMBL2375954
     RDKit          3D

  0  0  0  0  0  0  0  0  0  0999 V3000
M  V30 BEGIN CTAB
M  V30 COUNTS 55 58 0 0 0
M  V30 BEGIN ATOM
M  V30 1 C 1.455399 1.809065 4.379225 0
M  V30 2 C 0.722175 0.726140 3.709062 0
M  V30 3 N 0.208498 -0.293118 4.429342 0
M  V30 4 C -0.460205 -1.277327 3.802197 0
M  V30 5 N -1.040737 -2.400878 4.486160 0
M  V30 6 N -0.634793 -1.278427 2.470467 0
M  V30 7 C -0.159583 -0.306463 1.672006 0
M  V30 8 C 0.520518 0.688683 2.335568 0
M  V30 9 C 1.069806 1.751801 1.658510 0
M  V30 10 C 0.925184 1.802516 0.289105 0
M  V30 11 C 1.463411 2.878232 -0.534487 0
M  V30 12 C 0.988331 3.650608 -1.576305 0
M  V30 13 N 1.982630 4.480719 -1.909047 0
M  V30 14 N 3.044328 4.290681 -1.158648 0
M  V30 15 C 4.262462 5.065153 -1.317172 0
M  V30 16 C 2.763873 3.295932 -0.283501 0
M  V30 17 C 0.232426 0.768612 -0.292530 0
M  V30 18 O 0.097479 0.807381 -1.538669 0
M  V30 19 N -0.321347 -0.287750 0.320861 0
M  V30 20 C -1.047256 -1.394503 -0.179113 0 CFG=1
M  V30 21 C -2.506567 -1.323391 0.293195 0
M  V30 22 C -3.182147 -2.648835 0.165137 0
M  V30 23 C -2.606300 -3.473184 -0.928520 0 CFG=2
M  V30 24 O -1.561963 -4.259647 -0.441979 0
M  V30 25 C -1.798805 -5.613367 -0.677894 0
M  V30 26 C -0.599528 -6.318940 -0.103027 0
M  V30 27 N 0.503779 -5.642862 0.534459 0
M  V30 28 O -0.660079 -7.570837 -0.237589 0
M  V30 29 C -2.085939 -2.645741 -2.056165 0
M  V30 30 C -1.134353 -1.542872 -1.660529 0
M  V30 31 H 1.260937 1.756989 5.465481 0
M  V30 32 H 1.083218 2.827230 4.068831 0
M  V30 33 H 2.557371 1.793215 4.187561 0
M  V30 34 H -1.958729 -2.515959 4.970234 0
M  V30 35 H -0.517850 -3.300077 4.557329 0
M  V30 36 H 1.618169 2.570552 2.117700 0
M  V30 37 H -0.019155 3.488563 -1.936699 0
M  V30 38 H 4.101963 6.107802 -0.934669 0
M  V30 39 H 5.045866 4.629580 -0.648563 0
M  V30 40 H 4.578519 5.131834 -2.363054 0
M  V30 41 H 3.529413 2.991945 0.429084 0
M  V30 42 H -0.599710 -2.311003 0.278524 0
M  V30 43 H -2.628809 -0.889203 1.280075 0
M  V30 44 H -2.985311 -0.596039 -0.429809 0
M  V30 45 H -4.269373 -2.448553 -0.044447 0
M  V30 46 H -3.155796 -3.157998 1.162386 0
M  V30 47 H -3.384012 -4.154681 -1.394765 0
M  V30 48 H -1.872488 -5.862597 -1.742246 0
M  V30 49 H -2.715631 -5.973939 -0.152506 0
M  V30 50 H 1.147563 -5.438293 -0.275310 0
M  V30 51 H 0.929254 -5.278628 1.424361 0
M  V30 52 H -1.574027 -3.373317 -2.757297 0
M  V30 53 H -2.974006 -2.252735 -2.622013 0
M  V30 54 H -0.139174 -1.797579 -2.038456 0
M  V30 55 H -1.553815 -0.625428 -2.144602 0
M  V30 END ATOM
M  V30 BEGIN BOND
M  V30 1 1 1 2
M  V30 2 2 2 3
M  V30 3 1 3 4
M  V30 4 1 4 5
M  V30 5 2 4 6
M  V30 6 1 6 7
M  V30 7 2 7 8
M  V30 8 1 8 9
M  V30 9 2 9 10
M  V30 10 1 10 11
M  V30 11 1 11 12
M  V30 12 2 12 13
M  V30 13 1 13 14
M  V30 14 1 14 15
M  V30 15 1 14 16
M  V30 16 1 10 17
M  V30 17 2 17 18
M  V30 18 1 17 19
M  V30 19 1 19 20
M  V30 20 1 20 21
M  V30 21 1 21 22
M  V30 22 1 22 23
M  V30 23 1 23 24
M  V30 24 1 24 25
M  V30 25 1 25 26
M  V30 26 1 26 27
M  V30 27 2 26 28
M  V30 28 1 23 29
M  V30 29 1 29 30
M  V30 30 1 8 2
M  V30 31 2 16 11
M  V30 32 1 30 20
M  V30 33 1 19 7
M  V30 34 1 1 31
M  V30 35 1 1 32
M  V30 36 1 1 33
M  V30 37 1 5 34
M  V30 38 1 5 35
M  V30 39 1 9 36
M  V30 40 1 12 37
M  V30 41 1 15 38
M  V30 42 1 15 39
M  V30 43 1 15 40
M  V30 44 1 16 41
M  V30 45 1 20 42 CFG=1
M  V30 46 1 21 43
M  V30 47 1 21 44
M  V30 48 1 22 45
M  V30 49 1 22 46
M  V30 50 1 23 47 CFG=3
M  V30 51 1 25 48
M  V30 52 1 25 49
M  V30 53 1 27 50
M  V30 54 1 27 51
M  V30 55 1 29 52
M  V30 56 1 29 53
M  V30 57 1 30 54
M  V30 58 1 30 55
M  V30 END BOND
M  V30 END CTAB
M  END
>  <Dataset>  (607) 
ChEMBL_Kinases

>  <Ligand_Instance>  (607) 
nan

>  <PDB_ID>  (607) 
nan

>  <Standardized_SMILES>  (607) 
Cc1nc(N)nc2c1cc(-c1cnn(C)c1)c(=O)n2[C@H]1CC[C@H](OCC(N)=O)CC1

>  <Name>  (607) 
nan

>  <Pocket>  (607) 
nan

>  <ATP_Site>  (607) 
nan

>  <Peripheral>  (607) 
nan

>  <Num_H_Atoms_ProtBoundConf>  (607) 
nan

>  <Num_Resolved_Atoms>  (607) 
nan

>  <Num_Not_Resolved_Atoms>  (607) 
nan

$$$$
CHEMBL2375955
     RDKit          3D

  0  0  0  0  0  0  0  0  0  0999 V3000
M  V30 BEGIN CTAB
M  V30 COUNTS 52 55 0 0 0
M  V30 BEGIN ATOM
M  V30 1 C 2.575040 0.612233 5.116895 0
M  V30 2 C 1.714299 -0.193450 4.211703 0
M  V30 3 N 1.056762 -1.271410 4.686593 0
M  V30 4 C 0.297475 -1.951298 3.810312 0
M  V30 5 N -0.414722 -3.099623 4.276018 0
M  V30 6 N 0.194984 -1.583697 2.533459 0
M  V30 7 C 0.840151 -0.501849 2.006545 0
M  V30 8 C 1.623887 0.207483 2.892001 0
M  V30 9 C 2.304378 1.322998 2.400702 0
M  V30 10 C 2.118374 1.604854 1.055137 0
M  V30 11 C 2.854646 2.784225 0.593358 0
M  V30 12 C 4.160654 3.102829 0.868747 0
M  V30 13 N 4.359368 4.259257 0.226844 0
M  V30 14 N 3.275171 4.651235 -0.406932 0
M  V30 15 C 2.299909 3.762179 -0.210710 0
M  V30 16 C 1.326858 0.862246 0.227064 0
M  V30 17 O 1.192415 1.153791 -0.966967 0
M  V30 18 N 0.672536 -0.208025 0.693540 0
M  V30 19 C -0.187841 -1.068210 -0.072829 0 CFG=1
M  V30 20 C -0.862425 -0.368193 -1.235253 0
M  V30 21 C -2.121940 -1.185619 -1.554250 0
M  V30 22 C -1.836945 -2.658753 -1.511742 0 CFG=2
M  V30 23 O -2.455633 -3.202854 -0.423080 0
M  V30 24 C -3.442873 -4.118708 -0.658653 0
M  V30 25 C -4.587245 -3.620078 -1.444688 0
M  V30 26 N -4.916602 -2.374438 -2.033291 0
M  V30 27 O -5.428218 -4.562441 -1.592024 0
M  V30 28 C -0.371905 -2.975100 -1.614817 0
M  V30 29 C 0.514535 -2.260371 -0.663141 0
M  V30 30 H 3.609874 0.558967 4.713487 0
M  V30 31 H 2.227948 1.678008 5.034045 0
M  V30 32 H 2.483937 0.246483 6.145953 0
M  V30 33 H -1.459137 -3.124582 4.233651 0
M  V30 34 H -1.435185 -3.316489 4.318768 0
M  V30 35 H 2.916465 1.877607 3.090534 0
M  V30 36 H 4.782805 2.464678 1.487488 0
M  V30 37 H 3.296980 5.540018 -0.947593 0
M  V30 38 H 1.303206 3.832293 -0.614203 0
M  V30 39 H -1.018703 -1.390131 0.597269 0
M  V30 40 H -1.118198 0.653647 -0.936028 0
M  V30 41 H -0.249432 -0.450516 -2.158894 0
M  V30 42 H -2.526218 -0.865450 -2.536656 0
M  V30 43 H -2.890113 -0.893445 -0.792844 0
M  V30 44 H -2.307573 -3.114157 -2.415263 0
M  V30 45 H -3.861884 -4.390365 0.342211 0
M  V30 46 H -3.047293 -5.088744 -1.071224 0
M  V30 47 H -5.553046 -1.751104 -1.472284 0
M  V30 48 H -4.607661 -1.978770 -2.970370 0
M  V30 49 H -0.073783 -2.701244 -2.654480 0
M  V30 50 H -0.246033 -4.060718 -1.545975 0
M  V30 51 H 0.968721 -2.912268 0.120569 0
M  V30 52 H 1.413566 -1.829473 -1.195013 0
M  V30 END ATOM
M  V30 BEGIN BOND
M  V30 1 1 1 2
M  V30 2 2 2 3
M  V30 3 1 3 4
M  V30 4 1 4 5
M  V30 5 2 4 6
M  V30 6 1 6 7
M  V30 7 2 7 8
M  V30 8 1 8 9
M  V30 9 2 9 10
M  V30 10 1 10 11
M  V30 11 1 11 12
M  V30 12 2 12 13
M  V30 13 1 13 14
M  V30 14 1 14 15
M  V30 15 1 10 16
M  V30 16 2 16 17
M  V30 17 1 16 18
M  V30 18 1 18 19
M  V30 19 1 19 20
M  V30 20 1 20 21
M  V30 21 1 21 22
M  V30 22 1 22 23
M  V30 23 1 23 24
M  V30 24 1 24 25
M  V30 25 1 25 26
M  V30 26 2 25 27
M  V30 27 1 22 28
M  V30 28 1 28 29
M  V30 29 1 8 2
M  V30 30 2 15 11
M  V30 31 1 29 19
M  V30 32 1 18 7
M  V30 33 1 1 30
M  V30 34 1 1 31
M  V30 35 1 1 32
M  V30 36 1 5 33
M  V30 37 1 5 34
M  V30 38 1 9 35
M  V30 39 1 12 36
M  V30 40 1 14 37
M  V30 41 1 15 38
M  V30 42 1 19 39 CFG=1
M  V30 43 1 20 40
M  V30 44 1 20 41
M  V30 45 1 21 42
M  V30 46 1 21 43
M  V30 47 1 22 44 CFG=3
M  V30 48 1 24 45
M  V30 49 1 24 46
M  V30 50 1 26 47
M  V30 51 1 26 48
M  V30 52 1 28 49
M  V30 53 1 28 50
M  V30 54 1 29 51
M  V30 55 1 29 52
M  V30 END BOND
M  V30 END CTAB
M  END
>  <Dataset>  (608) 
ChEMBL_Kinases

>  <Ligand_Instance>  (608) 
nan

>  <PDB_ID>  (608) 
nan

>  <Standardized_SMILES>  (608) 
Cc1nc(N)nc2c1cc(-c1cn[nH]c1)c(=O)n2[C@H]1CC[C@H](OCC(N)=O)CC1

>  <Name>  (608) 
nan

>  <Pocket>  (608) 
nan

>  <ATP_Site>  (608) 
nan

>  <Peripheral>  (608) 
nan

>  <Num_H_Atoms_ProtBoundConf>  (608) 
nan

>  <Num_Resolved_Atoms>  (608) 
nan

>  <Num_Not_Resolved_Atoms>  (608) 
nan

$$$$
CHEMBL2375956
     RDKit          3D

  0  0  0  0  0  0  0  0  0  0999 V3000
M  V30 BEGIN CTAB
M  V30 COUNTS 57 60 0 0 0
M  V30 BEGIN ATOM
M  V30 1 C 4.950972 -6.256574 3.399390 0
M  V30 2 O 3.761016 -6.032354 2.662352 0
M  V30 3 C 3.380060 -4.764813 2.239963 0
M  V30 4 N 4.101846 -3.653937 2.492530 0
M  V30 5 C 3.692298 -2.441650 2.061779 0
M  V30 6 C 2.512540 -2.325455 1.347632 0
M  V30 7 C 1.942995 -1.091362 0.819126 0
M  V30 8 C 2.767387 -0.197257 0.163960 0
M  V30 9 C 2.186058 0.963345 -0.323457 0
M  V30 10 C 3.079201 1.800205 -0.961290 0
M  V30 11 C 4.520920 1.494220 -1.116417 0
M  V30 12 N 2.545061 2.955856 -1.454165 0
M  V30 13 C 1.234871 3.227534 -1.310087 0
M  V30 14 N 0.797635 4.456048 -1.862875 0
M  V30 15 N 0.415498 2.374478 -0.679914 0
M  V30 16 C 0.838320 1.211311 -0.158722 0
M  V30 17 N 0.017665 0.350488 0.477799 0
M  V30 18 C -1.388198 0.657766 0.623680 0 CFG=1
M  V30 19 C -2.005919 1.301649 -0.569503 0
M  V30 20 C -3.388765 0.965455 -0.946737 0
M  V30 21 C -4.034770 -0.206896 -0.279898 0 CFG=2
M  V30 22 O -5.385761 -0.239434 -0.520820 0
M  V30 23 C -5.666853 -1.410316 -1.255554 0
M  V30 24 C -5.254282 -2.578041 -0.461335 0
M  V30 25 N -4.713910 -3.242843 0.665832 0
M  V30 26 O -5.511614 -3.632773 -1.134352 0
M  V30 27 C -3.685421 -0.095475 1.188597 0
M  V30 28 C -2.188390 -0.450302 1.223326 0
M  V30 29 C 0.608168 -0.765899 0.940035 0
M  V30 30 O -0.061300 -1.638422 1.550499 0
M  V30 31 C 1.766292 -3.481883 1.087727 0
M  V30 32 N 2.216488 -4.689595 1.541726 0
M  V30 33 H 4.893987 -7.170836 4.013748 0
M  V30 34 H 5.054301 -5.422587 4.137927 0
M  V30 35 H 5.850704 -6.200499 2.759834 0
M  V30 36 H 4.232660 -1.525176 2.237583 0
M  V30 37 H 3.817676 -0.428423 0.055757 0
M  V30 38 H 5.010749 2.393649 -1.539256 0
M  V30 39 H 4.966255 1.286239 -0.107275 0
M  V30 40 H 4.673070 0.606332 -1.793873 0
M  V30 41 H 0.142595 5.220045 -1.576648 0
M  V30 42 H 1.155303 4.794155 -2.800933 0
M  V30 43 H -1.382401 1.456780 1.430736 0
M  V30 44 H -1.373132 1.035198 -1.455962 0
M  V30 45 H -1.929538 2.430487 -0.515641 0
M  V30 46 H -3.532951 0.809560 -2.058273 0
M  V30 47 H -4.089742 1.829372 -0.735397 0
M  V30 48 H -3.569145 -1.128060 -0.739857 0
M  V30 49 H -6.747199 -1.445240 -1.521210 0
M  V30 50 H -5.103840 -1.425108 -2.210408 0
M  V30 51 H -5.323945 -3.472814 1.489681 0
M  V30 52 H -5.419049 -3.424464 1.438107 0
M  V30 53 H -4.245696 -0.754084 1.847228 0
M  V30 54 H -3.773220 0.979686 1.455217 0
M  V30 55 H -2.126901 -1.357494 0.590029 0
M  V30 56 H -1.994860 -0.613779 2.295828 0
M  V30 57 H 0.826222 -3.549765 0.543324 0
M  V30 END ATOM
M  V30 BEGIN BOND
M  V30 1 1 1 2
M  V30 2 1 2 3
M  V30 3 2 3 4
M  V30 4 1 4 5
M  V30 5 2 5 6
M  V30 6 1 6 7
M  V30 7 2 7 8
M  V30 8 1 8 9
M  V30 9 2 9 10
M  V30 10 1 10 11
M  V30 11 1 10 12
M  V30 12 2 12 13
M  V30 13 1 13 14
M  V30 14 1 13 15
M  V30 15 2 15 16
M  V30 16 1 16 17
M  V30 17 1 17 18
M  V30 18 1 18 19
M  V30 19 1 19 20
M  V30 20 1 20 21
M  V30 21 1 21 22
M  V30 22 1 22 23
M  V30 23 1 23 24
M  V30 24 1 24 25
M  V30 25 2 24 26
M  V30 26 1 21 27
M  V30 27 1 27 28
M  V30 28 1 17 29
M  V30 29 2 29 30
M  V30 30 1 6 31
M  V30 31 2 31 32
M  V30 32 1 32 3
M  V30 33 1 29 7
M  V30 34 1 16 9
M  V30 35 1 28 18
M  V30 36 1 1 33
M  V30 37 1 1 34
M  V30 38 1 1 35
M  V30 39 1 5 36
M  V30 40 1 8 37
M  V30 41 1 11 38
M  V30 42 1 11 39
M  V30 43 1 11 40
M  V30 44 1 14 41
M  V30 45 1 14 42
M  V30 46 1 18 43 CFG=1
M  V30 47 1 19 44
M  V30 48 1 19 45
M  V30 49 1 20 46
M  V30 50 1 20 47
M  V30 51 1 21 48 CFG=3
M  V30 52 1 23 49
M  V30 53 1 23 50
M  V30 54 1 25 51
M  V30 55 1 25 52
M  V30 56 1 27 53
M  V30 57 1 27 54
M  V30 58 1 28 55
M  V30 59 1 28 56
M  V30 60 1 31 57
M  V30 END BOND
M  V30 END CTAB
M  END
>  <Dataset>  (609) 
ChEMBL_Kinases

>  <Ligand_Instance>  (609) 
nan

>  <PDB_ID>  (609) 
nan

>  <Standardized_SMILES>  (609) 
COc1ncc(-c2cc3c(C)nc(N)nc3n([C@H]3CC[C@H](OCC(N)=O)CC3)c2=O)cn1

>  <Name>  (609) 
nan

>  <Pocket>  (609) 
nan

>  <ATP_Site>  (609) 
nan

>  <Peripheral>  (609) 
nan

>  <Num_H_Atoms_ProtBoundConf>  (609) 
nan

>  <Num_Resolved_Atoms>  (609) 
nan

>  <Num_Not_Resolved_Atoms>  (609) 
nan

$$$$
CHEMBL2375957
     RDKit          3D

  0  0  0  0  0  0  0  0  0  0999 V3000
M  V30 BEGIN CTAB
M  V30 COUNTS 58 61 0 0 0
M  V30 BEGIN ATOM
M  V30 1 C 2.919030 -1.544072 7.890265 0
M  V30 2 O 2.634258 -2.395346 6.791815 0
M  V30 3 C 2.399604 -1.801624 5.548657 0
M  V30 4 N 2.439753 -0.464180 5.385772 0
M  V30 5 C 2.212128 0.122437 4.177079 0
M  V30 6 C 1.933222 -0.688872 3.095380 0
M  V30 7 C 1.670980 -0.165220 1.742533 0
M  V30 8 C 2.506095 0.823352 1.256201 0
M  V30 9 C 2.237567 1.294557 -0.011902 0
M  V30 10 C 2.989539 2.285810 -0.632375 0
M  V30 11 C 4.134881 2.850780 0.128355 0
M  V30 12 N 2.669877 2.697370 -1.872390 0
M  V30 13 C 1.630890 2.189802 -2.571366 0
M  V30 14 N 1.366372 2.685770 -3.878001 0
M  V30 15 N 0.898593 1.222802 -1.964085 0
M  V30 16 C 1.178789 0.781594 -0.731902 0
M  V30 17 N 0.360561 -0.180422 -0.267214 0
M  V30 18 C -0.752181 -0.783843 -0.907992 0 CFG=1
M  V30 19 C -2.092561 -0.272776 -0.446046 0
M  V30 20 C -3.199319 -1.183165 -0.872439 0
M  V30 21 C -2.884981 -2.107573 -1.995894 0 CFG=2
M  V30 22 O -2.802866 -3.440831 -1.606202 0
M  V30 23 C -3.779061 -4.248863 -2.136153 0
M  V30 24 C -5.085394 -3.694147 -1.670881 0
M  V30 25 N -5.891310 -2.753068 -0.953936 0
M  V30 26 O -6.054356 -4.368503 -2.105207 0
M  V30 27 C -1.733494 -1.771306 -2.882063 0
M  V30 28 C -0.804406 -0.701100 -2.394988 0
M  V30 29 C 0.643060 -0.633592 0.990070 0
M  V30 30 O -0.070097 -1.546807 1.530052 0
M  V30 31 C 1.888748 -2.062391 3.247612 0
M  V30 32 C 2.120898 -2.662837 4.480918 0
M  V30 33 F 2.084487 -4.002232 4.661678 0
M  V30 34 H 1.994037 -1.114062 8.327774 0
M  V30 35 H 3.470814 -2.077973 8.675833 0
M  V30 36 H 3.532545 -0.658533 7.577300 0
M  V30 37 H 2.238630 1.192871 4.020553 0
M  V30 38 H 3.331023 1.234454 1.796487 0
M  V30 39 H 3.723231 3.273575 1.079158 0
M  V30 40 H 4.632418 3.633261 -0.458616 0
M  V30 41 H 4.817235 2.038879 0.399438 0
M  V30 42 H 0.523446 3.238243 -4.207957 0
M  V30 43 H 0.516204 3.235726 -4.183702 0
M  V30 44 H -0.743885 -1.886752 -0.663246 0
M  V30 45 H -2.055649 -0.120529 0.632490 0
M  V30 46 H -2.222285 0.728463 -0.917849 0
M  V30 47 H -3.460129 -1.779040 0.033814 0
M  V30 48 H -4.091723 -0.542763 -1.050370 0
M  V30 49 H -3.781465 -2.113940 -2.662316 0
M  V30 50 H -3.825821 -4.255546 -3.232211 0
M  V30 51 H -3.763437 -5.278545 -1.786140 0
M  V30 52 H -6.215769 -1.876572 -1.460556 0
M  V30 53 H -6.137465 -2.958805 0.053435 0
M  V30 54 H -1.120421 -2.677977 -3.082319 0
M  V30 55 H -2.034639 -1.442700 -3.916680 0
M  V30 56 H 0.161035 -0.831300 -2.912834 0
M  V30 57 H -1.189460 0.314203 -2.655279 0
M  V30 58 H 1.676834 -2.793996 2.455707 0
M  V30 END ATOM
M  V30 BEGIN BOND
M  V30 1 1 1 2
M  V30 2 1 2 3
M  V30 3 2 3 4
M  V30 4 1 4 5
M  V30 5 2 5 6
M  V30 6 1 6 7
M  V30 7 2 7 8
M  V30 8 1 8 9
M  V30 9 2 9 10
M  V30 10 1 10 11
M  V30 11 1 10 12
M  V30 12 2 12 13
M  V30 13 1 13 14
M  V30 14 1 13 15
M  V30 15 2 15 16
M  V30 16 1 16 17
M  V30 17 1 17 18
M  V30 18 1 18 19
M  V30 19 1 19 20
M  V30 20 1 20 21
M  V30 21 1 21 22
M  V30 22 1 22 23
M  V30 23 1 23 24
M  V30 24 1 24 25
M  V30 25 2 24 26
M  V30 26 1 21 27
M  V30 27 1 27 28
M  V30 28 1 17 29
M  V30 29 2 29 30
M  V30 30 1 6 31
M  V30 31 2 31 32
M  V30 32 1 32 33
M  V30 33 1 32 3
M  V30 34 1 29 7
M  V30 35 1 16 9
M  V30 36 1 28 18
M  V30 37 1 1 34
M  V30 38 1 1 35
M  V30 39 1 1 36
M  V30 40 1 5 37
M  V30 41 1 8 38
M  V30 42 1 11 39
M  V30 43 1 11 40
M  V30 44 1 11 41
M  V30 45 1 14 42
M  V30 46 1 14 43
M  V30 47 1 18 44 CFG=3
M  V30 48 1 19 45
M  V30 49 1 19 46
M  V30 50 1 20 47
M  V30 51 1 20 48
M  V30 52 1 21 49 CFG=3
M  V30 53 1 23 50
M  V30 54 1 23 51
M  V30 55 1 25 52
M  V30 56 1 25 53
M  V30 57 1 27 54
M  V30 58 1 27 55
M  V30 59 1 28 56
M  V30 60 1 28 57
M  V30 61 1 31 58
M  V30 END BOND
M  V30 END CTAB
M  END
>  <Dataset>  (610) 
ChEMBL_Kinases

>  <Ligand_Instance>  (610) 
nan

>  <PDB_ID>  (610) 
nan

>  <Standardized_SMILES>  (610) 
COc1ncc(-c2cc3c(C)nc(N)nc3n([C@H]3CC[C@H](OCC(N)=O)CC3)c2=O)cc1F

>  <Name>  (610) 
nan

>  <Pocket>  (610) 
nan

>  <ATP_Site>  (610) 
nan

>  <Peripheral>  (610) 
nan

>  <Num_H_Atoms_ProtBoundConf>  (610) 
nan

>  <Num_Resolved_Atoms>  (610) 
nan

>  <Num_Not_Resolved_Atoms>  (610) 
nan

$$$$
CHEMBL2375958
     RDKit          3D

  0  0  0  0  0  0  0  0  0  0999 V3000
M  V30 BEGIN CTAB
M  V30 COUNTS 58 61 0 0 0
M  V30 BEGIN ATOM
M  V30 1 C 2.756174 -2.332934 7.764600 0
M  V30 2 O 2.451409 -3.037256 6.574024 0
M  V30 3 C 2.255007 -2.333723 5.392487 0
M  V30 4 C 1.959993 -3.129920 4.282493 0
M  V30 5 C 1.748728 -2.518100 3.062621 0
M  V30 6 C 1.844650 -1.130392 3.017909 0
M  V30 7 C 1.631611 -0.419450 1.759790 0
M  V30 8 C 2.499609 0.586486 1.387640 0
M  V30 9 C 2.242314 1.217075 0.189223 0
M  V30 10 C 3.043296 2.238349 -0.284992 0
M  V30 11 C 4.202635 2.618086 0.573824 0
M  V30 12 N 2.780673 2.855410 -1.470213 0
M  V30 13 C 1.726392 2.462478 -2.186024 0
M  V30 14 N 1.588985 3.206589 -3.399340 0
M  V30 15 N 0.947599 1.477694 -1.736790 0
M  V30 16 C 1.165633 0.849535 -0.589647 0
M  V30 17 N 0.301395 -0.125917 -0.255934 0
M  V30 18 C -0.835394 -0.586371 -0.975434 0 CFG=1
M  V30 19 C -2.167034 -0.109223 -0.448633 0
M  V30 20 C -3.256487 -0.512608 -1.395449 0
M  V30 21 C -2.934435 -1.679945 -2.266620 0 CFG=2
M  V30 22 O -2.773983 -2.832561 -1.539843 0
M  V30 23 C -3.640630 -3.860671 -1.795309 0
M  V30 24 C -5.068854 -3.520066 -1.557952 0
M  V30 25 N -6.159176 -2.690644 -1.193032 0
M  V30 26 O -5.789258 -4.542209 -1.823916 0
M  V30 27 C -1.757639 -1.323285 -3.134990 0
M  V30 28 C -0.782669 -0.388843 -2.451890 0
M  V30 29 C 0.591614 -0.726051 0.939339 0
M  V30 30 O -0.174779 -1.667082 1.342468 0
M  V30 31 C 2.139057 -0.340823 4.127690 0
M  V30 32 N 2.342789 -0.976759 5.320455 0
M  V30 33 H 1.921429 -1.724939 8.126697 0
M  V30 34 H 3.220730 -2.988683 8.526370 0
M  V30 35 H 3.557678 -1.606529 7.474239 0
M  V30 36 H 1.894519 -4.206321 4.359810 0
M  V30 37 H 1.516599 -3.053862 2.157079 0
M  V30 38 H 3.336848 0.891157 1.967027 0
M  V30 39 H 3.852457 2.924728 1.577851 0
M  V30 40 H 4.925992 1.774702 0.623150 0
M  V30 41 H 4.694848 3.487291 0.067032 0
M  V30 42 H 0.997449 4.074821 -3.386799 0
M  V30 43 H 1.962400 3.095058 -4.387268 0
M  V30 44 H -0.864166 -1.706725 -0.816631 0
M  V30 45 H -2.345270 -0.624276 0.530977 0
M  V30 46 H -2.231093 0.961158 -0.262950 0
M  V30 47 H -4.202252 -0.728691 -0.850648 0
M  V30 48 H -3.525779 0.353915 -2.069837 0
M  V30 49 H -3.797930 -1.854665 -2.940835 0
M  V30 50 H -3.519672 -4.309641 -2.802923 0
M  V30 51 H -3.386431 -4.671898 -1.080491 0
M  V30 52 H -6.633522 -2.110359 -1.923040 0
M  V30 53 H -6.474648 -2.673112 -0.185731 0
M  V30 54 H -1.256865 -2.210108 -3.595767 0
M  V30 55 H -2.164996 -0.763637 -4.004110 0
M  V30 56 H -1.066952 0.679301 -2.675785 0
M  V30 57 H 0.248030 -0.511004 -2.823969 0
M  V30 58 H 2.205976 0.737600 4.055262 0
M  V30 END ATOM
M  V30 BEGIN BOND
M  V30 1 1 1 2
M  V30 2 1 2 3
M  V30 3 2 3 4
M  V30 4 1 4 5
M  V30 5 2 5 6
M  V30 6 1 6 7
M  V30 7 2 7 8
M  V30 8 1 8 9
M  V30 9 2 9 10
M  V30 10 1 10 11
M  V30 11 1 10 12
M  V30 12 2 12 13
M  V30 13 1 13 14
M  V30 14 1 13 15
M  V30 15 2 15 16
M  V30 16 1 16 17
M  V30 17 1 17 18
M  V30 18 1 18 19
M  V30 19 1 19 20
M  V30 20 1 20 21
M  V30 21 1 21 22
M  V30 22 1 22 23
M  V30 23 1 23 24
M  V30 24 1 24 25
M  V30 25 2 24 26
M  V30 26 1 21 27
M  V30 27 1 27 28
M  V30 28 1 17 29
M  V30 29 2 29 30
M  V30 30 1 6 31
M  V30 31 2 31 32
M  V30 32 1 32 3
M  V30 33 1 29 7
M  V30 34 1 16 9
M  V30 35 1 28 18
M  V30 36 1 1 33
M  V30 37 1 1 34
M  V30 38 1 1 35
M  V30 39 1 4 36
M  V30 40 1 5 37
M  V30 41 1 8 38
M  V30 42 1 11 39
M  V30 43 1 11 40
M  V30 44 1 11 41
M  V30 45 1 14 42
M  V30 46 1 14 43
M  V30 47 1 18 44 CFG=3
M  V30 48 1 19 45
M  V30 49 1 19 46
M  V30 50 1 20 47
M  V30 51 1 20 48
M  V30 52 1 21 49 CFG=3
M  V30 53 1 23 50
M  V30 54 1 23 51
M  V30 55 1 25 52
M  V30 56 1 25 53
M  V30 57 1 27 54
M  V30 58 1 27 55
M  V30 59 1 28 56
M  V30 60 1 28 57
M  V30 61 1 31 58
M  V30 END BOND
M  V30 END CTAB
M  END
>  <Dataset>  (611) 
ChEMBL_Kinases

>  <Ligand_Instance>  (611) 
nan

>  <PDB_ID>  (611) 
nan

>  <Standardized_SMILES>  (611) 
COc1ccc(-c2cc3c(C)nc(N)nc3n([C@H]3CC[C@H](OCC(N)=O)CC3)c2=O)cn1

>  <Name>  (611) 
nan

>  <Pocket>  (611) 
nan

>  <ATP_Site>  (611) 
nan

>  <Peripheral>  (611) 
nan

>  <Num_H_Atoms_ProtBoundConf>  (611) 
nan

>  <Num_Resolved_Atoms>  (611) 
nan

>  <Num_Not_Resolved_Atoms>  (611) 
nan

$$$$
CHEMBL2375685
     RDKit          3D

  0  0  0  0  0  0  0  0  0  0999 V3000
M  V30 BEGIN CTAB
M  V30 COUNTS 57 61 0 0 0
M  V30 BEGIN ATOM
M  V30 1 C 2.585474 -5.179537 2.459502 0
M  V30 2 C 2.893054 -5.324407 1.010608 0
M  V30 3 O 2.995055 -6.521835 0.573888 0
M  V30 4 C 3.071033 -4.178399 0.132356 0
M  V30 5 C 2.961829 -2.845962 0.519961 0
M  V30 6 C 3.204540 -2.082927 -0.619052 0
M  V30 7 C 3.237164 -0.712852 -0.872569 0
M  V30 8 C 3.506082 -0.181714 -2.113803 0
M  V30 9 N 3.512488 1.225059 -2.383709 0
M  V30 10 C 3.151758 1.980692 -1.233579 0
M  V30 11 N 3.863186 2.796794 -0.420581 0
M  V30 12 C 3.296189 3.388721 0.647209 0
M  V30 13 C 1.966614 3.167820 0.930072 0
M  V30 14 C 1.218470 2.341761 0.119627 0
M  V30 15 C -0.213974 2.058444 0.334596 0
M  V30 16 C -0.855324 1.254045 -0.567003 0
M  V30 17 C -2.178114 0.879388 -0.491900 0
M  V30 18 C -2.866567 1.379037 0.593602 0
M  V30 19 S -4.569554 0.928248 0.709077 0
M  V30 20 O -5.145658 0.988672 -0.697932 0
M  V30 21 O -5.273340 1.989576 1.518859 0
M  V30 22 N -4.715971 -0.608506 1.287929 0
M  V30 23 C -4.253916 -0.990555 2.551512 0
M  V30 24 C -3.214249 -2.086257 2.302689 0
M  V30 25 N -3.932532 -3.183164 1.637608 0
M  V30 26 C -4.347192 -2.708751 0.330923 0
M  V30 27 C -5.398848 -1.607764 0.567850 0
M  V30 28 C -2.264281 2.205719 1.546883 0
M  V30 29 C -0.910966 2.558742 1.423968 0
M  V30 30 N 1.861116 1.799109 -0.914554 0
M  V30 31 C 3.747100 -1.115653 -3.112100 0
M  V30 32 C 3.721528 -2.485256 -2.888811 0
M  V30 33 C 3.448720 -2.986698 -1.636729 0
M  V30 34 O 3.353794 -4.189087 -1.125386 0
M  V30 35 H 2.119344 -4.170266 2.598053 0
M  V30 36 H 3.572553 -5.106910 2.965508 0
M  V30 37 H 1.942026 -5.995026 2.844838 0
M  V30 38 H 2.738188 -2.413386 1.500731 0
M  V30 39 H 3.036264 -0.048679 -0.023143 0
M  V30 40 H 3.767758 1.541181 -3.342230 0
M  V30 41 H 3.937595 4.022552 1.240536 0
M  V30 42 H 1.505755 3.639730 1.784695 0
M  V30 43 H -0.284742 0.873761 -1.421841 0
M  V30 44 H -2.590123 0.238823 -1.259854 0
M  V30 45 H -3.869419 -0.178652 3.199024 0
M  V30 46 H -5.038565 -1.507464 3.170469 0
M  V30 47 H -2.550319 -1.658899 1.504353 0
M  V30 48 H -2.701432 -2.414866 3.198803 0
M  V30 49 H -3.323598 -4.017758 1.515946 0
M  V30 50 H -4.697709 -3.504294 -0.316491 0
M  V30 51 H -3.484210 -2.156452 -0.131611 0
M  V30 52 H -6.207044 -2.134762 1.158287 0
M  V30 53 H -5.858728 -1.269255 -0.364474 0
M  V30 54 H -2.850201 2.571369 2.383363 0
M  V30 55 H -0.430386 3.193156 2.145564 0
M  V30 56 H 3.963330 -0.753709 -4.109172 0
M  V30 57 H 3.910966 -3.216449 -3.671272 0
M  V30 END ATOM
M  V30 BEGIN BOND
M  V30 1 1 1 2
M  V30 2 2 2 3
M  V30 3 1 2 4
M  V30 4 2 4 5
M  V30 5 1 5 6
M  V30 6 2 6 7
M  V30 7 1 7 8
M  V30 8 1 8 9
M  V30 9 1 9 10
M  V30 10 2 10 11
M  V30 11 1 11 12
M  V30 12 2 12 13
M  V30 13 1 13 14
M  V30 14 1 14 15
M  V30 15 2 15 16
M  V30 16 1 16 17
M  V30 17 2 17 18
M  V30 18 1 18 19
M  V30 19 2 19 20
M  V30 20 2 19 21
M  V30 21 1 19 22
M  V30 22 1 22 23
M  V30 23 1 23 24
M  V30 24 1 24 25
M  V30 25 1 25 26
M  V30 26 1 26 27
M  V30 27 1 18 28
M  V30 28 2 28 29
M  V30 29 2 14 30
M  V30 30 2 8 31
M  V30 31 1 31 32
M  V30 32 2 32 33
M  V30 33 1 33 34
M  V30 34 1 34 4
M  V30 35 1 33 6
M  V30 36 1 30 10
M  V30 37 1 29 15
M  V30 38 1 27 22
M  V30 39 1 1 35
M  V30 40 1 1 36
M  V30 41 1 1 37
M  V30 42 1 5 38
M  V30 43 1 7 39
M  V30 44 1 9 40
M  V30 45 1 12 41
M  V30 46 1 13 42
M  V30 47 1 16 43
M  V30 48 1 17 44
M  V30 49 1 23 45
M  V30 50 1 23 46
M  V30 51 1 24 47
M  V30 52 1 24 48
M  V30 53 1 25 49
M  V30 54 1 26 50
M  V30 55 1 26 51
M  V30 56 1 27 52
M  V30 57 1 27 53
M  V30 58 1 28 54
M  V30 59 1 29 55
M  V30 60 1 31 56
M  V30 61 1 32 57
M  V30 END BOND
M  V30 END CTAB
M  END
>  <Dataset>  (612) 
ChEMBL_Kinases

>  <Ligand_Instance>  (612) 
nan

>  <PDB_ID>  (612) 
nan

>  <Standardized_SMILES>  (612) 
CC(=O)c1cc2cc(Nc3nccc(-c4ccc(S(=O)(=O)N5CCNCC5)cc4)n3)ccc2o1

>  <Name>  (612) 
nan

>  <Pocket>  (612) 
nan

>  <ATP_Site>  (612) 
nan

>  <Peripheral>  (612) 
nan

>  <Num_H_Atoms_ProtBoundConf>  (612) 
nan

>  <Num_Resolved_Atoms>  (612) 
nan

>  <Num_Not_Resolved_Atoms>  (612) 
nan

$$$$
CHEMBL2348970
     RDKit          3D

  0  0  0  0  0  0  0  0  0  0999 V3000
M  V30 BEGIN CTAB
M  V30 COUNTS 30 33 0 0 0
M  V30 BEGIN ATOM
M  V30 1 C -1.885316 -3.754518 3.759402 0
M  V30 2 C -0.733594 -4.517506 3.744099 0
M  V30 3 C 0.216126 -4.287766 2.768609 0
M  V30 4 C 0.070141 -3.308288 1.780928 0
M  V30 5 S 1.322520 -3.041601 0.535215 0
M  V30 6 C 0.778004 -1.714973 -0.540257 0
M  V30 7 C 0.019866 -1.980527 -1.685992 0
M  V30 8 C -0.372044 -0.920258 -2.477624 0
M  V30 9 C 0.006568 0.370321 -2.098215 0
M  V30 10 N -0.264505 1.555526 -2.720945 0
M  V30 11 N 0.302753 2.532397 -1.993228 0
M  V30 12 C 0.883870 1.893968 -0.974947 0
M  V30 13 C 1.628706 2.668291 0.061818 0
M  V30 14 C 2.868134 3.234650 0.454329 0
M  V30 15 N 2.777695 3.838169 1.615600 0
M  V30 16 C 1.949944 3.999620 2.349345 0
M  V30 17 S 0.483471 3.112866 1.485167 0
M  V30 18 N 0.724895 0.560587 -1.002432 0
M  V30 19 N 1.116093 -0.430572 -0.223422 0
M  V30 20 C -1.099410 -2.571438 1.839012 0
M  V30 21 C -2.079380 -2.763735 2.795395 0
M  V30 22 H -2.686419 -3.865210 4.489088 0
M  V30 23 H -0.626237 -5.263491 4.499230 0
M  V30 24 H 1.108453 -4.882211 2.760454 0
M  V30 25 H -0.228443 -3.011357 -1.904124 0
M  V30 26 H -0.966506 -1.110833 -3.378947 0
M  V30 27 H 3.448138 2.933791 -0.406204 0
M  V30 28 H 2.566965 4.662108 3.246940 0
M  V30 29 H -1.167159 -1.819903 1.047726 0
M  V30 30 H -2.960456 -2.135248 2.756882 0
M  V30 END ATOM
M  V30 BEGIN BOND
M  V30 1 2 1 2
M  V30 2 1 2 3
M  V30 3 2 3 4
M  V30 4 1 4 5
M  V30 5 1 5 6
M  V30 6 1 6 7
M  V30 7 2 7 8
M  V30 8 1 8 9
M  V30 9 2 9 10
M  V30 10 1 10 11
M  V30 11 2 11 12
M  V30 12 1 12 13
M  V30 13 2 13 14
M  V30 14 1 14 15
M  V30 15 2 15 16
M  V30 16 1 16 17
M  V30 17 1 12 18
M  V30 18 1 18 19
M  V30 19 1 4 20
M  V30 20 2 20 21
M  V30 21 1 21 1
M  V30 22 2 19 6
M  V30 23 1 18 9
M  V30 24 1 17 13
M  V30 25 1 1 22
M  V30 26 1 2 23
M  V30 27 1 3 24
M  V30 28 1 7 25
M  V30 29 1 8 26
M  V30 30 1 14 27
M  V30 31 1 16 28
M  V30 32 1 20 29
M  V30 33 1 21 30
M  V30 END BOND
M  V30 END CTAB
M  END
>  <Dataset>  (613) 
ChEMBL_Kinases

>  <Ligand_Instance>  (613) 
nan

>  <PDB_ID>  (613) 
nan

>  <Standardized_SMILES>  (613) 
c1ccc(Sc2ccc3nnc(-c4cncs4)n3n2)cc1

>  <Name>  (613) 
nan

>  <Pocket>  (613) 
nan

>  <ATP_Site>  (613) 
nan

>  <Peripheral>  (613) 
nan

>  <Num_H_Atoms_ProtBoundConf>  (613) 
nan

>  <Num_Resolved_Atoms>  (613) 
nan

>  <Num_Not_Resolved_Atoms>  (613) 
nan

$$$$
CHEMBL2348969
     RDKit          3D

  0  0  0  0  0  0  0  0  0  0999 V3000
M  V30 BEGIN CTAB
M  V30 COUNTS 31 34 0 0 0
M  V30 BEGIN ATOM
M  V30 1 F 0.305253 -2.731317 3.245199 0
M  V30 2 C 1.266770 -3.711232 3.028496 0
M  V30 3 F 0.668026 -4.914299 3.387026 0
M  V30 4 F 2.387350 -3.488870 3.810250 0
M  V30 5 C 1.635496 -3.807680 1.599262 0
M  V30 6 C 1.989259 -4.953968 0.926058 0
M  V30 7 C 2.308379 -4.877423 -0.416866 0
M  V30 8 N 2.269299 -3.683708 -1.049334 0
M  V30 9 C 1.918102 -2.546138 -0.380747 0
M  V30 10 S 1.897555 -1.018900 -1.309188 0
M  V30 11 C 1.417785 0.366804 -0.284411 0
M  V30 12 C 2.367793 1.112837 0.411393 0
M  V30 13 C 1.997947 2.193418 1.211027 0
M  V30 14 C 0.649961 2.477912 1.272420 0
M  V30 15 N 0.006809 3.441574 1.948168 0
M  V30 16 N -1.289890 3.334888 1.710234 0
M  V30 17 C -1.457320 2.310987 0.890788 0
M  V30 18 C -2.706892 1.794724 0.338676 0
M  V30 19 C -2.916855 1.147933 -0.807784 0
M  V30 20 N -4.149244 0.778414 -1.089570 0
M  V30 21 C -5.105374 0.963759 -0.420087 0
M  V30 22 S -4.319462 1.894397 1.067193 0
M  V30 23 N -0.270669 1.758612 0.600992 0
M  V30 24 N 0.132034 0.742127 -0.144676 0
M  V30 25 N 1.610746 -2.641590 0.927065 0
M  V30 26 H 1.993514 -5.850678 1.502808 0
M  V30 27 H 2.581779 -5.777948 -0.927438 0
M  V30 28 H 3.433082 0.857255 0.338865 0
M  V30 29 H 2.771007 2.752627 1.739857 0
M  V30 30 H -2.084515 0.930390 -1.496323 0
M  V30 31 H -6.153090 0.620783 -0.713892 0
M  V30 END ATOM
M  V30 BEGIN BOND
M  V30 1 1 1 2
M  V30 2 1 2 3
M  V30 3 1 2 4
M  V30 4 1 2 5
M  V30 5 2 5 6
M  V30 6 1 6 7
M  V30 7 2 7 8
M  V30 8 1 8 9
M  V30 9 1 9 10
M  V30 10 1 10 11
M  V30 11 1 11 12
M  V30 12 2 12 13
M  V30 13 1 13 14
M  V30 14 2 14 15
M  V30 15 1 15 16
M  V30 16 2 16 17
M  V30 17 1 17 18
M  V30 18 2 18 19
M  V30 19 1 19 20
M  V30 20 2 20 21
M  V30 21 1 21 22
M  V30 22 1 17 23
M  V30 23 1 23 24
M  V30 24 2 9 25
M  V30 25 1 25 5
M  V30 26 2 24 11
M  V30 27 1 23 14
M  V30 28 1 22 18
M  V30 29 1 6 26
M  V30 30 1 7 27
M  V30 31 1 12 28
M  V30 32 1 13 29
M  V30 33 1 19 30
M  V30 34 1 21 31
M  V30 END BOND
M  V30 END CTAB
M  END
>  <Dataset>  (614) 
ChEMBL_Kinases

>  <Ligand_Instance>  (614) 
nan

>  <PDB_ID>  (614) 
nan

>  <Standardized_SMILES>  (614) 
FC(F)(F)c1ccnc(Sc2ccc3nnc(-c4cncs4)n3n2)n1

>  <Name>  (614) 
nan

>  <Pocket>  (614) 
nan

>  <ATP_Site>  (614) 
nan

>  <Peripheral>  (614) 
nan

>  <Num_H_Atoms_ProtBoundConf>  (614) 
nan

>  <Num_Resolved_Atoms>  (614) 
nan

>  <Num_Not_Resolved_Atoms>  (614) 
nan

$$$$
CHEMBL2348968
     RDKit          3D

  0  0  0  0  0  0  0  0  0  0999 V3000
M  V30 BEGIN CTAB
M  V30 COUNTS 28 31 0 0 0
M  V30 BEGIN ATOM
M  V30 1 C -2.565705 -2.720843 3.921225 0
M  V30 2 C -1.990037 -3.878602 3.392994 0
M  V30 3 N -0.733156 -3.810100 2.886332 0
M  V30 4 C -0.046061 -2.636983 2.892212 0
M  V30 5 S 1.607850 -2.457111 2.247832 0
M  V30 6 C 1.448542 -2.029887 0.510818 0
M  V30 7 C 1.397204 -2.985906 -0.482332 0
M  V30 8 C 1.272042 -2.474352 -1.778053 0
M  V30 9 C 1.210069 -1.111413 -1.980138 0
M  V30 10 N 1.090655 -0.425827 -3.138177 0
M  V30 11 N 1.071712 0.876881 -2.849125 0
M  V30 12 C 1.177808 1.005927 -1.527909 0
M  V30 13 C 1.206051 2.255587 -0.694377 0
M  V30 14 C 0.423191 3.272192 -0.372141 0
M  V30 15 N 0.878277 4.194425 0.434762 0
M  V30 16 C 2.027132 4.156638 0.917268 0
M  V30 17 S 2.733523 2.540485 0.167331 0
M  V30 18 N 1.264764 -0.218175 -0.971648 0
M  V30 19 N 1.383531 -0.695655 0.260999 0
M  V30 20 N -0.592446 -1.500253 3.403001 0
M  V30 21 C -1.847544 -1.522406 3.920464 0
M  V30 22 H -3.566282 -2.776577 4.324274 0
M  V30 23 H -2.513227 -4.838586 3.371901 0
M  V30 24 H 1.453559 -4.034005 -0.222687 0
M  V30 25 H 1.228209 -3.192582 -2.587171 0
M  V30 26 H -0.547252 3.146003 -0.883567 0
M  V30 27 H 2.014123 5.221179 1.610975 0
M  V30 28 H -2.280927 -0.613041 4.327548 0
M  V30 END ATOM
M  V30 BEGIN BOND
M  V30 1 2 1 2
M  V30 2 1 2 3
M  V30 3 2 3 4
M  V30 4 1 4 5
M  V30 5 1 5 6
M  V30 6 1 6 7
M  V30 7 2 7 8
M  V30 8 1 8 9
M  V30 9 2 9 10
M  V30 10 1 10 11
M  V30 11 2 11 12
M  V30 12 1 12 13
M  V30 13 2 13 14
M  V30 14 1 14 15
M  V30 15 2 15 16
M  V30 16 1 16 17
M  V30 17 1 12 18
M  V30 18 1 18 19
M  V30 19 1 4 20
M  V30 20 2 20 21
M  V30 21 1 21 1
M  V30 22 2 19 6
M  V30 23 1 18 9
M  V30 24 1 17 13
M  V30 25 1 1 22
M  V30 26 1 2 23
M  V30 27 1 7 24
M  V30 28 1 8 25
M  V30 29 1 14 26
M  V30 30 1 16 27
M  V30 31 1 21 28
M  V30 END BOND
M  V30 END CTAB
M  END
>  <Dataset>  (615) 
ChEMBL_Kinases

>  <Ligand_Instance>  (615) 
nan

>  <PDB_ID>  (615) 
nan

>  <Standardized_SMILES>  (615) 
c1cnc(Sc2ccc3nnc(-c4cncs4)n3n2)nc1

>  <Name>  (615) 
nan

>  <Pocket>  (615) 
nan

>  <ATP_Site>  (615) 
nan

>  <Peripheral>  (615) 
nan

>  <Num_H_Atoms_ProtBoundConf>  (615) 
nan

>  <Num_Resolved_Atoms>  (615) 
nan

>  <Num_Not_Resolved_Atoms>  (615) 
nan

$$$$
CHEMBL2348967
     RDKit          3D

  0  0  0  0  0  0  0  0  0  0999 V3000
M  V30 BEGIN CTAB
M  V30 COUNTS 34 37 0 0 0
M  V30 BEGIN ATOM
M  V30 1 F 2.242461 -4.292154 2.562071 0
M  V30 2 C 1.477388 -4.448497 1.433778 0
M  V30 3 F 0.386318 -3.612766 1.534024 0
M  V30 4 F 1.051043 -5.748830 1.242319 0
M  V30 5 O 2.168354 -4.059531 0.259699 0
M  V30 6 C 2.657692 -2.768866 0.057594 0
M  V30 7 C 3.933254 -2.406479 0.450939 0
M  V30 8 C 4.393419 -1.115402 0.237173 0
M  V30 9 C 3.574809 -0.189837 -0.370252 0
M  V30 10 C 2.299207 -0.542709 -0.766530 0
M  V30 11 S 1.289187 0.721781 -1.553521 0
M  V30 12 C 0.400334 1.544470 -0.233541 0
M  V30 13 C 0.783608 2.648468 0.501116 0
M  V30 14 C -0.075532 3.107179 1.476220 0
M  V30 15 C -1.282982 2.470577 1.701433 0
M  V30 16 N -2.255985 2.774332 2.612720 0
M  V30 17 N -3.232166 1.862988 2.440267 0
M  V30 18 C -2.807969 1.044953 1.430467 0
M  V30 19 C -3.630341 -0.065364 0.989851 0
M  V30 20 C -4.533777 0.056046 -0.190665 0
M  V30 21 N -5.301751 -0.943218 -0.621677 0
M  V30 22 C -5.265096 -2.052005 -0.000563 0
M  V30 23 S -4.006117 -1.826446 1.439546 0
M  V30 24 N -1.602287 1.416667 0.969475 0
M  V30 25 N -0.801727 0.950650 0.026373 0
M  V30 26 C 1.830381 -1.842868 -0.553406 0
M  V30 27 H 4.526076 -3.180751 0.922695 0
M  V30 28 H 5.393553 -0.844064 0.549508 0
M  V30 29 H 3.920210 0.836724 -0.548325 0
M  V30 30 H 1.737600 3.026512 0.211524 0
M  V30 31 H 0.260720 3.965715 2.022414 0
M  V30 32 H -4.600679 0.987885 -0.757320 0
M  V30 33 H -5.750238 -2.955399 -0.131524 0
M  V30 34 H 0.819425 -2.063245 -0.885641 0
M  V30 END ATOM
M  V30 BEGIN BOND
M  V30 1 1 1 2
M  V30 2 1 2 3
M  V30 3 1 2 4
M  V30 4 1 2 5
M  V30 5 1 5 6
M  V30 6 2 6 7
M  V30 7 1 7 8
M  V30 8 2 8 9
M  V30 9 1 9 10
M  V30 10 1 10 11
M  V30 11 1 11 12
M  V30 12 1 12 13
M  V30 13 2 13 14
M  V30 14 1 14 15
M  V30 15 2 15 16
M  V30 16 1 16 17
M  V30 17 2 17 18
M  V30 18 1 18 19
M  V30 19 2 19 20
M  V30 20 1 20 21
M  V30 21 2 21 22
M  V30 22 1 22 23
M  V30 23 1 18 24
M  V30 24 1 24 25
M  V30 25 2 10 26
M  V30 26 1 26 6
M  V30 27 2 25 12
M  V30 28 1 24 15
M  V30 29 1 23 19
M  V30 30 1 7 27
M  V30 31 1 8 28
M  V30 32 1 9 29
M  V30 33 1 13 30
M  V30 34 1 14 31
M  V30 35 1 20 32
M  V30 36 1 22 33
M  V30 37 1 26 34
M  V30 END BOND
M  V30 END CTAB
M  END
>  <Dataset>  (616) 
ChEMBL_Kinases

>  <Ligand_Instance>  (616) 
nan

>  <PDB_ID>  (616) 
nan

>  <Standardized_SMILES>  (616) 
FC(F)(F)Oc1cccc(Sc2ccc3nnc(-c4cncs4)n3n2)c1

>  <Name>  (616) 
nan

>  <Pocket>  (616) 
nan

>  <ATP_Site>  (616) 
nan

>  <Peripheral>  (616) 
nan

>  <Num_H_Atoms_ProtBoundConf>  (616) 
nan

>  <Num_Resolved_Atoms>  (616) 
nan

>  <Num_Not_Resolved_Atoms>  (616) 
nan

$$$$
CHEMBL2348966
     RDKit          3D

  0  0  0  0  0  0  0  0  0  0999 V3000
M  V30 BEGIN CTAB
M  V30 COUNTS 42 45 0 0 0
M  V30 BEGIN ATOM
M  V30 1 C -0.293764 -4.654156 0.296233 0
M  V30 2 C -0.254496 -3.380279 -0.517364 0
M  V30 3 C -1.545050 -2.619813 -0.284521 0
M  V30 4 C -0.231885 -3.752128 -1.982884 0
M  V30 5 C 0.937911 -2.599213 -0.100910 0
M  V30 6 C 1.791523 -3.068976 0.879359 0
M  V30 7 C 2.899556 -2.307813 1.242872 0
M  V30 8 C 3.103290 -1.089202 0.594567 0
M  V30 9 C 2.244277 -0.631465 -0.381961 0
M  V30 10 S 2.727867 0.949152 -1.051012 0
M  V30 11 C 1.997315 2.303497 -0.137859 0
M  V30 12 C 2.206525 3.651084 -0.444648 0
M  V30 13 C 1.580599 4.599704 0.343226 0
M  V30 14 C 0.766832 4.254291 1.408744 0
M  V30 15 N 0.060637 4.995928 2.306221 0
M  V30 16 N -0.536076 4.150298 3.102994 0
M  V30 17 C -0.220387 2.896678 2.725867 0
M  V30 18 C -0.621608 1.575356 3.281261 0
M  V30 19 C -1.607569 0.843226 2.738489 0
M  V30 20 N -1.948545 -0.328050 3.247172 0
M  V30 21 C -1.378115 -0.793633 4.235644 0
M  V30 22 S -0.075470 0.552085 4.665695 0
M  V30 23 N 0.609212 2.937007 1.647763 0
M  V30 24 N 1.209869 2.023852 0.891771 0
M  V30 25 C 1.144672 -1.393968 -0.737982 0
M  V30 26 H -1.176274 -5.255030 -0.000475 0
M  V30 27 H 0.615354 -5.235541 0.097540 0
M  V30 28 H -0.387722 -4.380318 1.350299 0
M  V30 29 H -1.352743 -1.813347 0.434569 0
M  V30 30 H -2.327622 -3.305124 0.105774 0
M  V30 31 H -1.942224 -2.155344 -1.200699 0
M  V30 32 H -0.905973 -4.622007 -2.114433 0
M  V30 33 H 0.789552 -3.944889 -2.358791 0
M  V30 34 H -0.637588 -2.876212 -2.539868 0
M  V30 35 H 1.633668 -3.999295 1.372474 0
M  V30 36 H 3.545759 -2.690962 2.003211 0
M  V30 37 H 4.001911 -0.577328 0.959286 0
M  V30 38 H 2.850675 3.872180 -1.286714 0
M  V30 39 H 1.761650 5.635868 0.081127 0
M  V30 40 H -2.219244 1.106098 1.857849 0
M  V30 41 H -1.492069 -1.714604 4.807309 0
M  V30 42 H 0.540663 -0.950153 -1.505482 0
M  V30 END ATOM
M  V30 BEGIN BOND
M  V30 1 1 1 2
M  V30 2 1 2 3
M  V30 3 1 2 4
M  V30 4 1 2 5
M  V30 5 2 5 6
M  V30 6 1 6 7
M  V30 7 2 7 8
M  V30 8 1 8 9
M  V30 9 1 9 10
M  V30 10 1 10 11
M  V30 11 1 11 12
M  V30 12 2 12 13
M  V30 13 1 13 14
M  V30 14 2 14 15
M  V30 15 1 15 16
M  V30 16 2 16 17
M  V30 17 1 17 18
M  V30 18 2 18 19
M  V30 19 1 19 20
M  V30 20 2 20 21
M  V30 21 1 21 22
M  V30 22 1 17 23
M  V30 23 1 23 24
M  V30 24 2 9 25
M  V30 25 1 25 5
M  V30 26 2 24 11
M  V30 27 1 23 14
M  V30 28 1 22 18
M  V30 29 1 1 26
M  V30 30 1 1 27
M  V30 31 1 1 28
M  V30 32 1 3 29
M  V30 33 1 3 30
M  V30 34 1 3 31
M  V30 35 1 4 32
M  V30 36 1 4 33
M  V30 37 1 4 34
M  V30 38 1 6 35
M  V30 39 1 7 36
M  V30 40 1 8 37
M  V30 41 1 12 38
M  V30 42 1 13 39
M  V30 43 1 19 40
M  V30 44 1 21 41
M  V30 45 1 25 42
M  V30 END BOND
M  V30 END CTAB
M  END
>  <Dataset>  (617) 
ChEMBL_Kinases

>  <Ligand_Instance>  (617) 
nan

>  <PDB_ID>  (617) 
nan

>  <Standardized_SMILES>  (617) 
CC(C)(C)c1cccc(Sc2ccc3nnc(-c4cncs4)n3n2)c1

>  <Name>  (617) 
nan

>  <Pocket>  (617) 
nan

>  <ATP_Site>  (617) 
nan

>  <Peripheral>  (617) 
nan

>  <Num_H_Atoms_ProtBoundConf>  (617) 
nan

>  <Num_Resolved_Atoms>  (617) 
nan

>  <Num_Not_Resolved_Atoms>  (617) 
nan

$$$$
CHEMBL2348965
     RDKit          3D

  0  0  0  0  0  0  0  0  0  0999 V3000
M  V30 BEGIN CTAB
M  V30 COUNTS 34 37 0 0 0
M  V30 BEGIN ATOM
M  V30 1 C -0.503494 -4.525136 0.810227 0
M  V30 2 O 0.912369 -4.586071 0.906979 0
M  V30 3 C 1.648036 -3.502430 1.415495 0
M  V30 4 C 3.024638 -3.586471 1.499369 0
M  V30 5 C 3.730386 -2.525598 1.995949 0
M  V30 6 C 3.123368 -1.356141 2.424230 0
M  V30 7 C 1.748513 -1.295890 2.330735 0
M  V30 8 S 0.910829 0.167752 2.860060 0
M  V30 9 C 0.766490 1.294372 1.477323 0
M  V30 10 C 1.678059 2.268308 1.120288 0
M  V30 11 C 1.398164 3.058756 0.005721 0
M  V30 12 C 0.220122 2.840923 -0.702359 0
M  V30 13 N -0.205603 3.503705 -1.791380 0
M  V30 14 N -1.382284 2.939480 -2.109124 0
M  V30 15 C -1.619827 1.956890 -1.197260 0
M  V30 16 C -2.840085 1.075853 -1.196059 0
M  V30 17 C -3.903164 1.253054 -0.339366 0
M  V30 18 N -4.891457 0.395232 -0.469014 0
M  V30 19 C -4.990699 -0.463193 -1.181449 0
M  V30 20 S -3.374087 -0.393185 -2.176764 0
M  V30 21 N -0.622245 1.875196 -0.298577 0
M  V30 22 N -0.363065 1.123180 0.756048 0
M  V30 23 C 1.039653 -2.357104 1.833748 0
M  V30 24 H -0.832639 -3.928279 -0.054116 0
M  V30 25 H -0.892568 -5.545205 0.661014 0
M  V30 26 H -0.887990 -4.149563 1.779162 0
M  V30 27 H 3.563030 -4.448801 1.191369 0
M  V30 28 H 4.795141 -2.574075 2.067616 0
M  V30 29 H 3.653312 -0.503465 2.820152 0
M  V30 30 H 2.552153 2.334000 1.753491 0
M  V30 31 H 2.139019 3.802317 -0.230554 0
M  V30 32 H -4.034588 2.019960 0.441258 0
M  V30 33 H -5.524628 -1.451662 -1.726975 0
M  V30 34 H -0.036467 -2.260193 1.781008 0
M  V30 END ATOM
M  V30 BEGIN BOND
M  V30 1 1 1 2
M  V30 2 1 2 3
M  V30 3 2 3 4
M  V30 4 1 4 5
M  V30 5 2 5 6
M  V30 6 1 6 7
M  V30 7 1 7 8
M  V30 8 1 8 9
M  V30 9 1 9 10
M  V30 10 2 10 11
M  V30 11 1 11 12
M  V30 12 2 12 13
M  V30 13 1 13 14
M  V30 14 2 14 15
M  V30 15 1 15 16
M  V30 16 2 16 17
M  V30 17 1 17 18
M  V30 18 2 18 19
M  V30 19 1 19 20
M  V30 20 1 15 21
M  V30 21 1 21 22
M  V30 22 2 7 23
M  V30 23 1 23 3
M  V30 24 2 22 9
M  V30 25 1 21 12
M  V30 26 1 20 16
M  V30 27 1 1 24
M  V30 28 1 1 25
M  V30 29 1 1 26
M  V30 30 1 4 27
M  V30 31 1 5 28
M  V30 32 1 6 29
M  V30 33 1 10 30
M  V30 34 1 11 31
M  V30 35 1 17 32
M  V30 36 1 19 33
M  V30 37 1 23 34
M  V30 END BOND
M  V30 END CTAB
M  END
>  <Dataset>  (618) 
ChEMBL_Kinases

>  <Ligand_Instance>  (618) 
nan

>  <PDB_ID>  (618) 
nan

>  <Standardized_SMILES>  (618) 
COc1cccc(Sc2ccc3nnc(-c4cncs4)n3n2)c1

>  <Name>  (618) 
nan

>  <Pocket>  (618) 
nan

>  <ATP_Site>  (618) 
nan

>  <Peripheral>  (618) 
nan

>  <Num_H_Atoms_ProtBoundConf>  (618) 
nan

>  <Num_Resolved_Atoms>  (618) 
nan

>  <Num_Not_Resolved_Atoms>  (618) 
nan

$$$$
CHEMBL2348964
     RDKit          3D

  0  0  0  0  0  0  0  0  0  0999 V3000
M  V30 BEGIN CTAB
M  V30 COUNTS 30 33 0 0 0
M  V30 BEGIN ATOM
M  V30 1 F 0.064325 -6.318612 3.125682 0
M  V30 2 C 0.525128 -5.223874 2.477355 0
M  V30 3 C 1.830002 -4.773342 2.594308 0
M  V30 4 C 2.280969 -3.644298 1.917324 0
M  V30 5 C 1.437139 -2.929045 1.099773 0
M  V30 6 C 0.136881 -3.395642 0.996251 0
M  V30 7 S -1.022495 -2.535956 -0.036299 0
M  V30 8 C -0.291056 -1.114674 -0.832110 0
M  V30 9 C 0.344249 -1.076623 -2.056005 0
M  V30 10 C 0.845790 0.136694 -2.495328 0
M  V30 11 C 0.706034 1.269226 -1.718075 0
M  V30 12 N 1.104363 2.553480 -1.924221 0
M  V30 13 N 0.734256 3.276958 -0.879201 0
M  V30 14 C 0.121889 2.435477 -0.057846 0
M  V30 15 C -0.476380 2.784690 1.266421 0
M  V30 16 C -0.213602 3.034405 2.620353 0
M  V30 17 N -1.311482 3.308355 3.288885 0
M  V30 18 C -2.390486 3.379798 2.996133 0
M  V30 19 S -2.325817 2.984136 1.134328 0
M  V30 20 N 0.078690 1.177715 -0.533530 0
M  V30 21 N -0.409312 0.023828 -0.094189 0
M  V30 22 C -0.345480 -4.510489 1.651969 0
M  V30 23 H 2.494477 -5.339083 3.239943 0
M  V30 24 H 3.299933 -3.305316 2.018118 0
M  V30 25 H 1.710131 -2.046162 0.542973 0
M  V30 26 H 0.387145 -2.030407 -2.564473 0
M  V30 27 H 1.336816 0.126592 -3.458873 0
M  V30 28 H 0.859171 2.904747 2.629882 0
M  V30 29 H -2.939988 3.674492 4.087422 0
M  V30 30 H -1.368416 -4.844209 1.545936 0
M  V30 END ATOM
M  V30 BEGIN BOND
M  V30 1 1 1 2
M  V30 2 2 2 3
M  V30 3 1 3 4
M  V30 4 2 4 5
M  V30 5 1 5 6
M  V30 6 1 6 7
M  V30 7 1 7 8
M  V30 8 1 8 9
M  V30 9 2 9 10
M  V30 10 1 10 11
M  V30 11 2 11 12
M  V30 12 1 12 13
M  V30 13 2 13 14
M  V30 14 1 14 15
M  V30 15 2 15 16
M  V30 16 1 16 17
M  V30 17 2 17 18
M  V30 18 1 18 19
M  V30 19 1 14 20
M  V30 20 1 20 21
M  V30 21 2 6 22
M  V30 22 1 22 2
M  V30 23 2 21 8
M  V30 24 1 20 11
M  V30 25 1 19 15
M  V30 26 1 3 23
M  V30 27 1 4 24
M  V30 28 1 5 25
M  V30 29 1 9 26
M  V30 30 1 10 27
M  V30 31 1 16 28
M  V30 32 1 18 29
M  V30 33 1 22 30
M  V30 END BOND
M  V30 END CTAB
M  END
>  <Dataset>  (619) 
ChEMBL_Kinases

>  <Ligand_Instance>  (619) 
nan

>  <PDB_ID>  (619) 
nan

>  <Standardized_SMILES>  (619) 
Fc1cccc(Sc2ccc3nnc(-c4cncs4)n3n2)c1

>  <Name>  (619) 
nan

>  <Pocket>  (619) 
nan

>  <ATP_Site>  (619) 
nan

>  <Peripheral>  (619) 
nan

>  <Num_H_Atoms_ProtBoundConf>  (619) 
nan

>  <Num_Resolved_Atoms>  (619) 
nan

>  <Num_Not_Resolved_Atoms>  (619) 
nan

$$$$
CHEMBL2348963
     RDKit          3D

  0  0  0  0  0  0  0  0  0  0999 V3000
M  V30 BEGIN CTAB
M  V30 COUNTS 30 33 0 0 0
M  V30 BEGIN ATOM
M  V30 1 Cl 0.425765 -3.879702 4.674040 0
M  V30 2 C 0.811858 -4.079356 2.978030 0
M  V30 3 C 1.841921 -4.914739 2.596982 0
M  V30 4 C 2.087290 -5.021484 1.243384 0
M  V30 5 C 1.364899 -4.343953 0.255679 0
M  V30 6 C 0.346798 -3.526259 0.741675 0
M  V30 7 S -0.599673 -2.643684 -0.482379 0
M  V30 8 C 0.093894 -1.041009 -0.861633 0
M  V30 9 C 1.031287 -0.854561 -1.867971 0
M  V30 10 C 1.551273 0.413914 -2.135695 0
M  V30 11 C 1.064093 1.441509 -1.332287 0
M  V30 12 N 1.396852 2.765101 -1.376007 0
M  V30 13 N 0.707084 3.407242 -0.441197 0
M  V30 14 C -0.029108 2.475393 0.153326 0
M  V30 15 C -0.975012 2.747242 1.284179 0
M  V30 16 C -1.094740 2.884702 2.675972 0
M  V30 17 N -2.333099 3.147482 3.028224 0
M  V30 18 C -3.285139 3.279858 2.455218 0
M  V30 19 S -2.704693 3.021225 0.648668 0
M  V30 20 N 0.155290 1.245620 -0.360416 0
M  V30 21 N -0.307424 0.025983 -0.144840 0
M  V30 22 C 0.042513 -3.369015 2.079877 0
M  V30 23 H 2.440507 -5.468317 3.307941 0
M  V30 24 H 2.882316 -5.661231 0.880369 0
M  V30 25 H 1.581330 -4.449653 -0.780222 0
M  V30 26 H 1.361928 -1.705471 -2.451512 0
M  V30 27 H 2.284838 0.575828 -2.919215 0
M  V30 28 H -0.068404 2.715170 2.968810 0
M  V30 29 H -4.109984 3.512122 3.383635 0
M  V30 30 H -0.761587 -2.717099 2.380271 0
M  V30 END ATOM
M  V30 BEGIN BOND
M  V30 1 1 1 2
M  V30 2 2 2 3
M  V30 3 1 3 4
M  V30 4 2 4 5
M  V30 5 1 5 6
M  V30 6 1 6 7
M  V30 7 1 7 8
M  V30 8 1 8 9
M  V30 9 2 9 10
M  V30 10 1 10 11
M  V30 11 2 11 12
M  V30 12 1 12 13
M  V30 13 2 13 14
M  V30 14 1 14 15
M  V30 15 2 15 16
M  V30 16 1 16 17
M  V30 17 2 17 18
M  V30 18 1 18 19
M  V30 19 1 14 20
M  V30 20 1 20 21
M  V30 21 2 6 22
M  V30 22 1 22 2
M  V30 23 2 21 8
M  V30 24 1 20 11
M  V30 25 1 19 15
M  V30 26 1 3 23
M  V30 27 1 4 24
M  V30 28 1 5 25
M  V30 29 1 9 26
M  V30 30 1 10 27
M  V30 31 1 16 28
M  V30 32 1 18 29
M  V30 33 1 22 30
M  V30 END BOND
M  V30 END CTAB
M  END
>  <Dataset>  (620) 
ChEMBL_Kinases

>  <Ligand_Instance>  (620) 
nan

>  <PDB_ID>  (620) 
nan

>  <Standardized_SMILES>  (620) 
Clc1cccc(Sc2ccc3nnc(-c4cncs4)n3n2)c1

>  <Name>  (620) 
nan

>  <Pocket>  (620) 
nan

>  <ATP_Site>  (620) 
nan

>  <Peripheral>  (620) 
nan

>  <Num_H_Atoms_ProtBoundConf>  (620) 
nan

>  <Num_Resolved_Atoms>  (620) 
nan

>  <Num_Not_Resolved_Atoms>  (620) 
nan

$$$$
CHEMBL2348962
     RDKit          3D

  0  0  0  0  0  0  0  0  0  0999 V3000
M  V30 BEGIN CTAB
M  V30 COUNTS 30 33 0 0 0
M  V30 BEGIN ATOM
M  V30 1 Br 0.616989 -3.632586 4.785802 0
M  V30 2 C 0.939252 -3.910623 2.932037 0
M  V30 3 C 1.984680 -4.746820 2.585080 0
M  V30 4 C 2.243993 -4.968827 1.240767 0
M  V30 5 C 1.494389 -4.383723 0.241535 0
M  V30 6 C 0.454911 -3.552285 0.586560 0
M  V30 7 S -0.668705 -2.670341 -0.485653 0
M  V30 8 C -0.072395 -1.041476 -0.911904 0
M  V30 9 C 0.722176 -0.854966 -2.041584 0
M  V30 10 C 1.157545 0.432449 -2.325087 0
M  V30 11 C 0.788107 1.465734 -1.482822 0
M  V30 12 N 1.093867 2.789858 -1.563085 0
M  V30 13 N 0.525218 3.413459 -0.540333 0
M  V30 14 C -0.113133 2.465086 0.141248 0
M  V30 15 C -0.908749 2.682989 1.387430 0
M  V30 16 C -0.855961 2.867571 2.775275 0
M  V30 17 N -2.054232 3.012241 3.296441 0
M  V30 18 C -3.085418 3.016949 2.859908 0
M  V30 19 S -2.740085 2.745352 1.011154 0
M  V30 20 N 0.020245 1.242423 -0.403302 0
M  V30 21 N -0.393957 0.016103 -0.134001 0
M  V30 22 C 0.182468 -3.319776 1.935036 0
M  V30 23 H 2.608402 -5.234578 3.338407 0
M  V30 24 H 3.057261 -5.619966 0.916036 0
M  V30 25 H 1.614325 -4.491372 -0.808538 0
M  V30 26 H 0.997868 -1.693575 -2.689243 0
M  V30 27 H 1.785983 0.617832 -3.207856 0
M  V30 28 H 0.213219 2.821784 2.925639 0
M  V30 29 H -3.797158 3.199688 3.884670 0
M  V30 30 H -0.608232 -2.685744 2.333288 0
M  V30 END ATOM
M  V30 BEGIN BOND
M  V30 1 1 1 2
M  V30 2 2 2 3
M  V30 3 1 3 4
M  V30 4 2 4 5
M  V30 5 1 5 6
M  V30 6 1 6 7
M  V30 7 1 7 8
M  V30 8 1 8 9
M  V30 9 2 9 10
M  V30 10 1 10 11
M  V30 11 2 11 12
M  V30 12 1 12 13
M  V30 13 2 13 14
M  V30 14 1 14 15
M  V30 15 2 15 16
M  V30 16 1 16 17
M  V30 17 2 17 18
M  V30 18 1 18 19
M  V30 19 1 14 20
M  V30 20 1 20 21
M  V30 21 2 6 22
M  V30 22 1 22 2
M  V30 23 2 21 8
M  V30 24 1 20 11
M  V30 25 1 19 15
M  V30 26 1 3 23
M  V30 27 1 4 24
M  V30 28 1 5 25
M  V30 29 1 9 26
M  V30 30 1 10 27
M  V30 31 1 16 28
M  V30 32 1 18 29
M  V30 33 1 22 30
M  V30 END BOND
M  V30 END CTAB
M  END
>  <Dataset>  (621) 
ChEMBL_Kinases

>  <Ligand_Instance>  (621) 
nan

>  <PDB_ID>  (621) 
nan

>  <Standardized_SMILES>  (621) 
Brc1cccc(Sc2ccc3nnc(-c4cncs4)n3n2)c1

>  <Name>  (621) 
nan

>  <Pocket>  (621) 
nan

>  <ATP_Site>  (621) 
nan

>  <Peripheral>  (621) 
nan

>  <Num_H_Atoms_ProtBoundConf>  (621) 
nan

>  <Num_Resolved_Atoms>  (621) 
nan

>  <Num_Not_Resolved_Atoms>  (621) 
nan

$$$$
CHEMBL2348961
     RDKit          3D

  0  0  0  0  0  0  0  0  0  0999 V3000
M  V30 BEGIN CTAB
M  V30 COUNTS 37 40 0 0 0
M  V30 BEGIN ATOM
M  V30 1 F 5.865805 -2.194486 -0.234768 0
M  V30 2 C 4.593757 -1.815247 -0.674786 0
M  V30 3 F 3.781764 -2.918240 -0.692960 0
M  V30 4 F 4.767038 -1.295482 -1.956982 0
M  V30 5 C 4.108653 -0.748662 0.244816 0
M  V30 6 C 4.860665 -0.296701 1.302455 0
M  V30 7 C 4.440112 0.686676 2.168969 0
M  V30 8 C 3.188949 1.238413 1.946979 0
M  V30 9 C 2.435541 0.786874 0.888860 0
M  V30 10 C 2.860124 -0.202349 0.018264 0
M  V30 11 S 1.790688 -0.716209 -1.333799 0
M  V30 12 C 0.296509 0.260114 -1.224530 0
M  V30 13 C 0.079578 1.479214 -1.833936 0
M  V30 14 C -1.157659 2.051726 -1.606538 0
M  V30 15 C -2.092317 1.415527 -0.814504 0
M  V30 16 N -3.341613 1.788672 -0.465940 0
M  V30 17 N -3.851115 0.843378 0.313169 0
M  V30 18 C -2.933952 -0.146375 0.472713 0
M  V30 19 C -2.936605 -1.408933 1.206672 0
M  V30 20 C -2.708331 -1.367346 2.578023 0
M  V30 21 C -2.711038 -2.566532 3.274000 0
M  V30 22 C -2.934173 -3.792194 2.637627 0
M  V30 23 C -3.160488 -3.805388 1.261391 0
M  V30 24 C -3.162398 -2.614911 0.542352 0
M  V30 25 N -1.845100 0.221607 -0.233412 0
M  V30 26 N -0.645417 -0.323030 -0.460000 0
M  V30 27 H 5.844415 -0.707774 1.503824 0
M  V30 28 H 4.998091 1.068779 3.008867 0
M  V30 29 H 2.805371 2.017366 2.598171 0
M  V30 30 H 1.461190 1.243677 0.747991 0
M  V30 31 H 0.898654 1.861494 -2.426313 0
M  V30 32 H -1.317701 3.015096 -2.093260 0
M  V30 33 H -2.531578 -0.419231 3.095682 0
M  V30 34 H -2.538089 -2.581968 4.340843 0
M  V30 35 H -2.937286 -4.735156 3.178882 0
M  V30 36 H -3.343005 -4.730591 0.694910 0
M  V30 37 H -3.331391 -2.548231 -0.530760 0
M  V30 END ATOM
M  V30 BEGIN BOND
M  V30 1 1 1 2
M  V30 2 1 2 3
M  V30 3 1 2 4
M  V30 4 1 2 5
M  V30 5 2 5 6
M  V30 6 1 6 7
M  V30 7 2 7 8
M  V30 8 1 8 9
M  V30 9 2 9 10
M  V30 10 1 10 11
M  V30 11 1 11 12
M  V30 12 1 12 13
M  V30 13 2 13 14
M  V30 14 1 14 15
M  V30 15 2 15 16
M  V30 16 1 16 17
M  V30 17 2 17 18
M  V30 18 1 18 19
M  V30 19 2 19 20
M  V30 20 1 20 21
M  V30 21 2 21 22
M  V30 22 1 22 23
M  V30 23 2 23 24
M  V30 24 1 18 25
M  V30 25 1 25 26
M  V30 26 1 10 5
M  V30 27 2 26 12
M  V30 28 1 25 15
M  V30 29 1 24 19
M  V30 30 1 6 27
M  V30 31 1 7 28
M  V30 32 1 8 29
M  V30 33 1 9 30
M  V30 34 1 13 31
M  V30 35 1 14 32
M  V30 36 1 20 33
M  V30 37 1 21 34
M  V30 38 1 22 35
M  V30 39 1 23 36
M  V30 40 1 24 37
M  V30 END BOND
M  V30 END CTAB
M  END
>  <Dataset>  (622) 
ChEMBL_Kinases

>  <Ligand_Instance>  (622) 
nan

>  <PDB_ID>  (622) 
nan

>  <Standardized_SMILES>  (622) 
FC(F)(F)c1ccccc1Sc1ccc2nnc(-c3ccccc3)n2n1

>  <Name>  (622) 
nan

>  <Pocket>  (622) 
nan

>  <ATP_Site>  (622) 
nan

>  <Peripheral>  (622) 
nan

>  <Num_H_Atoms_ProtBoundConf>  (622) 
nan

>  <Num_Resolved_Atoms>  (622) 
nan

>  <Num_Not_Resolved_Atoms>  (622) 
nan

$$$$
CHEMBL2348960
     RDKit          3D

  0  0  0  0  0  0  0  0  0  0999 V3000
M  V30 BEGIN CTAB
M  V30 COUNTS 37 40 0 0 0
M  V30 BEGIN ATOM
M  V30 1 F -0.132362 -3.800873 3.818876 0
M  V30 2 C 0.133543 -4.690037 2.809466 0
M  V30 3 F -1.024340 -5.335744 2.493677 0
M  V30 4 F 1.029343 -5.623378 3.341619 0
M  V30 5 C 0.733008 -3.952511 1.689637 0
M  V30 6 C 1.874970 -3.219841 1.942381 0
M  V30 7 C 2.492358 -2.496427 0.917122 0
M  V30 8 C 1.945620 -2.519791 -0.366175 0
M  V30 9 S 2.863729 -1.540976 -1.546700 0
M  V30 10 C 2.186897 0.112500 -1.522350 0
M  V30 11 C 2.748027 1.052730 -2.365638 0
M  V30 12 C 2.251162 2.338352 -2.373311 0
M  V30 13 C 1.197884 2.730081 -1.558474 0
M  V30 14 N 0.520758 3.878351 -1.353902 0
M  V30 15 N -0.407251 3.634106 -0.426065 0
M  V30 16 C -0.301435 2.327770 -0.056693 0
M  V30 17 C -1.146160 1.677627 0.940212 0
M  V30 18 C -1.628336 0.428127 0.534691 0
M  V30 19 C -2.445710 -0.283572 1.407682 0
M  V30 20 C -2.788847 0.208419 2.651512 0
M  V30 21 C -2.295138 1.444538 3.018732 0
M  V30 22 C -1.481646 2.180860 2.180960 0
M  V30 23 N 0.698211 1.747893 -0.755929 0
M  V30 24 N 1.153696 0.529274 -0.734626 0
M  V30 25 C 0.794461 -3.257844 -0.622781 0
M  V30 26 C 0.216773 -3.955405 0.409907 0
M  V30 27 H 2.297847 -3.204039 2.942994 0
M  V30 28 H 3.373090 -1.954734 1.195055 0
M  V30 29 H 3.568591 0.881386 -3.048112 0
M  V30 30 H 2.665287 3.120281 -3.027013 0
M  V30 31 H -1.395338 -0.012168 -0.427771 0
M  V30 32 H -2.807467 -1.260622 1.059519 0
M  V30 33 H -3.433401 -0.389443 3.299271 0
M  V30 34 H -2.557853 1.839492 3.991313 0
M  V30 35 H -1.076592 3.146293 2.428171 0
M  V30 36 H 0.450568 -3.214159 -1.637164 0
M  V30 37 H -0.676299 -4.522940 0.192876 0
M  V30 END ATOM
M  V30 BEGIN BOND
M  V30 1 1 1 2
M  V30 2 1 2 3
M  V30 3 1 2 4
M  V30 4 1 2 5
M  V30 5 2 5 6
M  V30 6 1 6 7
M  V30 7 2 7 8
M  V30 8 1 8 9
M  V30 9 1 9 10
M  V30 10 1 10 11
M  V30 11 2 11 12
M  V30 12 1 12 13
M  V30 13 2 13 14
M  V30 14 1 14 15
M  V30 15 2 15 16
M  V30 16 1 16 17
M  V30 17 2 17 18
M  V30 18 1 18 19
M  V30 19 2 19 20
M  V30 20 1 20 21
M  V30 21 2 21 22
M  V30 22 1 16 23
M  V30 23 1 23 24
M  V30 24 1 8 25
M  V30 25 2 25 26
M  V30 26 1 26 5
M  V30 27 2 24 10
M  V30 28 1 23 13
M  V30 29 1 22 17
M  V30 30 1 6 27
M  V30 31 1 7 28
M  V30 32 1 11 29
M  V30 33 1 12 30
M  V30 34 1 18 31
M  V30 35 1 19 32
M  V30 36 1 20 33
M  V30 37 1 21 34
M  V30 38 1 22 35
M  V30 39 1 25 36
M  V30 40 1 26 37
M  V30 END BOND
M  V30 END CTAB
M  END
>  <Dataset>  (623) 
ChEMBL_Kinases

>  <Ligand_Instance>  (623) 
nan

>  <PDB_ID>  (623) 
nan

>  <Standardized_SMILES>  (623) 
FC(F)(F)c1ccc(Sc2ccc3nnc(-c4ccccc4)n3n2)cc1

>  <Name>  (623) 
nan

>  <Pocket>  (623) 
nan

>  <ATP_Site>  (623) 
nan

>  <Peripheral>  (623) 
nan

>  <Num_H_Atoms_ProtBoundConf>  (623) 
nan

>  <Num_Resolved_Atoms>  (623) 
nan

>  <Num_Not_Resolved_Atoms>  (623) 
nan

$$$$
CHEMBL2348957
     RDKit          3D

  0  0  0  0  0  0  0  0  0  0999 V3000
M  V30 BEGIN CTAB
M  V30 COUNTS 41 44 0 0 0
M  V30 BEGIN ATOM
M  V30 1 F 1.429526 -5.429445 1.649936 0
M  V30 2 C 1.688440 -4.754435 0.464395 0
M  V30 3 F 0.535509 -4.650201 -0.304294 0
M  V30 4 F 2.657884 -5.492688 -0.197913 0
M  V30 5 C 2.242872 -3.426026 0.821342 0
M  V30 6 C 2.699413 -3.153904 2.093722 0
M  V30 7 C 3.209646 -1.909569 2.396298 0
M  V30 8 C 3.245985 -0.954529 1.386266 0
M  V30 9 C 2.790195 -1.228243 0.118407 0
M  V30 10 S 2.942491 0.155915 -0.997081 0
M  V30 11 C 1.477026 1.166884 -0.960242 0
M  V30 12 C 1.495128 2.266199 -1.790513 0
M  V30 13 C 0.387203 3.105005 -1.818313 0
M  V30 14 C -0.697120 2.811724 -1.013898 0
M  V30 15 N -1.885163 3.406878 -0.818468 0
M  V30 16 N -2.562311 2.682165 0.087033 0
M  V30 17 C -1.804248 1.614391 0.475955 0
M  V30 18 C -2.296991 0.614438 1.482036 0
M  V30 19 C -2.337701 -0.778912 0.978175 0
M  V30 20 C -1.230382 -1.668455 1.371955 0
M  V30 21 O -0.188883 -1.141753 2.037994 0
M  V30 22 C -0.321286 -0.026044 2.776475 0
M  V30 23 C -1.613323 0.685255 2.796606 0
M  V30 24 N -0.667116 1.735260 -0.226578 0
M  V30 25 N 0.380291 0.967448 -0.219128 0
M  V30 26 C 2.279999 -2.473634 -0.182780 0
M  V30 27 H 2.651389 -3.931244 2.851391 0
M  V30 28 H 3.550348 -1.748449 3.395775 0
M  V30 29 H 3.665206 -0.008387 1.725597 0
M  V30 30 H 2.322517 2.534669 -2.437662 0
M  V30 31 H 0.355058 3.991587 -2.462677 0
M  V30 32 H -3.371825 0.927591 1.691389 0
M  V30 33 H -3.301900 -1.283260 1.280952 0
M  V30 34 H -2.456567 -0.697241 -0.143248 0
M  V30 35 H -0.807777 -2.123883 0.426243 0
M  V30 36 H -1.578599 -2.576800 1.936707 0
M  V30 37 H 0.520771 0.693135 2.549849 0
M  V30 38 H -0.099559 -0.314633 3.851434 0
M  V30 39 H -1.421243 1.731671 3.144093 0
M  V30 40 H -2.282905 0.175778 3.532651 0
M  V30 41 H 1.950838 -2.590308 -1.194803 0
M  V30 END ATOM
M  V30 BEGIN BOND
M  V30 1 1 1 2
M  V30 2 1 2 3
M  V30 3 1 2 4
M  V30 4 1 2 5
M  V30 5 2 5 6
M  V30 6 1 6 7
M  V30 7 2 7 8
M  V30 8 1 8 9
M  V30 9 1 9 10
M  V30 10 1 10 11
M  V30 11 1 11 12
M  V30 12 2 12 13
M  V30 13 1 13 14
M  V30 14 2 14 15
M  V30 15 1 15 16
M  V30 16 2 16 17
M  V30 17 1 17 18
M  V30 18 1 18 19
M  V30 19 1 19 20
M  V30 20 1 20 21
M  V30 21 1 21 22
M  V30 22 1 22 23
M  V30 23 1 17 24
M  V30 24 1 24 25
M  V30 25 2 9 26
M  V30 26 1 26 5
M  V30 27 2 25 11
M  V30 28 1 24 14
M  V30 29 1 23 18
M  V30 30 1 6 27
M  V30 31 1 7 28
M  V30 32 1 8 29
M  V30 33 1 12 30
M  V30 34 1 13 31
M  V30 35 1 18 32
M  V30 36 1 19 33
M  V30 37 1 19 34
M  V30 38 1 20 35
M  V30 39 1 20 36
M  V30 40 1 22 37
M  V30 41 1 22 38
M  V30 42 1 23 39
M  V30 43 1 23 40
M  V30 44 1 26 41
M  V30 END BOND
M  V30 END CTAB
M  END
>  <Dataset>  (624) 
ChEMBL_Kinases

>  <Ligand_Instance>  (624) 
nan

>  <PDB_ID>  (624) 
nan

>  <Standardized_SMILES>  (624) 
FC(F)(F)c1cccc(Sc2ccc3nnc(C4CCOCC4)n3n2)c1

>  <Name>  (624) 
nan

>  <Pocket>  (624) 
nan

>  <ATP_Site>  (624) 
nan

>  <Peripheral>  (624) 
nan

>  <Num_H_Atoms_ProtBoundConf>  (624) 
nan

>  <Num_Resolved_Atoms>  (624) 
nan

>  <Num_Not_Resolved_Atoms>  (624) 
nan

$$$$
CHEMBL2348956
     RDKit          3D

  0  0  0  0  0  0  0  0  0  0999 V3000
M  V30 BEGIN CTAB
M  V30 COUNTS 34 37 0 0 0
M  V30 BEGIN ATOM
M  V30 1 F 1.143767 -3.161374 3.780880 0
M  V30 2 C 1.853325 -3.941500 2.907242 0
M  V30 3 F 1.368683 -5.220914 2.850737 0
M  V30 4 F 3.160776 -3.981663 3.347424 0
M  V30 5 C 1.898311 -3.387617 1.530608 0
M  V30 6 C 1.533055 -4.125897 0.410317 0
M  V30 7 C 1.588405 -3.575922 -0.853091 0
M  V30 8 C 2.015548 -2.256397 -1.035244 0
M  V30 9 C 2.387123 -1.492767 0.063274 0
M  V30 10 S 2.945440 0.204469 -0.084932 0
M  V30 11 C 1.562307 1.338954 0.025929 0
M  V30 12 C 1.762037 2.709491 -0.063722 0
M  V30 13 C 0.693513 3.585342 0.021944 0
M  V30 14 C -0.591417 3.116950 0.197992 0
M  V30 15 N -1.831355 3.625664 0.321766 0
M  V30 16 N -2.725288 2.662928 0.474808 0
M  V30 17 C -2.040069 1.514288 0.448045 0
M  V30 18 C -2.665115 0.159727 0.587751 0
M  V30 19 C -3.994733 -0.003562 1.185939 0
M  V30 20 C -3.887253 -0.049920 -0.344941 0
M  V30 21 N -0.729986 1.774943 0.278961 0
M  V30 22 N 0.284721 0.963688 0.196628 0
M  V30 23 C 2.320982 -2.074115 1.324867 0
M  V30 24 H 1.206363 -5.148337 0.592924 0
M  V30 25 H 1.296406 -4.175989 -1.716489 0
M  V30 26 H 2.068014 -1.799772 -2.021121 0
M  V30 27 H 2.782458 3.086255 -0.203751 0
M  V30 28 H 0.822569 4.657155 -0.044938 0
M  V30 29 H -1.934292 -0.699453 0.541444 0
M  V30 30 H -4.213797 -1.004219 1.633384 0
M  V30 31 H -4.467031 0.869754 1.644768 0
M  V30 32 H -4.244113 0.835852 -0.905334 0
M  V30 33 H -3.974370 -1.041632 -0.842214 0
M  V30 34 H 2.603410 -1.507892 2.206387 0
M  V30 END ATOM
M  V30 BEGIN BOND
M  V30 1 1 1 2
M  V30 2 1 2 3
M  V30 3 1 2 4
M  V30 4 1 2 5
M  V30 5 2 5 6
M  V30 6 1 6 7
M  V30 7 2 7 8
M  V30 8 1 8 9
M  V30 9 1 9 10
M  V30 10 1 10 11
M  V30 11 1 11 12
M  V30 12 2 12 13
M  V30 13 1 13 14
M  V30 14 2 14 15
M  V30 15 1 15 16
M  V30 16 2 16 17
M  V30 17 1 17 18
M  V30 18 1 18 19
M  V30 19 1 19 20
M  V30 20 1 17 21
M  V30 21 1 21 22
M  V30 22 2 9 23
M  V30 23 1 23 5
M  V30 24 2 22 11
M  V30 25 1 21 14
M  V30 26 1 20 18
M  V30 27 1 6 24
M  V30 28 1 7 25
M  V30 29 1 8 26
M  V30 30 1 12 27
M  V30 31 1 13 28
M  V30 32 1 18 29
M  V30 33 1 19 30
M  V30 34 1 19 31
M  V30 35 1 20 32
M  V30 36 1 20 33
M  V30 37 1 23 34
M  V30 END BOND
M  V30 END CTAB
M  END
>  <Dataset>  (625) 
ChEMBL_Kinases

>  <Ligand_Instance>  (625) 
nan

>  <PDB_ID>  (625) 
nan

>  <Standardized_SMILES>  (625) 
FC(F)(F)c1cccc(Sc2ccc3nnc(C4CC4)n3n2)c1

>  <Name>  (625) 
nan

>  <Pocket>  (625) 
nan

>  <ATP_Site>  (625) 
nan

>  <Peripheral>  (625) 
nan

>  <Num_H_Atoms_ProtBoundConf>  (625) 
nan

>  <Num_Resolved_Atoms>  (625) 
nan

>  <Num_Not_Resolved_Atoms>  (625) 
nan

$$$$
CHEMBL2348955
     RDKit          3D

  0  0  0  0  0  0  0  0  0  0999 V3000
M  V30 BEGIN CTAB
M  V30 COUNTS 37 40 0 0 0
M  V30 BEGIN ATOM
M  V30 1 F 0.984316 -3.583024 4.619726 0
M  V30 2 C 1.373614 -3.140252 3.409316 0
M  V30 3 C 1.482769 -1.789518 3.158025 0
M  V30 4 C 1.880073 -1.310840 1.924617 0
M  V30 5 C 2.168017 -2.232794 0.939569 0
M  V30 6 C 2.602533 -1.957403 -0.427226 0
M  V30 7 N 3.614496 -2.572191 -1.104094 0
M  V30 8 N 3.686519 -2.027083 -2.327223 0
M  V30 9 C 2.726700 -1.080507 -2.410458 0
M  V30 10 C 2.358109 -0.220084 -3.433941 0
M  V30 11 C 1.307542 0.643117 -3.180124 0
M  V30 12 C 0.637697 0.662801 -1.959383 0
M  V30 13 S -0.711061 1.809816 -1.710993 0
M  V30 14 C -1.328308 1.560531 -0.052296 0
M  V30 15 C -0.702517 2.348383 0.888144 0
M  V30 16 C -1.094172 2.247591 2.221829 0
M  V30 17 C -2.114940 1.333821 2.507459 0
M  V30 18 C -2.735319 0.551745 1.570072 0
M  V30 19 C -3.799118 -0.378132 1.977592 0
M  V30 20 F -4.271092 -1.023380 0.850524 0
M  V30 21 F -4.879843 0.265564 2.549152 0
M  V30 22 F -3.312401 -1.379319 2.825672 0
M  V30 23 C -2.332315 0.669635 0.267198 0
M  V30 24 N 1.040234 -0.195459 -1.004076 0
M  V30 25 N 2.043551 -1.025158 -1.235860 0
M  V30 26 C 2.058397 -3.594794 1.191538 0
M  V30 27 C 1.663398 -4.082033 2.416977 0
M  V30 28 H 1.263304 -1.025789 3.913171 0
M  V30 29 H 1.994991 -0.275892 1.632238 0
M  V30 30 H 2.854185 -0.207252 -4.392692 0
M  V30 31 H 1.022677 1.317397 -3.989676 0
M  V30 32 H 0.084559 3.057948 0.692367 0
M  V30 33 H -0.626597 2.850481 2.994231 0
M  V30 34 H -2.404668 1.269346 3.543528 0
M  V30 35 H -2.775297 0.085546 -0.527814 0
M  V30 36 H 2.268159 -4.388118 0.465210 0
M  V30 37 H 1.569456 -5.141124 2.640669 0
M  V30 END ATOM
M  V30 BEGIN BOND
M  V30 1 1 1 2
M  V30 2 2 2 3
M  V30 3 1 3 4
M  V30 4 2 4 5
M  V30 5 1 5 6
M  V30 6 2 6 7
M  V30 7 1 7 8
M  V30 8 2 8 9
M  V30 9 1 9 10
M  V30 10 2 10 11
M  V30 11 1 11 12
M  V30 12 1 12 13
M  V30 13 1 13 14
M  V30 14 2 14 15
M  V30 15 1 15 16
M  V30 16 2 16 17
M  V30 17 1 17 18
M  V30 18 1 18 19
M  V30 19 1 19 20
M  V30 20 1 19 21
M  V30 21 1 19 22
M  V30 22 2 18 23
M  V30 23 2 12 24
M  V30 24 1 24 25
M  V30 25 1 5 26
M  V30 26 2 26 27
M  V30 27 1 27 2
M  V30 28 1 25 6
M  V30 29 1 25 9
M  V30 30 1 23 14
M  V30 31 1 3 28
M  V30 32 1 4 29
M  V30 33 1 10 30
M  V30 34 1 11 31
M  V30 35 1 15 32
M  V30 36 1 16 33
M  V30 37 1 17 34
M  V30 38 1 23 35
M  V30 39 1 26 36
M  V30 40 1 27 37
M  V30 END BOND
M  V30 END CTAB
M  END
>  <Dataset>  (626) 
ChEMBL_Kinases

>  <Ligand_Instance>  (626) 
nan

>  <PDB_ID>  (626) 
nan

>  <Standardized_SMILES>  (626) 
Fc1ccc(-c2nnc3ccc(Sc4cccc(C(F)(F)F)c4)nn23)cc1

>  <Name>  (626) 
nan

>  <Pocket>  (626) 
nan

>  <ATP_Site>  (626) 
nan

>  <Peripheral>  (626) 
nan

>  <Num_H_Atoms_ProtBoundConf>  (626) 
nan

>  <Num_Resolved_Atoms>  (626) 
nan

>  <Num_Not_Resolved_Atoms>  (626) 
nan

$$$$
CHEMBL2348954
     RDKit          3D

  0  0  0  0  0  0  0  0  0  0999 V3000
M  V30 BEGIN CTAB
M  V30 COUNTS 51 55 0 0 0
M  V30 BEGIN ATOM
M  V30 1 F 0.846014 -1.590216 4.895690 0
M  V30 2 C 1.775722 -2.326485 4.212445 0
M  V30 3 F 1.124201 -3.132024 3.288212 0
M  V30 4 F 2.394039 -3.203620 5.092758 0
M  V30 5 C 2.809806 -1.482896 3.546937 0
M  V30 6 C 3.847603 -0.946530 4.278885 0
M  V30 7 C 4.826660 -0.161259 3.709369 0
M  V30 8 C 4.778232 0.107384 2.350151 0
M  V30 9 C 3.748625 -0.417961 1.593358 0
M  V30 10 S 3.488057 -0.205161 -0.158393 0
M  V30 11 C 2.474559 1.247360 -0.385051 0
M  V30 12 C 3.159592 2.442146 -0.528293 0
M  V30 13 C 2.406608 3.605394 -0.708239 0
M  V30 14 C 1.033715 3.486579 -0.731195 0
M  V30 15 N 0.068469 4.426778 -0.886834 0
M  V30 16 N -1.095270 3.805035 -0.835322 0
M  V30 17 C -0.948041 2.480855 -0.650705 0
M  V30 18 C -2.001770 1.508735 -0.548288 0
M  V30 19 C -3.308659 1.940010 -0.317941 0
M  V30 20 C -4.310255 1.002291 -0.221365 0
M  V30 21 C -4.038944 -0.344884 -0.348479 0
M  V30 22 C -2.757732 -0.802789 -0.576514 0
M  V30 23 N -2.383856 -2.161111 -0.720235 0
M  V30 24 C -1.020685 -2.630668 -0.961152 0
M  V30 25 C -0.950202 -4.088916 -0.551908 0
M  V30 26 N -1.646957 -4.384071 0.671528 0
M  V30 27 C -3.033783 -3.992170 0.650728 0
M  V30 28 C -3.320476 -3.267298 -0.644933 0
M  V30 29 C -1.782386 0.151659 -0.667958 0
M  V30 30 N 0.384220 2.305202 -0.588763 0
M  V30 31 N 1.137932 1.241135 -0.422308 0
M  V30 32 C 2.769781 -1.210526 2.196423 0
M  V30 33 H 3.910356 -1.143268 5.357136 0
M  V30 34 H 5.659368 0.279994 4.247619 0
M  V30 35 H 5.481290 0.707006 1.779881 0
M  V30 36 H 4.242203 2.611007 -0.520422 0
M  V30 37 H 2.834233 4.587019 -0.829778 0
M  V30 38 H -3.593381 2.983827 -0.207872 0
M  V30 39 H -5.356271 1.276527 -0.041465 0
M  V30 40 H -4.826974 -1.082107 -0.272453 0
M  V30 41 H -0.855002 -2.602303 -2.064288 0
M  V30 42 H -0.252615 -2.045983 -0.429007 0
M  V30 43 H 0.127832 -4.300271 -0.339561 0
M  V30 44 H -1.215124 -4.789265 -1.368545 0
M  V30 45 H -1.139603 -4.137507 1.529929 0
M  V30 46 H -3.738825 -4.820857 0.795713 0
M  V30 47 H -3.189812 -3.244271 1.455764 0
M  V30 48 H -3.103624 -4.022606 -1.456867 0
M  V30 49 H -4.363228 -3.003279 -0.776635 0
M  V30 50 H -0.770438 -0.117001 -0.842238 0
M  V30 51 H 1.922496 -1.665346 1.675142 0
M  V30 END ATOM
M  V30 BEGIN BOND
M  V30 1 1 1 2
M  V30 2 1 2 3
M  V30 3 1 2 4
M  V30 4 1 2 5
M  V30 5 2 5 6
M  V30 6 1 6 7
M  V30 7 2 7 8
M  V30 8 1 8 9
M  V30 9 1 9 10
M  V30 10 1 10 11
M  V30 11 1 11 12
M  V30 12 2 12 13
M  V30 13 1 13 14
M  V30 14 2 14 15
M  V30 15 1 15 16
M  V30 16 2 16 17
M  V30 17 1 17 18
M  V30 18 2 18 19
M  V30 19 1 19 20
M  V30 20 2 20 21
M  V30 21 1 21 22
M  V30 22 1 22 23
M  V30 23 1 23 24
M  V30 24 1 24 25
M  V30 25 1 25 26
M  V30 26 1 26 27
M  V30 27 1 27 28
M  V30 28 2 22 29
M  V30 29 1 17 30
M  V30 30 1 30 31
M  V30 31 2 9 32
M  V30 32 1 32 5
M  V30 33 2 31 11
M  V30 34 1 30 14
M  V30 35 1 29 18
M  V30 36 1 28 23
M  V30 37 1 6 33
M  V30 38 1 7 34
M  V30 39 1 8 35
M  V30 40 1 12 36
M  V30 41 1 13 37
M  V30 42 1 19 38
M  V30 43 1 20 39
M  V30 44 1 21 40
M  V30 45 1 24 41
M  V30 46 1 24 42
M  V30 47 1 25 43
M  V30 48 1 25 44
M  V30 49 1 26 45
M  V30 50 1 27 46
M  V30 51 1 27 47
M  V30 52 1 28 48
M  V30 53 1 28 49
M  V30 54 1 29 50
M  V30 55 1 32 51
M  V30 END BOND
M  V30 END CTAB
M  END
>  <Dataset>  (627) 
ChEMBL_Kinases

>  <Ligand_Instance>  (627) 
nan

>  <PDB_ID>  (627) 
nan

>  <Standardized_SMILES>  (627) 
FC(F)(F)c1cccc(Sc2ccc3nnc(-c4cccc(N5CCNCC5)c4)n3n2)c1

>  <Name>  (627) 
nan

>  <Pocket>  (627) 
nan

>  <ATP_Site>  (627) 
nan

>  <Peripheral>  (627) 
nan

>  <Num_H_Atoms_ProtBoundConf>  (627) 
nan

>  <Num_Resolved_Atoms>  (627) 
nan

>  <Num_Not_Resolved_Atoms>  (627) 
nan

$$$$
CHEMBL2349213
     RDKit          3D

  0  0  0  0  0  0  0  0  0  0999 V3000
M  V30 BEGIN CTAB
M  V30 COUNTS 40 42 0 0 0
M  V30 BEGIN ATOM
M  V30 1 O -3.368854 -4.584608 -0.859740 0
M  V30 2 C -2.404934 -5.339764 -0.507038 0
M  V30 3 O -3.148328 -6.414010 -0.075753 0
M  V30 4 C -1.021103 -4.812599 -0.685951 0
M  V30 5 C -0.756273 -4.435646 -2.144337 0
M  V30 6 C 0.650734 -3.895608 -2.283981 0
M  V30 7 N 0.867714 -2.695180 -1.476129 0
M  V30 8 C 0.626632 -1.381114 -1.994256 0
M  V30 9 O 0.211016 -1.122329 -3.167781 0
M  V30 10 C 0.895109 -0.295745 -1.055938 0
M  V30 11 C 1.135176 0.952850 -1.327397 0
M  V30 12 C 1.381951 1.882699 -0.212924 0
M  V30 13 C 2.256605 2.945620 -0.181106 0
M  V30 14 C 2.127902 3.504851 1.081543 0
M  V30 15 C 1.181182 2.750281 1.747720 0
M  V30 16 C 0.737944 3.007129 3.138399 0
M  V30 17 C 1.280021 4.057464 3.859459 0
M  V30 18 C 0.854993 4.283430 5.169316 0
M  V30 19 C -0.098430 3.463940 5.741496 0
M  V30 20 C -0.660957 2.396497 5.030227 0
M  V30 21 C -0.220562 2.194871 3.726471 0
M  V30 22 F -0.717158 1.176993 2.947973 0
M  V30 23 O 0.744578 1.782815 0.957142 0
M  V30 24 S 0.806273 -1.136955 0.549860 0
M  V30 25 C 1.335422 -2.739634 -0.123222 0
M  V30 26 S 2.143812 -4.000962 0.550168 0
M  V30 27 H -3.475419 -6.489499 0.885437 0
M  V30 28 H -0.948458 -3.921612 -0.035499 0
M  V30 29 H -0.285339 -5.605728 -0.462159 0
M  V30 30 H -1.535227 -3.677008 -2.398659 0
M  V30 31 H -0.854469 -5.304382 -2.805128 0
M  V30 32 H 1.331907 -4.701267 -1.908578 0
M  V30 33 H 0.942168 -3.721707 -3.320322 0
M  V30 34 H 1.146782 1.266141 -2.379322 0
M  V30 35 H 2.872074 3.193179 -1.036805 0
M  V30 36 H 2.705220 4.375413 1.406236 0
M  V30 37 H 2.036041 4.715550 3.412475 0
M  V30 38 H 1.294480 5.116748 5.720471 0
M  V30 39 H -0.448887 3.622241 6.758988 0
M  V30 40 H -1.417860 1.738198 5.464470 0
M  V30 END ATOM
M  V30 BEGIN BOND
M  V30 1 2 1 2
M  V30 2 1 2 3
M  V30 3 1 2 4
M  V30 4 1 4 5
M  V30 5 1 5 6
M  V30 6 1 6 7
M  V30 7 1 7 8
M  V30 8 2 8 9
M  V30 9 1 8 10
M  V30 10 2 10 11
M  V30 11 1 11 12
M  V30 12 2 12 13
M  V30 13 1 13 14
M  V30 14 2 14 15
M  V30 15 1 15 16
M  V30 16 2 16 17
M  V30 17 1 17 18
M  V30 18 2 18 19
M  V30 19 1 19 20
M  V30 20 2 20 21
M  V30 21 1 21 22
M  V30 22 1 15 23
M  V30 23 1 10 24
M  V30 24 1 24 25
M  V30 25 2 25 26
M  V30 26 1 25 7
M  V30 27 1 23 12
M  V30 28 1 21 16
M  V30 29 1 3 27
M  V30 30 1 4 28
M  V30 31 1 4 29
M  V30 32 1 5 30
M  V30 33 1 5 31
M  V30 34 1 6 32
M  V30 35 1 6 33
M  V30 36 1 11 34
M  V30 37 1 13 35
M  V30 38 1 14 36
M  V30 39 1 17 37
M  V30 40 1 18 38
M  V30 41 1 19 39
M  V30 42 1 20 40
M  V30 END BOND
M  V30 END CTAB
M  END
>  <Dataset>  (628) 
ChEMBL_Kinases

>  <Ligand_Instance>  (628) 
nan

>  <PDB_ID>  (628) 
nan

>  <Standardized_SMILES>  (628) 
O=C(O)CCCN1C(=O)/C(=C/c2ccc(-c3ccccc3F)o2)SC1=S

>  <Name>  (628) 
nan

>  <Pocket>  (628) 
nan

>  <ATP_Site>  (628) 
nan

>  <Peripheral>  (628) 
nan

>  <Num_H_Atoms_ProtBoundConf>  (628) 
nan

>  <Num_Resolved_Atoms>  (628) 
nan

>  <Num_Not_Resolved_Atoms>  (628) 
nan

$$$$
CHEMBL2348937
     RDKit          3D

  0  0  0  0  0  0  0  0  0  0999 V3000
M  V30 BEGIN CTAB
M  V30 COUNTS 33 35 0 0 0
M  V30 BEGIN ATOM
M  V30 1 C 0.353975 -2.264567 4.976809 0
M  V30 2 O 0.499031 -2.755823 3.636885 0
M  V30 3 C 1.680939 -2.612817 2.953816 0
M  V30 4 O 2.423960 -2.006045 3.798787 0
M  V30 5 C 1.886402 -3.094181 1.585124 0
M  V30 6 C 1.687171 -4.608900 1.467314 0
M  V30 7 S 0.651191 -2.359753 0.474520 0
M  V30 8 C 0.870453 -0.592592 0.312788 0
M  V30 9 C 1.834391 0.186476 0.920122 0
M  V30 10 C 1.854036 1.543633 0.680383 0
M  V30 11 C 0.901407 2.086536 -0.166507 0
M  V30 12 N 0.697818 3.357939 -0.564527 0
M  V30 13 N -0.348981 3.392438 -1.389271 0
M  V30 14 C -0.786174 2.133944 -1.494572 0
M  V30 15 C -1.915229 1.616890 -2.277523 0
M  V30 16 C -3.289546 1.850841 -2.027729 0
M  V30 17 C -4.168330 1.259484 -2.900557 0
M  V30 18 C -3.707992 0.511829 -3.916850 0
M  V30 19 S -1.860977 0.539684 -3.775611 0
M  V30 20 N -0.031303 1.293621 -0.746752 0
M  V30 21 N -0.047823 -0.020436 -0.512805 0
M  V30 22 H -0.712465 -2.268174 5.207996 0
M  V30 23 H 0.976636 -2.870895 5.666187 0
M  V30 24 H 0.720670 -1.204900 4.996082 0
M  V30 25 H 2.865903 -2.848305 1.168177 0
M  V30 26 H 2.551343 -5.161660 1.840768 0
M  V30 27 H 1.465016 -4.825154 0.411184 0
M  V30 28 H 0.758954 -4.863050 2.025930 0
M  V30 29 H 2.514635 -0.363661 1.555308 0
M  V30 30 H 2.621299 2.124540 1.171504 0
M  V30 31 H -3.551382 2.468210 -1.181942 0
M  V30 32 H -5.235787 1.388523 -2.779971 0
M  V30 33 H -4.218259 -0.015747 -4.679961 0
M  V30 END ATOM
M  V30 BEGIN BOND
M  V30 1 1 1 2
M  V30 2 1 2 3
M  V30 3 2 3 4
M  V30 4 1 3 5
M  V30 5 1 5 6
M  V30 6 1 5 7
M  V30 7 1 7 8
M  V30 8 1 8 9
M  V30 9 2 9 10
M  V30 10 1 10 11
M  V30 11 2 11 12
M  V30 12 1 12 13
M  V30 13 2 13 14
M  V30 14 1 14 15
M  V30 15 2 15 16
M  V30 16 1 16 17
M  V30 17 2 17 18
M  V30 18 1 18 19
M  V30 19 1 14 20
M  V30 20 1 20 21
M  V30 21 2 21 8
M  V30 22 1 20 11
M  V30 23 1 19 15
M  V30 24 1 1 22
M  V30 25 1 1 23
M  V30 26 1 1 24
M  V30 27 1 5 25
M  V30 28 1 6 26
M  V30 29 1 6 27
M  V30 30 1 6 28
M  V30 31 1 9 29
M  V30 32 1 10 30
M  V30 33 1 16 31
M  V30 34 1 17 32
M  V30 35 1 18 33
M  V30 END BOND
M  V30 END CTAB
M  END
>  <Dataset>  (629) 
ChEMBL_Kinases

>  <Ligand_Instance>  (629) 
nan

>  <PDB_ID>  (629) 
nan

>  <Standardized_SMILES>  (629) 
COC(=O)C(C)Sc1ccc2nnc(-c3cccs3)n2n1

>  <Name>  (629) 
nan

>  <Pocket>  (629) 
nan

>  <ATP_Site>  (629) 
nan

>  <Peripheral>  (629) 
nan

>  <Num_H_Atoms_ProtBoundConf>  (629) 
nan

>  <Num_Resolved_Atoms>  (629) 
nan

>  <Num_Not_Resolved_Atoms>  (629) 
nan

$$$$
CHEMBL2348938
     RDKit          3D

  0  0  0  0  0  0  0  0  0  0999 V3000
M  V30 BEGIN CTAB
M  V30 COUNTS 34 37 0 0 0
M  V30 BEGIN ATOM
M  V30 1 F 2.183869 -1.806300 3.901078 0
M  V30 2 C 1.935496 -3.088928 3.432347 0
M  V30 3 F 2.884934 -3.899762 4.022087 0
M  V30 4 F 0.657449 -3.444531 3.790489 0
M  V30 5 C 2.147550 -3.122472 1.961767 0
M  V30 6 C 2.658288 -4.269463 1.360633 0
M  V30 7 C 2.875212 -4.353768 -0.005834 0
M  V30 8 C 2.566941 -3.245477 -0.790412 0
M  V30 9 C 2.058996 -2.101169 -0.202473 0
M  V30 10 S 1.719984 -0.785833 -1.331595 0
M  V30 11 C 1.073507 0.660317 -0.554655 0
M  V30 12 C 1.890767 1.688658 -0.073765 0
M  V30 13 C 1.346235 2.819798 0.536101 0
M  V30 14 C -0.031678 2.948204 0.679096 0
M  V30 15 N -0.887650 3.865466 1.196873 0
M  V30 16 N -2.131851 3.400597 1.028512 0
M  V30 17 C -2.035511 2.190549 0.403355 0
M  V30 18 C -3.277459 1.395146 0.065566 0
M  V30 19 C -3.778651 0.896607 -1.050391 0
M  V30 20 C -4.960098 0.205408 -1.010630 0
M  V30 21 C -5.563523 0.076346 0.245380 0
M  V30 22 S -4.332030 1.005274 1.354026 0
M  V30 23 N -0.745207 1.917136 0.190999 0
M  V30 24 N -0.250070 0.834402 -0.391304 0
M  V30 25 C 1.850418 -2.033241 1.147660 0
M  V30 26 H 2.877946 -5.095126 2.018846 0
M  V30 27 H 3.273543 -5.292017 -0.354125 0
M  V30 28 H 2.759387 -3.374400 -1.853363 0
M  V30 29 H 2.968199 1.601443 -0.178827 0
M  V30 30 H 1.958429 3.628993 0.916244 0
M  V30 31 H -3.178667 1.092053 -1.928921 0
M  V30 32 H -5.377893 -0.208556 -1.931911 0
M  V30 33 H -6.591402 -0.523055 0.290766 0
M  V30 34 H 1.452936 -1.125783 1.574625 0
M  V30 END ATOM
M  V30 BEGIN BOND
M  V30 1 1 1 2
M  V30 2 1 2 3
M  V30 3 1 2 4
M  V30 4 1 2 5
M  V30 5 2 5 6
M  V30 6 1 6 7
M  V30 7 2 7 8
M  V30 8 1 8 9
M  V30 9 1 9 10
M  V30 10 1 10 11
M  V30 11 1 11 12
M  V30 12 2 12 13
M  V30 13 1 13 14
M  V30 14 2 14 15
M  V30 15 1 15 16
M  V30 16 2 16 17
M  V30 17 1 17 18
M  V30 18 2 18 19
M  V30 19 1 19 20
M  V30 20 2 20 21
M  V30 21 1 21 22
M  V30 22 1 17 23
M  V30 23 1 23 24
M  V30 24 2 9 25
M  V30 25 1 25 5
M  V30 26 2 24 11
M  V30 27 1 23 14
M  V30 28 1 22 18
M  V30 29 1 6 26
M  V30 30 1 7 27
M  V30 31 1 8 28
M  V30 32 1 12 29
M  V30 33 1 13 30
M  V30 34 1 19 31
M  V30 35 1 20 32
M  V30 36 1 21 33
M  V30 37 1 25 34
M  V30 END BOND
M  V30 END CTAB
M  END
>  <Dataset>  (630) 
ChEMBL_Kinases

>  <Ligand_Instance>  (630) 
nan

>  <PDB_ID>  (630) 
nan

>  <Standardized_SMILES>  (630) 
FC(F)(F)c1cccc(Sc2ccc3nnc(-c4cccs4)n3n2)c1

>  <Name>  (630) 
nan

>  <Pocket>  (630) 
nan

>  <ATP_Site>  (630) 
nan

>  <Peripheral>  (630) 
nan

>  <Num_H_Atoms_ProtBoundConf>  (630) 
nan

>  <Num_Resolved_Atoms>  (630) 
nan

>  <Num_Not_Resolved_Atoms>  (630) 
nan

$$$$
CHEMBL2348939
     RDKit          3D

  0  0  0  0  0  0  0  0  0  0999 V3000
M  V30 BEGIN CTAB
M  V30 COUNTS 35 38 0 0 0
M  V30 BEGIN ATOM
M  V30 1 F 1.738864 -1.128862 3.769616 0
M  V30 2 C 1.879713 -2.474005 3.550608 0
M  V30 3 F 0.769549 -3.141541 3.992250 0
M  V30 4 F 2.972645 -2.934293 4.261034 0
M  V30 5 C 2.103533 -2.808909 2.134182 0
M  V30 6 C 2.499379 -4.087134 1.815708 0
M  V30 7 C 2.709871 -4.405173 0.493258 0
M  V30 8 C 2.546504 -3.512965 -0.538035 0
M  V30 9 C 2.145773 -2.210957 -0.241171 0
M  V30 10 S 1.892873 -0.936714 -1.496813 0
M  V30 11 C 1.380386 0.593111 -0.686222 0
M  V30 12 C 2.217722 1.576750 -0.231158 0
M  V30 13 C 1.685026 2.695249 0.370460 0
M  V30 14 C 0.299770 2.806316 0.505719 0
M  V30 15 N -0.521628 3.747240 1.032988 0
M  V30 16 C -1.808889 3.318788 0.887064 0
M  V30 17 C -1.770005 2.107787 0.266171 0
M  V30 18 C -2.946529 1.326598 -0.066253 0
M  V30 19 C -3.048578 0.133472 -0.670040 0
M  V30 20 C -4.258982 -0.456187 -0.902703 0
M  V30 21 C -5.406824 0.360323 -0.420498 0
M  V30 22 S -4.557601 1.874575 0.305008 0
M  V30 23 N -0.487156 1.794306 0.033303 0
M  V30 24 N 0.042795 0.722530 -0.544288 0
M  V30 25 C 1.937189 -1.901457 1.087326 0
M  V30 26 H 2.634936 -4.807736 2.608504 0
M  V30 27 H 3.019288 -5.413387 0.273192 0
M  V30 28 H 2.702796 -3.731327 -1.576706 0
M  V30 29 H 3.270978 1.402966 -0.379637 0
M  V30 30 H 2.328027 3.462112 0.725787 0
M  V30 31 H -2.630003 3.924344 1.242970 0
M  V30 32 H -2.147368 -0.375596 -0.981199 0
M  V30 33 H -4.443876 -1.405172 -1.377063 0
M  V30 34 H -6.479240 -0.087987 -0.588774 0
M  V30 35 H 1.623227 -0.898519 1.374701 0
M  V30 END ATOM
M  V30 BEGIN BOND
M  V30 1 1 1 2
M  V30 2 1 2 3
M  V30 3 1 2 4
M  V30 4 1 2 5
M  V30 5 2 5 6
M  V30 6 1 6 7
M  V30 7 2 7 8
M  V30 8 1 8 9
M  V30 9 1 9 10
M  V30 10 1 10 11
M  V30 11 1 11 12
M  V30 12 2 12 13
M  V30 13 1 13 14
M  V30 14 2 14 15
M  V30 15 1 15 16
M  V30 16 2 16 17
M  V30 17 1 17 18
M  V30 18 2 18 19
M  V30 19 1 19 20
M  V30 20 2 20 21
M  V30 21 1 21 22
M  V30 22 1 17 23
M  V30 23 1 23 24
M  V30 24 2 9 25
M  V30 25 1 25 5
M  V30 26 2 24 11
M  V30 27 1 23 14
M  V30 28 1 22 18
M  V30 29 1 6 26
M  V30 30 1 7 27
M  V30 31 1 8 28
M  V30 32 1 12 29
M  V30 33 1 13 30
M  V30 34 1 16 31
M  V30 35 1 19 32
M  V30 36 1 20 33
M  V30 37 1 21 34
M  V30 38 1 25 35
M  V30 END BOND
M  V30 END CTAB
M  END
>  <Dataset>  (631) 
ChEMBL_Kinases

>  <Ligand_Instance>  (631) 
nan

>  <PDB_ID>  (631) 
nan

>  <Standardized_SMILES>  (631) 
FC(F)(F)c1cccc(Sc2ccc3ncc(-c4cccs4)n3n2)c1

>  <Name>  (631) 
nan

>  <Pocket>  (631) 
nan

>  <ATP_Site>  (631) 
nan

>  <Peripheral>  (631) 
nan

>  <Num_H_Atoms_ProtBoundConf>  (631) 
nan

>  <Num_Resolved_Atoms>  (631) 
nan

>  <Num_Not_Resolved_Atoms>  (631) 
nan

$$$$
CHEMBL2348940
     RDKit          3D

  0  0  0  0  0  0  0  0  0  0999 V3000
M  V30 BEGIN CTAB
M  V30 COUNTS 35 38 0 0 0
M  V30 BEGIN ATOM
M  V30 1 F 1.750068 -0.812676 3.709527 0
M  V30 2 C 1.896017 -2.187664 3.703315 0
M  V30 3 F 0.690098 -2.781690 4.076041 0
M  V30 4 F 2.878124 -2.569694 4.571106 0
M  V30 5 C 2.293008 -2.653744 2.333468 0
M  V30 6 C 2.920275 -3.866790 2.138658 0
M  V30 7 C 3.255072 -4.223690 0.833970 0
M  V30 8 C 2.970860 -3.394783 -0.231897 0
M  V30 9 C 2.338227 -2.172747 -0.029684 0
M  V30 10 S 1.937276 -1.046281 -1.355973 0
M  V30 11 C 1.133043 0.413633 -0.712096 0
M  V30 12 C 1.957996 1.461459 -0.358982 0
M  V30 13 C 1.398629 2.622205 0.146729 0
M  V30 14 C 0.018854 2.655486 0.267259 0
M  V30 15 C -0.875791 3.612318 0.717837 0
M  V30 16 N -2.105306 3.118818 0.616916 0
M  V30 17 C -2.061751 1.873602 0.117671 0
M  V30 18 C -3.180490 0.950338 -0.163005 0
M  V30 19 C -3.732328 0.546203 -1.309121 0
M  V30 20 C -4.779119 -0.329931 -1.331098 0
M  V30 21 C -5.206235 -0.757015 0.027605 0
M  V30 22 S -4.001443 0.196336 1.134134 0
M  V30 23 N -0.782553 1.609747 -0.086856 0
M  V30 24 N -0.200839 0.521827 -0.565303 0
M  V30 25 C 2.002289 -1.814604 1.279337 0
M  V30 26 H 3.129615 -4.492155 2.985002 0
M  V30 27 H 3.748650 -5.168319 0.639830 0
M  V30 28 H 3.219842 -3.644155 -1.268479 0
M  V30 29 H 3.047201 1.504231 -0.426637 0
M  V30 30 H 1.954318 3.497916 0.452243 0
M  V30 31 H -0.527330 4.586462 1.078659 0
M  V30 32 H -3.314781 0.942566 -2.221761 0
M  V30 33 H -5.272539 -0.698487 -2.214379 0
M  V30 34 H -6.111333 -1.516775 0.052278 0
M  V30 35 H 1.506541 -0.853401 1.422976 0
M  V30 END ATOM
M  V30 BEGIN BOND
M  V30 1 1 1 2
M  V30 2 1 2 3
M  V30 3 1 2 4
M  V30 4 1 2 5
M  V30 5 2 5 6
M  V30 6 1 6 7
M  V30 7 2 7 8
M  V30 8 1 8 9
M  V30 9 1 9 10
M  V30 10 1 10 11
M  V30 11 1 11 12
M  V30 12 2 12 13
M  V30 13 1 13 14
M  V30 14 2 14 15
M  V30 15 1 15 16
M  V30 16 2 16 17
M  V30 17 1 17 18
M  V30 18 2 18 19
M  V30 19 1 19 20
M  V30 20 2 20 21
M  V30 21 1 21 22
M  V30 22 1 17 23
M  V30 23 1 23 24
M  V30 24 2 9 25
M  V30 25 1 25 5
M  V30 26 2 24 11
M  V30 27 1 23 14
M  V30 28 1 22 18
M  V30 29 1 6 26
M  V30 30 1 7 27
M  V30 31 1 8 28
M  V30 32 1 12 29
M  V30 33 1 13 30
M  V30 34 1 15 31
M  V30 35 1 19 32
M  V30 36 1 20 33
M  V30 37 1 21 34
M  V30 38 1 25 35
M  V30 END BOND
M  V30 END CTAB
M  END
>  <Dataset>  (632) 
ChEMBL_Kinases

>  <Ligand_Instance>  (632) 
nan

>  <PDB_ID>  (632) 
nan

>  <Standardized_SMILES>  (632) 
FC(F)(F)c1cccc(Sc2ccc3cnc(-c4cccs4)n3n2)c1

>  <Name>  (632) 
nan

>  <Pocket>  (632) 
nan

>  <ATP_Site>  (632) 
nan

>  <Peripheral>  (632) 
nan

>  <Num_H_Atoms_ProtBoundConf>  (632) 
nan

>  <Num_Resolved_Atoms>  (632) 
nan

>  <Num_Not_Resolved_Atoms>  (632) 
nan

$$$$
CHEMBL2348941
     RDKit          3D

  0  0  0  0  0  0  0  0  0  0999 V3000
M  V30 BEGIN CTAB
M  V30 COUNTS 36 39 0 0 0
M  V30 BEGIN ATOM
M  V30 1 F -0.766259 -3.568835 1.764405 0
M  V30 2 C -0.154851 -4.519313 0.952674 0
M  V30 3 F -0.949364 -4.843161 -0.141913 0
M  V30 4 F -0.045143 -5.653895 1.767065 0
M  V30 5 C 1.210777 -4.108534 0.571441 0
M  V30 6 C 2.304863 -4.912566 0.369368 0
M  V30 7 C 3.526192 -4.338802 0.009578 0
M  V30 8 C 3.623583 -2.945553 -0.142032 0
M  V30 9 C 2.521612 -2.083168 0.056704 0
M  V30 10 S 3.112483 -0.485467 -0.237781 0
M  V30 11 C 2.003294 0.845399 -0.079984 0
M  V30 12 C 2.716865 2.025307 -0.367214 0
M  V30 13 C 2.072323 3.273553 -0.318834 0
M  V30 14 C 0.734233 3.351662 0.010845 0
M  V30 15 N -0.151094 4.351373 0.142498 0
M  V30 16 C -1.353698 3.818910 0.493766 0
M  V30 17 C -1.239549 2.437882 0.591000 0
M  V30 18 C -2.379249 1.618550 0.952599 0
M  V30 19 C -2.537826 0.273022 1.115260 0
M  V30 20 C -3.726136 -0.273805 1.464239 0
M  V30 21 C -4.802105 0.724762 1.643961 0
M  V30 22 S -3.893609 2.337797 1.268143 0
M  V30 23 N 0.044590 2.238726 0.285943 0
M  V30 24 C 0.694860 1.081293 0.227837 0
M  V30 25 C 1.382607 -2.759887 0.405159 0
M  V30 26 H 2.125850 -5.964349 0.510378 0
M  V30 27 H 4.273129 -5.109429 -0.108151 0
M  V30 28 H 4.679089 -2.782485 -0.422615 0
M  V30 29 H 3.762018 2.211297 -0.647248 0
M  V30 30 H 2.512287 4.245207 -0.518198 0
M  V30 31 H -2.117455 4.568442 0.617641 0
M  V30 32 H -1.799169 -0.494878 0.999393 0
M  V30 33 H -4.079519 -1.268332 1.643915 0
M  V30 34 H -5.921494 0.476081 1.948396 0
M  V30 35 H 0.238983 0.156757 0.426907 0
M  V30 36 H 0.590549 -2.050432 0.539837 0
M  V30 END ATOM
M  V30 BEGIN BOND
M  V30 1 1 1 2
M  V30 2 1 2 3
M  V30 3 1 2 4
M  V30 4 1 2 5
M  V30 5 2 5 6
M  V30 6 1 6 7
M  V30 7 2 7 8
M  V30 8 1 8 9
M  V30 9 1 9 10
M  V30 10 1 10 11
M  V30 11 1 11 12
M  V30 12 2 12 13
M  V30 13 1 13 14
M  V30 14 2 14 15
M  V30 15 1 15 16
M  V30 16 2 16 17
M  V30 17 1 17 18
M  V30 18 2 18 19
M  V30 19 1 19 20
M  V30 20 2 20 21
M  V30 21 1 21 22
M  V30 22 1 17 23
M  V30 23 1 23 24
M  V30 24 2 9 25
M  V30 25 1 25 5
M  V30 26 2 24 11
M  V30 27 1 23 14
M  V30 28 1 22 18
M  V30 29 1 6 26
M  V30 30 1 7 27
M  V30 31 1 8 28
M  V30 32 1 12 29
M  V30 33 1 13 30
M  V30 34 1 16 31
M  V30 35 1 19 32
M  V30 36 1 20 33
M  V30 37 1 21 34
M  V30 38 1 24 35
M  V30 39 1 25 36
M  V30 END BOND
M  V30 END CTAB
M  END
>  <Dataset>  (633) 
ChEMBL_Kinases

>  <Ligand_Instance>  (633) 
nan

>  <PDB_ID>  (633) 
nan

>  <Standardized_SMILES>  (633) 
FC(F)(F)c1cccc(Sc2ccc3ncc(-c4cccs4)n3c2)c1

>  <Name>  (633) 
nan

>  <Pocket>  (633) 
nan

>  <ATP_Site>  (633) 
nan

>  <Peripheral>  (633) 
nan

>  <Num_H_Atoms_ProtBoundConf>  (633) 
nan

>  <Num_Resolved_Atoms>  (633) 
nan

>  <Num_Not_Resolved_Atoms>  (633) 
nan

$$$$
CHEMBL2348942
     RDKit          3D

  0  0  0  0  0  0  0  0  0  0999 V3000
M  V30 BEGIN CTAB
M  V30 COUNTS 35 38 0 0 0
M  V30 BEGIN ATOM
M  V30 1 F 0.783799 -1.739342 4.612918 0
M  V30 2 C 1.473215 -2.853990 4.188796 0
M  V30 3 F 0.585245 -3.914792 4.132605 0
M  V30 4 F 2.480119 -3.076300 5.092573 0
M  V30 5 C 1.991795 -2.559437 2.817692 0
M  V30 6 C 2.081696 -3.617514 1.938032 0
M  V30 7 C 2.558800 -3.401859 0.644572 0
M  V30 8 C 2.919306 -2.117594 0.316237 0
M  V30 9 C 2.830172 -1.056689 1.195257 0
M  V30 10 S 3.287748 0.624884 0.808324 0
M  V30 11 C 1.941825 1.557039 0.150869 0
M  V30 12 C 0.678202 1.036752 -0.040143 0
M  V30 13 N -0.352331 1.738118 -0.539766 0
M  V30 14 C -1.646978 1.576003 -0.848779 0
M  V30 15 C -2.351464 0.261087 -0.642230 0
M  V30 16 C -3.633863 0.066678 -0.938011 0
M  V30 17 C -4.245406 -1.124509 -0.743524 0
M  V30 18 C -3.345395 -2.138522 -0.184525 0
M  V30 19 S -1.714948 -1.188001 -0.023311 0
M  V30 20 C -2.185556 2.756357 -1.358481 0
M  V30 21 N -1.169262 3.639126 -1.346684 0
M  V30 22 C -0.080713 3.017258 -0.855272 0
M  V30 23 C 1.152790 3.612922 -0.695627 0
M  V30 24 N 2.153719 2.838167 -0.181784 0
M  V30 25 C 2.353729 -1.268711 2.488853 0
M  V30 26 H 1.787697 -4.628017 2.227120 0
M  V30 27 H 2.646681 -4.187290 -0.071281 0
M  V30 28 H 3.298156 -1.898456 -0.683126 0
M  V30 29 H 0.493097 0.006420 0.223320 0
M  V30 30 H -4.294115 0.847448 -1.359360 0
M  V30 31 H -5.255655 -1.459451 -0.921010 0
M  V30 32 H -3.741211 -3.260482 0.048562 0
M  V30 33 H -3.227113 2.863478 -1.679643 0
M  V30 34 H 1.370883 4.641078 -0.949292 0
M  V30 35 H 2.269498 -0.463316 3.205408 0
M  V30 END ATOM
M  V30 BEGIN BOND
M  V30 1 1 1 2
M  V30 2 1 2 3
M  V30 3 1 2 4
M  V30 4 1 2 5
M  V30 5 2 5 6
M  V30 6 1 6 7
M  V30 7 2 7 8
M  V30 8 1 8 9
M  V30 9 1 9 10
M  V30 10 1 10 11
M  V30 11 2 11 12
M  V30 12 1 12 13
M  V30 13 1 13 14
M  V30 14 1 14 15
M  V30 15 2 15 16
M  V30 16 1 16 17
M  V30 17 2 17 18
M  V30 18 1 18 19
M  V30 19 2 14 20
M  V30 20 1 20 21
M  V30 21 2 21 22
M  V30 22 1 22 23
M  V30 23 2 23 24
M  V30 24 2 9 25
M  V30 25 1 25 5
M  V30 26 1 24 11
M  V30 27 1 22 13
M  V30 28 1 19 15
M  V30 29 1 6 26
M  V30 30 1 7 27
M  V30 31 1 8 28
M  V30 32 1 12 29
M  V30 33 1 16 30
M  V30 34 1 17 31
M  V30 35 1 18 32
M  V30 36 1 20 33
M  V30 37 1 23 34
M  V30 38 1 25 35
M  V30 END BOND
M  V30 END CTAB
M  END
>  <Dataset>  (634) 
ChEMBL_Kinases

>  <Ligand_Instance>  (634) 
nan

>  <PDB_ID>  (634) 
nan

>  <Standardized_SMILES>  (634) 
FC(F)(F)c1cccc(Sc2cn3c(-c4cccs4)cnc3cn2)c1

>  <Name>  (634) 
nan

>  <Pocket>  (634) 
nan

>  <ATP_Site>  (634) 
nan

>  <Peripheral>  (634) 
nan

>  <Num_H_Atoms_ProtBoundConf>  (634) 
nan

>  <Num_Resolved_Atoms>  (634) 
nan

>  <Num_Not_Resolved_Atoms>  (634) 
nan

$$$$
CHEMBL2348943
     RDKit          3D

  0  0  0  0  0  0  0  0  0  0999 V3000
M  V30 BEGIN CTAB
M  V30 COUNTS 34 36 0 0 0
M  V30 BEGIN ATOM
M  V30 1 C 0.367440 -1.705358 4.114562 0
M  V30 2 O 0.455199 -1.541796 2.721579 0
M  V30 3 C 0.923299 -2.517118 1.872879 0
M  V30 4 O 1.227290 -3.503861 2.577234 0
M  V30 5 C 1.281395 -3.076132 0.557528 0
M  V30 6 C 1.808988 -4.496758 0.729011 0
M  V30 7 S 2.550974 -2.142642 -0.313622 0
M  V30 8 C 1.986976 -0.517174 -0.787013 0
M  V30 9 C 2.829752 0.359359 -1.469800 0
M  V30 10 C 2.367806 1.628601 -1.834519 0
M  V30 11 C 1.059306 1.931158 -1.476925 0
M  V30 12 N 0.395022 3.079727 -1.716049 0
M  V30 13 C -0.850774 2.955808 -1.201634 0
M  V30 14 C -0.884046 1.706466 -0.661084 0
M  V30 15 C -2.055429 1.070649 0.044443 0
M  V30 16 C -3.228326 1.647124 0.243996 0
M  V30 17 C -4.248781 1.037660 0.884122 0
M  V30 18 C -3.875615 -0.343219 1.323115 0
M  V30 19 S -2.087995 -0.518478 0.723341 0
M  V30 20 N 0.278099 1.047868 -0.814036 0
M  V30 21 N 0.718216 -0.158249 -0.467926 0
M  V30 22 H 0.877311 -0.826191 4.584819 0
M  V30 23 H -0.688567 -1.707990 4.453791 0
M  V30 24 H 0.826819 -2.619164 4.495290 0
M  V30 25 H 0.319383 -3.118605 -0.024061 0
M  V30 26 H 1.001866 -5.215628 0.952359 0
M  V30 27 H 2.349430 -4.719839 -0.213963 0
M  V30 28 H 2.590397 -4.427047 1.511044 0
M  V30 29 H 3.832275 0.081475 -1.724487 0
M  V30 30 H 2.981275 2.356053 -2.369871 0
M  V30 31 H -1.670843 3.686795 -1.206687 0
M  V30 32 H -3.456186 2.670345 -0.099615 0
M  V30 33 H -5.248242 1.353631 1.128067 0
M  V30 34 H -4.735319 -1.000954 1.922357 0
M  V30 END ATOM
M  V30 BEGIN BOND
M  V30 1 1 1 2
M  V30 2 1 2 3
M  V30 3 2 3 4
M  V30 4 1 3 5
M  V30 5 1 5 6
M  V30 6 1 5 7
M  V30 7 1 7 8
M  V30 8 1 8 9
M  V30 9 2 9 10
M  V30 10 1 10 11
M  V30 11 2 11 12
M  V30 12 1 12 13
M  V30 13 2 13 14
M  V30 14 1 14 15
M  V30 15 2 15 16
M  V30 16 1 16 17
M  V30 17 2 17 18
M  V30 18 1 18 19
M  V30 19 1 14 20
M  V30 20 1 20 21
M  V30 21 2 21 8
M  V30 22 1 20 11
M  V30 23 1 19 15
M  V30 24 1 1 22
M  V30 25 1 1 23
M  V30 26 1 1 24
M  V30 27 1 5 25
M  V30 28 1 6 26
M  V30 29 1 6 27
M  V30 30 1 6 28
M  V30 31 1 9 29
M  V30 32 1 10 30
M  V30 33 1 13 31
M  V30 34 1 16 32
M  V30 35 1 17 33
M  V30 36 1 18 34
M  V30 END BOND
M  V30 END CTAB
M  END
>  <Dataset>  (635) 
ChEMBL_Kinases

>  <Ligand_Instance>  (635) 
nan

>  <PDB_ID>  (635) 
nan

>  <Standardized_SMILES>  (635) 
COC(=O)C(C)Sc1ccc2ncc(-c3cccs3)n2n1

>  <Name>  (635) 
nan

>  <Pocket>  (635) 
nan

>  <ATP_Site>  (635) 
nan

>  <Peripheral>  (635) 
nan

>  <Num_H_Atoms_ProtBoundConf>  (635) 
nan

>  <Num_Resolved_Atoms>  (635) 
nan

>  <Num_Not_Resolved_Atoms>  (635) 
nan

$$$$
CHEMBL2348953
     RDKit          3D

  0  0  0  0  0  0  0  0  0  0999 V3000
M  V30 BEGIN CTAB
M  V30 COUNTS 37 40 0 0 0
M  V30 BEGIN ATOM
M  V30 1 F 2.203112 -4.567653 -0.002209 0
M  V30 2 C 2.643319 -3.983309 1.153452 0
M  V30 3 F 3.829679 -4.532628 1.591258 0
M  V30 4 F 1.640390 -4.142056 2.101419 0
M  V30 5 C 2.833754 -2.523861 0.955879 0
M  V30 6 C 3.277820 -1.721328 1.979044 0
M  V30 7 C 3.465025 -0.345335 1.818318 0
M  V30 8 C 3.181056 0.185081 0.568573 0
M  V30 9 C 2.730431 -0.631741 -0.468313 0
M  V30 10 S 2.437445 0.290405 -1.971628 0
M  V30 11 C 0.722274 0.852254 -1.947048 0
M  V30 12 C 0.154998 1.606414 -2.976021 0
M  V30 13 C -1.162687 2.007557 -2.901432 0
M  V30 14 C -1.959260 1.682957 -1.821472 0
M  V30 15 N -3.223424 1.886337 -1.418758 0
M  V30 16 N -3.362708 1.292736 -0.250271 0
M  V30 17 C -2.232749 0.703628 0.133062 0
M  V30 18 C -1.985231 -0.050223 1.357206 0
M  V30 19 C -2.983807 -0.992982 1.600401 0
M  V30 20 C -2.964026 -1.831223 2.710123 0
M  V30 21 C -1.876456 -1.673270 3.575282 0
M  V30 22 C -0.889119 -0.739802 3.333103 0
M  V30 23 Cl 0.474728 -0.541678 4.417938 0
M  V30 24 C -0.924527 0.088028 2.221543 0
M  V30 25 N -1.351714 0.956247 -0.867245 0
M  V30 26 N -0.089416 0.566550 -0.928815 0
M  V30 27 C 2.561250 -1.966796 -0.270827 0
M  V30 28 H 3.506712 -2.110834 2.964713 0
M  V30 29 H 3.818501 0.274144 2.643807 0
M  V30 30 H 3.349361 1.271515 0.510024 0
M  V30 31 H 0.790946 1.860370 -3.828745 0
M  V30 32 H -1.608131 2.592193 -3.695612 0
M  V30 33 H -3.857075 -1.162991 0.961856 0
M  V30 34 H -3.714891 -2.559361 2.918018 0
M  V30 35 H -1.836243 -2.314453 4.448810 0
M  V30 36 H -0.213002 0.832910 1.953136 0
M  V30 37 H 2.211314 -2.514226 -1.125596 0
M  V30 END ATOM
M  V30 BEGIN BOND
M  V30 1 1 1 2
M  V30 2 1 2 3
M  V30 3 1 2 4
M  V30 4 1 2 5
M  V30 5 2 5 6
M  V30 6 1 6 7
M  V30 7 2 7 8
M  V30 8 1 8 9
M  V30 9 1 9 10
M  V30 10 1 10 11
M  V30 11 1 11 12
M  V30 12 2 12 13
M  V30 13 1 13 14
M  V30 14 2 14 15
M  V30 15 1 15 16
M  V30 16 2 16 17
M  V30 17 1 17 18
M  V30 18 2 18 19
M  V30 19 1 19 20
M  V30 20 2 20 21
M  V30 21 1 21 22
M  V30 22 1 22 23
M  V30 23 2 22 24
M  V30 24 1 17 25
M  V30 25 1 25 26
M  V30 26 2 9 27
M  V30 27 1 27 5
M  V30 28 2 26 11
M  V30 29 1 25 14
M  V30 30 1 24 18
M  V30 31 1 6 28
M  V30 32 1 7 29
M  V30 33 1 8 30
M  V30 34 1 12 31
M  V30 35 1 13 32
M  V30 36 1 19 33
M  V30 37 1 20 34
M  V30 38 1 21 35
M  V30 39 1 24 36
M  V30 40 1 27 37
M  V30 END BOND
M  V30 END CTAB
M  END
>  <Dataset>  (636) 
ChEMBL_Kinases

>  <Ligand_Instance>  (636) 
nan

>  <PDB_ID>  (636) 
nan

>  <Standardized_SMILES>  (636) 
FC(F)(F)c1cccc(Sc2ccc3nnc(-c4cccc(Cl)c4)n3n2)c1

>  <Name>  (636) 
nan

>  <Pocket>  (636) 
nan

>  <ATP_Site>  (636) 
nan

>  <Peripheral>  (636) 
nan

>  <Num_H_Atoms_ProtBoundConf>  (636) 
nan

>  <Num_Resolved_Atoms>  (636) 
nan

>  <Num_Not_Resolved_Atoms>  (636) 
nan

$$$$
CHEMBL2348945
     RDKit          3D

  0  0  0  0  0  0  0  0  0  0999 V3000
M  V30 BEGIN CTAB
M  V30 COUNTS 33 36 0 0 0
M  V30 BEGIN ATOM
M  V30 1 F -0.027829 -4.212612 2.203907 0
M  V30 2 C 0.092002 -4.796304 0.949427 0
M  V30 3 F 0.610426 -6.060238 1.132494 0
M  V30 4 F -1.170518 -4.811395 0.393761 0
M  V30 5 C 1.046202 -3.976248 0.124676 0
M  V30 6 C 2.392715 -4.240467 -0.011026 0
M  V30 7 C 3.156656 -3.407905 -0.798698 0
M  V30 8 C 2.591024 -2.321298 -1.447414 0
M  V30 9 C 1.241040 -2.049827 -1.316114 0
M  V30 10 S 0.449455 -0.649354 -2.137063 0
M  V30 11 C 0.564378 0.722546 -0.995539 0
M  V30 12 C 1.635666 1.599582 -0.987413 0
M  V30 13 C 1.688407 2.656426 -0.082053 0
M  V30 14 C 0.667464 2.857012 0.835458 0
M  V30 15 N 0.408692 3.753740 1.823210 0
M  V30 16 N -0.767839 3.412136 2.369262 0
M  V30 17 C -1.211081 2.313979 1.709464 0
M  V30 18 C -2.536633 1.702444 2.122418 0
M  V30 19 C -3.115718 0.719054 2.808639 0
M  V30 20 N -4.422140 0.762406 2.759330 0
M  V30 21 C -5.159228 1.445753 2.266186 0
M  V30 22 S -3.914324 2.638855 1.441390 0
M  V30 23 N -0.341228 1.967572 0.770994 0
M  V30 24 N -0.413212 0.962774 -0.073984 0
M  V30 25 C 0.486638 -2.899931 -0.518063 0
M  V30 26 H 2.785353 -5.105465 0.519361 0
M  V30 27 H 4.207064 -3.634927 -0.889478 0
M  V30 28 H 3.201001 -1.656257 -2.076520 0
M  V30 29 H 2.439316 1.453795 -1.698828 0
M  V30 30 H 2.528262 3.337688 -0.081332 0
M  V30 31 H -2.323443 0.105588 3.253239 0
M  V30 32 H -6.284458 1.086265 2.504028 0
M  V30 33 H -0.563129 -2.657459 -0.438612 0
M  V30 END ATOM
M  V30 BEGIN BOND
M  V30 1 1 1 2
M  V30 2 1 2 3
M  V30 3 1 2 4
M  V30 4 1 2 5
M  V30 5 2 5 6
M  V30 6 1 6 7
M  V30 7 2 7 8
M  V30 8 1 8 9
M  V30 9 1 9 10
M  V30 10 1 10 11
M  V30 11 1 11 12
M  V30 12 2 12 13
M  V30 13 1 13 14
M  V30 14 2 14 15
M  V30 15 1 15 16
M  V30 16 2 16 17
M  V30 17 1 17 18
M  V30 18 2 18 19
M  V30 19 1 19 20
M  V30 20 2 20 21
M  V30 21 1 21 22
M  V30 22 1 17 23
M  V30 23 1 23 24
M  V30 24 2 9 25
M  V30 25 1 25 5
M  V30 26 2 24 11
M  V30 27 1 23 14
M  V30 28 1 22 18
M  V30 29 1 6 26
M  V30 30 1 7 27
M  V30 31 1 8 28
M  V30 32 1 12 29
M  V30 33 1 13 30
M  V30 34 1 19 31
M  V30 35 1 21 32
M  V30 36 1 25 33
M  V30 END BOND
M  V30 END CTAB
M  END
>  <Dataset>  (637) 
ChEMBL_Kinases

>  <Ligand_Instance>  (637) 
nan

>  <PDB_ID>  (637) 
nan

>  <Standardized_SMILES>  (637) 
FC(F)(F)c1cccc(Sc2ccc3nnc(-c4cncs4)n3n2)c1

>  <Name>  (637) 
nan

>  <Pocket>  (637) 
nan

>  <ATP_Site>  (637) 
nan

>  <Peripheral>  (637) 
nan

>  <Num_H_Atoms_ProtBoundConf>  (637) 
nan

>  <Num_Resolved_Atoms>  (637) 
nan

>  <Num_Not_Resolved_Atoms>  (637) 
nan

$$$$
CHEMBL2348946
     RDKit          3D

  0  0  0  0  0  0  0  0  0  0999 V3000
M  V30 BEGIN CTAB
M  V30 COUNTS 33 36 0 0 0
M  V30 BEGIN ATOM
M  V30 1 F -0.328454 -3.844860 2.557174 0
M  V30 2 C -0.178476 -4.461169 1.336678 0
M  V30 3 F 0.262221 -5.749277 1.573044 0
M  V30 4 F -1.391830 -4.545658 0.687283 0
M  V30 5 C 0.808234 -3.746417 0.483583 0
M  V30 6 C 2.138464 -4.157193 0.496688 0
M  V30 7 C 3.092142 -3.528700 -0.275089 0
M  V30 8 C 2.760230 -2.471885 -1.086046 0
M  V30 9 C 1.449626 -2.045786 -1.117053 0
M  V30 10 S 0.743369 -0.699715 -2.078664 0
M  V30 11 C 0.870310 0.763944 -1.059730 0
M  V30 12 C 1.942684 1.649810 -1.034564 0
M  V30 13 C 1.856192 2.730325 -0.175284 0
M  V30 14 C 0.752313 2.914291 0.618168 0
M  V30 15 N 0.475999 3.891473 1.512969 0
M  V30 16 N -0.722995 3.606997 2.012685 0
M  V30 17 C -1.177673 2.479816 1.440068 0
M  V30 18 C -2.444714 1.743520 1.642385 0
M  V30 19 N -2.963714 0.753111 1.210251 0
M  V30 20 C -4.148158 0.310988 1.583429 0
M  V30 21 C -4.860665 1.036823 2.549451 0
M  V30 22 S -3.630447 2.437028 2.865403 0
M  V30 23 N -0.275372 2.026160 0.564752 0
M  V30 24 N -0.189741 0.991318 -0.259865 0
M  V30 25 C 0.496398 -2.676953 -0.343127 0
M  V30 26 H 2.486534 -4.984024 1.108933 0
M  V30 27 H 4.142716 -3.800958 -0.308881 0
M  V30 28 H 3.407577 -1.890071 -1.741274 0
M  V30 29 H 2.750118 1.392819 -1.706472 0
M  V30 30 H 2.718175 3.387913 -0.195793 0
M  V30 31 H -4.425491 -0.616829 1.054505 0
M  V30 32 H -5.901189 0.549874 2.803606 0
M  V30 33 H -0.573400 -2.428789 -0.284103 0
M  V30 END ATOM
M  V30 BEGIN BOND
M  V30 1 1 1 2
M  V30 2 1 2 3
M  V30 3 1 2 4
M  V30 4 1 2 5
M  V30 5 2 5 6
M  V30 6 1 6 7
M  V30 7 2 7 8
M  V30 8 1 8 9
M  V30 9 1 9 10
M  V30 10 1 10 11
M  V30 11 1 11 12
M  V30 12 2 12 13
M  V30 13 1 13 14
M  V30 14 2 14 15
M  V30 15 1 15 16
M  V30 16 2 16 17
M  V30 17 1 17 18
M  V30 18 2 18 19
M  V30 19 1 19 20
M  V30 20 2 20 21
M  V30 21 1 21 22
M  V30 22 1 17 23
M  V30 23 1 23 24
M  V30 24 2 9 25
M  V30 25 1 25 5
M  V30 26 2 24 11
M  V30 27 1 23 14
M  V30 28 1 22 18
M  V30 29 1 6 26
M  V30 30 1 7 27
M  V30 31 1 8 28
M  V30 32 1 12 29
M  V30 33 1 13 30
M  V30 34 1 20 31
M  V30 35 1 21 32
M  V30 36 1 25 33
M  V30 END BOND
M  V30 END CTAB
M  END
>  <Dataset>  (638) 
ChEMBL_Kinases

>  <Ligand_Instance>  (638) 
nan

>  <PDB_ID>  (638) 
nan

>  <Standardized_SMILES>  (638) 
FC(F)(F)c1cccc(Sc2ccc3nnc(-c4nccs4)n3n2)c1

>  <Name>  (638) 
nan

>  <Pocket>  (638) 
nan

>  <ATP_Site>  (638) 
nan

>  <Peripheral>  (638) 
nan

>  <Num_H_Atoms_ProtBoundConf>  (638) 
nan

>  <Num_Resolved_Atoms>  (638) 
nan

>  <Num_Not_Resolved_Atoms>  (638) 
nan

$$$$
CHEMBL2348947
     RDKit          3D

  0  0  0  0  0  0  0  0  0  0999 V3000
M  V30 BEGIN CTAB
M  V30 COUNTS 33 36 0 0 0
M  V30 BEGIN ATOM
M  V30 1 F -0.297535 -4.061555 2.196748 0
M  V30 2 C -0.404897 -4.611956 0.923262 0
M  V30 3 F -0.001508 -5.931631 0.884154 0
M  V30 4 F -1.712373 -4.570484 0.526842 0
M  V30 5 C 0.507201 -3.853697 0.023437 0
M  V30 6 C 1.796006 -4.262339 -0.250591 0
M  V30 7 C 2.659832 -3.571112 -1.084653 0
M  V30 8 C 2.219486 -2.401076 -1.685421 0
M  V30 9 C 0.931846 -1.962385 -1.432138 0
M  V30 10 S 0.184380 -0.475354 -2.115562 0
M  V30 11 C 0.560013 0.845244 -0.942917 0
M  V30 12 C 1.708587 1.594083 -1.071916 0
M  V30 13 C 1.868506 2.567369 -0.108439 0
M  V30 14 C 0.937739 2.755075 0.893424 0
M  V30 15 N 0.825375 3.594364 1.936636 0
M  V30 16 N -0.286377 3.345444 2.598982 0
M  V30 17 C -0.951662 2.332692 2.019803 0
M  V30 18 C -2.211010 1.673209 2.343763 0
M  V30 19 C -2.904224 2.137252 3.456183 0
M  V30 20 S -4.449289 1.042420 3.530978 0
M  V30 21 C -3.809099 0.151712 1.981686 0
M  V30 22 N -2.813458 0.679714 1.733011 0
M  V30 23 N -0.166171 2.001742 0.979451 0
M  V30 24 N -0.327725 1.055240 0.047606 0
M  V30 25 C 0.074517 -2.674111 -0.587032 0
M  V30 26 H 2.140737 -5.177289 0.219037 0
M  V30 27 H 3.663964 -3.884723 -1.301362 0
M  V30 28 H 2.786577 -1.774094 -2.349705 0
M  V30 29 H 2.416799 1.419371 -1.870227 0
M  V30 30 H 2.753540 3.208685 -0.135232 0
M  V30 31 H -2.671198 2.950690 4.177114 0
M  V30 32 H -4.150815 -0.748527 1.254974 0
M  V30 33 H -0.936782 -2.376042 -0.356792 0
M  V30 END ATOM
M  V30 BEGIN BOND
M  V30 1 1 1 2
M  V30 2 1 2 3
M  V30 3 1 2 4
M  V30 4 1 2 5
M  V30 5 2 5 6
M  V30 6 1 6 7
M  V30 7 2 7 8
M  V30 8 1 8 9
M  V30 9 1 9 10
M  V30 10 1 10 11
M  V30 11 1 11 12
M  V30 12 2 12 13
M  V30 13 1 13 14
M  V30 14 2 14 15
M  V30 15 1 15 16
M  V30 16 2 16 17
M  V30 17 1 17 18
M  V30 18 2 18 19
M  V30 19 1 19 20
M  V30 20 1 20 21
M  V30 21 2 21 22
M  V30 22 1 17 23
M  V30 23 1 23 24
M  V30 24 2 9 25
M  V30 25 1 25 5
M  V30 26 2 24 11
M  V30 27 1 23 14
M  V30 28 1 22 18
M  V30 29 1 6 26
M  V30 30 1 7 27
M  V30 31 1 8 28
M  V30 32 1 12 29
M  V30 33 1 13 30
M  V30 34 1 19 31
M  V30 35 1 21 32
M  V30 36 1 25 33
M  V30 END BOND
M  V30 END CTAB
M  END
>  <Dataset>  (639) 
ChEMBL_Kinases

>  <Ligand_Instance>  (639) 
nan

>  <PDB_ID>  (639) 
nan

>  <Standardized_SMILES>  (639) 
FC(F)(F)c1cccc(Sc2ccc3nnc(-c4cscn4)n3n2)c1

>  <Name>  (639) 
nan

>  <Pocket>  (639) 
nan

>  <ATP_Site>  (639) 
nan

>  <Peripheral>  (639) 
nan

>  <Num_H_Atoms_ProtBoundConf>  (639) 
nan

>  <Num_Resolved_Atoms>  (639) 
nan

>  <Num_Not_Resolved_Atoms>  (639) 
nan

$$$$
CHEMBL2348948
     RDKit          3D

  0  0  0  0  0  0  0  0  0  0999 V3000
M  V30 BEGIN CTAB
M  V30 COUNTS 34 37 0 0 0
M  V30 BEGIN ATOM
M  V30 1 F 0.775151 -3.975187 3.783553 0
M  V30 2 C 0.952221 -4.249476 2.434306 0
M  V30 3 F -0.278357 -4.331659 1.822603 0
M  V30 4 F 1.580944 -5.491074 2.365252 0
M  V30 5 C 1.839578 -3.252584 1.828114 0
M  V30 6 C 3.048212 -3.036888 2.452254 0
M  V30 7 C 3.964690 -2.113188 1.960619 0
M  V30 8 C 3.658930 -1.395129 0.821975 0
M  V30 9 C 2.448462 -1.612697 0.198851 0
M  V30 10 S 1.936759 -0.747612 -1.279411 0
M  V30 11 C 1.069537 0.731369 -0.766472 0
M  V30 12 C 1.832386 1.866531 -0.591838 0
M  V30 13 C 1.128424 3.006472 -0.191015 0
M  V30 14 C -0.241137 2.945946 0.003482 0
M  V30 15 N -1.182117 3.834718 0.376121 0
M  V30 16 N -2.362105 3.224631 0.400355 0
M  V30 17 C -2.185649 1.917127 0.037391 0
M  V30 18 C -3.272974 0.965004 -0.040461 0
M  V30 19 S -4.347969 0.821408 1.359520 0
M  V30 20 C -5.421908 -0.468680 0.635183 0
M  V30 21 C -4.840456 -0.681205 -0.659332 0
M  V30 22 C -3.760965 0.086058 -0.911589 0
M  V30 23 Br -2.783843 0.005961 -2.574090 0
M  V30 24 N -0.884454 1.758879 -0.202819 0
M  V30 25 N -0.268696 0.658581 -0.579930 0
M  V30 26 C 1.521519 -2.533739 0.679336 0
M  V30 27 H 3.389694 -3.546057 3.352279 0
M  V30 28 H 4.924270 -1.887756 2.387372 0
M  V30 29 H 4.292481 -0.653838 0.351683 0
M  V30 30 H 2.891094 1.884070 -0.749705 0
M  V30 31 H 1.656062 3.956322 -0.027916 0
M  V30 32 H -6.379310 -1.108466 0.934278 0
M  V30 33 H -5.261930 -1.405669 -1.347499 0
M  V30 34 H 0.559851 -2.715653 0.195795 0
M  V30 END ATOM
M  V30 BEGIN BOND
M  V30 1 1 1 2
M  V30 2 1 2 3
M  V30 3 1 2 4
M  V30 4 1 2 5
M  V30 5 2 5 6
M  V30 6 1 6 7
M  V30 7 2 7 8
M  V30 8 1 8 9
M  V30 9 1 9 10
M  V30 10 1 10 11
M  V30 11 1 11 12
M  V30 12 2 12 13
M  V30 13 1 13 14
M  V30 14 2 14 15
M  V30 15 1 15 16
M  V30 16 2 16 17
M  V30 17 1 17 18
M  V30 18 1 18 19
M  V30 19 1 19 20
M  V30 20 2 20 21
M  V30 21 1 21 22
M  V30 22 1 22 23
M  V30 23 1 17 24
M  V30 24 1 24 25
M  V30 25 2 9 26
M  V30 26 1 26 5
M  V30 27 2 25 11
M  V30 28 1 24 14
M  V30 29 2 22 18
M  V30 30 1 6 27
M  V30 31 1 7 28
M  V30 32 1 8 29
M  V30 33 1 12 30
M  V30 34 1 13 31
M  V30 35 1 20 32
M  V30 36 1 21 33
M  V30 37 1 26 34
M  V30 END BOND
M  V30 END CTAB
M  END
>  <Dataset>  (640) 
ChEMBL_Kinases

>  <Ligand_Instance>  (640) 
nan

>  <PDB_ID>  (640) 
nan

>  <Standardized_SMILES>  (640) 
FC(F)(F)c1cccc(Sc2ccc3nnc(-c4sccc4Br)n3n2)c1

>  <Name>  (640) 
nan

>  <Pocket>  (640) 
nan

>  <ATP_Site>  (640) 
nan

>  <Peripheral>  (640) 
nan

>  <Num_H_Atoms_ProtBoundConf>  (640) 
nan

>  <Num_Resolved_Atoms>  (640) 
nan

>  <Num_Not_Resolved_Atoms>  (640) 
nan

$$$$
CHEMBL2348949
     RDKit          3D

  0  0  0  0  0  0  0  0  0  0999 V3000
M  V30 BEGIN CTAB
M  V30 COUNTS 36 39 0 0 0
M  V30 BEGIN ATOM
M  V30 1 F -0.245599 -3.883941 0.025235 0
M  V30 2 C 0.755651 -4.417268 -0.760468 0
M  V30 3 F 0.227842 -4.497489 -2.049589 0
M  V30 4 F 1.209341 -5.622562 -0.311896 0
M  V30 5 C 1.867180 -3.404802 -0.840525 0
M  V30 6 C 3.189012 -3.805782 -0.636393 0
M  V30 7 C 4.170425 -2.840501 -0.720380 0
M  V30 8 C 3.901565 -1.521871 -0.992613 0
M  V30 9 C 2.581214 -1.131417 -1.194638 0
M  V30 10 S 2.007801 0.531780 -1.560934 0
M  V30 11 C 1.678140 1.324904 0.006082 0
M  V30 12 C 2.568466 2.063122 0.772399 0
M  V30 13 C 2.116242 2.598071 1.962274 0
M  V30 14 C 0.821441 2.426910 2.413940 0
M  V30 15 N 0.147125 2.831504 3.506019 0
M  V30 16 N -1.101514 2.350621 3.393480 0
M  V30 17 C -1.181521 1.652039 2.227376 0
M  V30 18 C -2.344417 0.954469 1.689162 0
M  V30 19 C -3.547617 0.942530 2.364016 0
M  V30 20 C -4.660356 0.286461 1.868711 0
M  V30 21 C -4.571261 -0.388799 0.645315 0
M  V30 22 C -3.346708 -0.360125 -0.012832 0
M  V30 23 N -2.297253 0.294757 0.516997 0
M  V30 24 N 0.017821 1.700063 1.617212 0
M  V30 25 N 0.419030 1.164741 0.456191 0
M  V30 26 C 1.582733 -2.100435 -1.111624 0
M  V30 27 H 3.428322 -4.845555 -0.419060 0
M  V30 28 H 5.211801 -3.107071 -0.568759 0
M  V30 29 H 4.611444 -0.724894 -1.071781 0
M  V30 30 H 3.544142 2.146279 0.352541 0
M  V30 31 H 2.830170 3.169151 2.540523 0
M  V30 32 H -3.610215 1.464313 3.305743 0
M  V30 33 H -5.615266 0.262072 2.378423 0
M  V30 34 H -5.427072 -0.917240 0.222957 0
M  V30 35 H -3.248684 -0.871050 -0.956189 0
M  V30 36 H 0.524242 -1.849859 -1.261931 0
M  V30 END ATOM
M  V30 BEGIN BOND
M  V30 1 1 1 2
M  V30 2 1 2 3
M  V30 3 1 2 4
M  V30 4 1 2 5
M  V30 5 2 5 6
M  V30 6 1 6 7
M  V30 7 2 7 8
M  V30 8 1 8 9
M  V30 9 1 9 10
M  V30 10 1 10 11
M  V30 11 1 11 12
M  V30 12 2 12 13
M  V30 13 1 13 14
M  V30 14 2 14 15
M  V30 15 1 15 16
M  V30 16 2 16 17
M  V30 17 1 17 18
M  V30 18 2 18 19
M  V30 19 1 19 20
M  V30 20 2 20 21
M  V30 21 1 21 22
M  V30 22 2 22 23
M  V30 23 1 17 24
M  V30 24 1 24 25
M  V30 25 2 9 26
M  V30 26 1 26 5
M  V30 27 2 25 11
M  V30 28 1 24 14
M  V30 29 1 23 18
M  V30 30 1 6 27
M  V30 31 1 7 28
M  V30 32 1 8 29
M  V30 33 1 12 30
M  V30 34 1 13 31
M  V30 35 1 19 32
M  V30 36 1 20 33
M  V30 37 1 21 34
M  V30 38 1 22 35
M  V30 39 1 26 36
M  V30 END BOND
M  V30 END CTAB
M  END
>  <Dataset>  (641) 
ChEMBL_Kinases

>  <Ligand_Instance>  (641) 
nan

>  <PDB_ID>  (641) 
nan

>  <Standardized_SMILES>  (641) 
FC(F)(F)c1cccc(Sc2ccc3nnc(-c4ccccn4)n3n2)c1

>  <Name>  (641) 
nan

>  <Pocket>  (641) 
nan

>  <ATP_Site>  (641) 
nan

>  <Peripheral>  (641) 
nan

>  <Num_H_Atoms_ProtBoundConf>  (641) 
nan

>  <Num_Resolved_Atoms>  (641) 
nan

>  <Num_Not_Resolved_Atoms>  (641) 
nan

$$$$
CHEMBL2348950
     RDKit          3D

  0  0  0  0  0  0  0  0  0  0999 V3000
M  V30 BEGIN CTAB
M  V30 COUNTS 36 39 0 0 0
M  V30 BEGIN ATOM
M  V30 1 F -0.673841 -4.120672 0.817198 0
M  V30 2 C 0.097279 -4.748236 -0.144723 0
M  V30 3 F -0.639212 -4.784706 -1.310485 0
M  V30 4 F 0.437916 -6.010074 0.287084 0
M  V30 5 C 1.352449 -3.958095 -0.346404 0
M  V30 6 C 2.639909 -4.422636 -0.091320 0
M  V30 7 C 3.715380 -3.572713 -0.326876 0
M  V30 8 C 3.562684 -2.291329 -0.801525 0
M  V30 9 C 2.303526 -1.791270 -1.067560 0
M  V30 10 S 2.001975 -0.142196 -1.685482 0
M  V30 11 C 1.803927 0.931662 -0.270813 0
M  V30 12 C 2.869197 1.604303 0.338257 0
M  V30 13 C 2.558587 2.404253 1.429858 0
M  V30 14 C 1.252904 2.507368 1.865221 0
M  V30 15 N 0.722043 3.217278 2.893319 0
M  V30 16 N -0.597377 2.983669 2.902770 0
M  V30 17 C -0.884883 2.140195 1.895014 0
M  V30 18 C -2.223026 1.650848 1.583344 0
M  V30 19 C -2.515087 1.003130 0.402856 0
M  V30 20 C -3.777639 0.526047 0.077272 0
M  V30 21 C -4.764115 0.742080 1.033872 0
M  V30 22 N -4.495879 1.366828 2.179467 0
M  V30 23 C -3.263242 1.820938 2.473310 0
M  V30 24 N 0.248066 1.832890 1.239725 0
M  V30 25 N 0.552324 1.073287 0.201022 0
M  V30 26 C 1.249946 -2.661939 -0.823021 0
M  V30 27 H 2.721885 -5.432248 0.280057 0
M  V30 28 H 4.700474 -3.996146 -0.107086 0
M  V30 29 H 4.417420 -1.647314 -0.977321 0
M  V30 30 H 3.859300 1.445361 -0.094711 0
M  V30 31 H 3.397099 2.913694 1.883799 0
M  V30 32 H -1.752317 0.834690 -0.339893 0
M  V30 33 H -4.015824 0.018598 -0.842557 0
M  V30 34 H -5.757458 0.396467 0.838992 0
M  V30 35 H -3.132884 2.319730 3.431480 0
M  V30 36 H 0.242161 -2.280615 -1.029157 0
M  V30 END ATOM
M  V30 BEGIN BOND
M  V30 1 1 1 2
M  V30 2 1 2 3
M  V30 3 1 2 4
M  V30 4 1 2 5
M  V30 5 2 5 6
M  V30 6 1 6 7
M  V30 7 2 7 8
M  V30 8 1 8 9
M  V30 9 1 9 10
M  V30 10 1 10 11
M  V30 11 1 11 12
M  V30 12 2 12 13
M  V30 13 1 13 14
M  V30 14 2 14 15
M  V30 15 1 15 16
M  V30 16 2 16 17
M  V30 17 1 17 18
M  V30 18 2 18 19
M  V30 19 1 19 20
M  V30 20 2 20 21
M  V30 21 1 21 22
M  V30 22 2 22 23
M  V30 23 1 17 24
M  V30 24 1 24 25
M  V30 25 2 9 26
M  V30 26 1 26 5
M  V30 27 2 25 11
M  V30 28 1 24 14
M  V30 29 1 23 18
M  V30 30 1 6 27
M  V30 31 1 7 28
M  V30 32 1 8 29
M  V30 33 1 12 30
M  V30 34 1 13 31
M  V30 35 1 19 32
M  V30 36 1 20 33
M  V30 37 1 21 34
M  V30 38 1 23 35
M  V30 39 1 26 36
M  V30 END BOND
M  V30 END CTAB
M  END
>  <Dataset>  (642) 
ChEMBL_Kinases

>  <Ligand_Instance>  (642) 
nan

>  <PDB_ID>  (642) 
nan

>  <Standardized_SMILES>  (642) 
FC(F)(F)c1cccc(Sc2ccc3nnc(-c4cccnc4)n3n2)c1

>  <Name>  (642) 
nan

>  <Pocket>  (642) 
nan

>  <ATP_Site>  (642) 
nan

>  <Peripheral>  (642) 
nan

>  <Num_H_Atoms_ProtBoundConf>  (642) 
nan

>  <Num_Resolved_Atoms>  (642) 
nan

>  <Num_Not_Resolved_Atoms>  (642) 
nan

$$$$
CHEMBL2348951
     RDKit          3D

  0  0  0  0  0  0  0  0  0  0999 V3000
M  V30 BEGIN CTAB
M  V30 COUNTS 36 39 0 0 0
M  V30 BEGIN ATOM
M  V30 1 F 0.450939 -4.441290 2.262223 0
M  V30 2 C 1.217249 -4.965780 1.259172 0
M  V30 3 F 0.354811 -5.333682 0.225888 0
M  V30 4 F 1.894836 -6.073007 1.719237 0
M  V30 5 C 2.139781 -3.934254 0.716170 0
M  V30 6 C 3.467748 -3.906150 1.071985 0
M  V30 7 C 4.338448 -2.954357 0.576477 0
M  V30 8 C 3.848643 -2.002764 -0.305887 0
M  V30 9 C 2.508375 -2.057453 -0.644440 0
M  V30 10 S 1.952424 -0.797385 -1.786452 0
M  V30 11 C 1.416300 0.596635 -0.802991 0
M  V30 12 C 2.302862 1.593241 -0.455266 0
M  V30 13 C 2.000488 2.709450 0.296691 0
M  V30 14 C 0.676201 2.805866 0.724939 0
M  V30 15 N 0.009550 3.719594 1.457782 0
M  V30 16 N -1.262937 3.310803 1.569485 0
M  V30 17 C -1.390652 2.138415 0.904303 0
M  V30 18 C -2.683936 1.460337 0.860836 0
M  V30 19 C -2.889899 0.139024 1.240708 0
M  V30 20 C -4.165275 -0.409645 1.159628 0
M  V30 21 N -5.215994 0.306810 0.720340 0
M  V30 22 C -5.090361 1.587259 0.337370 0
M  V30 23 C -3.823177 2.127636 0.419451 0
M  V30 24 N -0.193900 1.818107 0.377895 0
M  V30 25 N 0.139391 0.760072 -0.347933 0
M  V30 26 C 1.625327 -3.000180 -0.159526 0
M  V30 27 H 3.852797 -4.658411 1.768916 0
M  V30 28 H 5.373195 -2.989966 0.898629 0
M  V30 29 H 4.526208 -1.259407 -0.693581 0
M  V30 30 H 3.319845 1.505689 -0.792207 0
M  V30 31 H 2.718260 3.465989 0.548131 0
M  V30 32 H -2.004862 -0.385858 1.585664 0
M  V30 33 H -4.260748 -1.441741 1.469499 0
M  V30 34 H -5.876363 2.232031 -0.025939 0
M  V30 35 H -3.656090 3.168587 0.121154 0
M  V30 36 H 0.594182 -2.961086 -0.483367 0
M  V30 END ATOM
M  V30 BEGIN BOND
M  V30 1 1 1 2
M  V30 2 1 2 3
M  V30 3 1 2 4
M  V30 4 1 2 5
M  V30 5 2 5 6
M  V30 6 1 6 7
M  V30 7 2 7 8
M  V30 8 1 8 9
M  V30 9 1 9 10
M  V30 10 1 10 11
M  V30 11 1 11 12
M  V30 12 2 12 13
M  V30 13 1 13 14
M  V30 14 2 14 15
M  V30 15 1 15 16
M  V30 16 2 16 17
M  V30 17 1 17 18
M  V30 18 2 18 19
M  V30 19 1 19 20
M  V30 20 2 20 21
M  V30 21 1 21 22
M  V30 22 2 22 23
M  V30 23 1 17 24
M  V30 24 1 24 25
M  V30 25 2 9 26
M  V30 26 1 26 5
M  V30 27 2 25 11
M  V30 28 1 24 14
M  V30 29 1 23 18
M  V30 30 1 6 27
M  V30 31 1 7 28
M  V30 32 1 8 29
M  V30 33 1 12 30
M  V30 34 1 13 31
M  V30 35 1 19 32
M  V30 36 1 20 33
M  V30 37 1 22 34
M  V30 38 1 23 35
M  V30 39 1 26 36
M  V30 END BOND
M  V30 END CTAB
M  END
>  <Dataset>  (643) 
ChEMBL_Kinases

>  <Ligand_Instance>  (643) 
nan

>  <PDB_ID>  (643) 
nan

>  <Standardized_SMILES>  (643) 
FC(F)(F)c1cccc(Sc2ccc3nnc(-c4ccncc4)n3n2)c1

>  <Name>  (643) 
nan

>  <Pocket>  (643) 
nan

>  <ATP_Site>  (643) 
nan

>  <Peripheral>  (643) 
nan

>  <Num_H_Atoms_ProtBoundConf>  (643) 
nan

>  <Num_Resolved_Atoms>  (643) 
nan

>  <Num_Not_Resolved_Atoms>  (643) 
nan

$$$$
CHEMBL2348952
     RDKit          3D

  0  0  0  0  0  0  0  0  0  0999 V3000
M  V30 BEGIN CTAB
M  V30 COUNTS 37 40 0 0 0
M  V30 BEGIN ATOM
M  V30 1 F 3.491029 -0.458200 5.158949 0
M  V30 2 C 2.568055 -0.579495 4.138487 0
M  V30 3 F 1.298763 -0.533792 4.685667 0
M  V30 4 F 2.735795 -1.833099 3.565035 0
M  V30 5 C 2.814848 0.493909 3.158086 0
M  V30 6 C 4.040309 1.153316 3.017962 0
M  V30 7 C 4.130402 2.144108 2.053740 0
M  V30 8 C 3.081807 2.511583 1.230453 0
M  V30 9 C 1.859997 1.851358 1.372976 0
M  V30 10 S 0.497297 2.316686 0.315477 0
M  V30 11 C -0.925150 1.301040 0.731520 0
M  V30 12 C -1.901277 1.582954 1.665472 0
M  V30 13 C -2.908072 0.658428 1.823719 0
M  V30 14 C -2.893414 -0.485215 1.054920 0
M  V30 15 N -3.751647 -1.526666 1.022003 0
M  V30 16 N -3.314920 -2.383978 0.119791 0
M  V30 17 C -2.180891 -1.929627 -0.447318 0
M  V30 18 C -1.384810 -2.576068 -1.484939 0
M  V30 19 C -0.229644 -2.036645 -2.011949 0
M  V30 20 C 0.506323 -2.674603 -2.997953 0
M  V30 21 C 0.068761 -3.894444 -3.471013 0
M  V30 22 C -1.089235 -4.466637 -2.963545 0
M  V30 23 C -1.807766 -3.798407 -1.970839 0
M  V30 24 Cl -3.258674 -4.571152 -1.371960 0
M  V30 25 N -1.950475 -0.749549 0.158017 0
M  V30 26 N -1.008439 0.159616 0.039165 0
M  V30 27 C 1.777259 0.867935 2.332903 0
M  V30 28 H 4.845918 0.866903 3.654619 0
M  V30 29 H 5.067579 2.674436 1.920212 0
M  V30 30 H 3.210352 3.291769 0.495978 0
M  V30 31 H -1.762145 2.522762 2.181518 0
M  V30 32 H -3.655664 0.905051 2.559353 0
M  V30 33 H 0.119752 -1.082645 -1.647499 0
M  V30 34 H 1.408004 -2.252650 -3.408727 0
M  V30 35 H 0.661517 -4.389660 -4.252833 0
M  V30 36 H -1.375646 -5.429363 -3.382010 0
M  V30 37 H 0.811749 0.393613 2.397533 0
M  V30 END ATOM
M  V30 BEGIN BOND
M  V30 1 1 1 2
M  V30 2 1 2 3
M  V30 3 1 2 4
M  V30 4 1 2 5
M  V30 5 2 5 6
M  V30 6 1 6 7
M  V30 7 2 7 8
M  V30 8 1 8 9
M  V30 9 1 9 10
M  V30 10 1 10 11
M  V30 11 1 11 12
M  V30 12 2 12 13
M  V30 13 1 13 14
M  V30 14 2 14 15
M  V30 15 1 15 16
M  V30 16 2 16 17
M  V30 17 1 17 18
M  V30 18 2 18 19
M  V30 19 1 19 20
M  V30 20 2 20 21
M  V30 21 1 21 22
M  V30 22 2 22 23
M  V30 23 1 23 24
M  V30 24 1 17 25
M  V30 25 1 25 26
M  V30 26 2 9 27
M  V30 27 1 27 5
M  V30 28 2 26 11
M  V30 29 1 25 14
M  V30 30 1 23 18
M  V30 31 1 6 28
M  V30 32 1 7 29
M  V30 33 1 8 30
M  V30 34 1 12 31
M  V30 35 1 13 32
M  V30 36 1 19 33
M  V30 37 1 20 34
M  V30 38 1 21 35
M  V30 39 1 22 36
M  V30 40 1 27 37
M  V30 END BOND
M  V30 END CTAB
M  END
>  <Dataset>  (644) 
ChEMBL_Kinases

>  <Ligand_Instance>  (644) 
nan

>  <PDB_ID>  (644) 
nan

>  <Standardized_SMILES>  (644) 
FC(F)(F)c1cccc(Sc2ccc3nnc(-c4ccccc4Cl)n3n2)c1

>  <Name>  (644) 
nan

>  <Pocket>  (644) 
nan

>  <ATP_Site>  (644) 
nan

>  <Peripheral>  (644) 
nan

>  <Num_H_Atoms_ProtBoundConf>  (644) 
nan

>  <Num_Resolved_Atoms>  (644) 
nan

>  <Num_Not_Resolved_Atoms>  (644) 
nan

$$$$
CHEMBL2348944
     RDKit          3D

  0  0  0  0  0  0  0  0  0  0999 V3000
M  V30 BEGIN CTAB
M  V30 COUNTS 34 37 0 0 0
M  V30 BEGIN ATOM
M  V30 1 F 1.312146 -1.403317 3.548700 0
M  V30 2 C 1.654021 -2.709234 3.299556 0
M  V30 3 F 0.525515 -3.472413 3.554706 0
M  V30 4 F 2.704532 -3.155272 4.081265 0
M  V30 5 C 1.950155 -2.898856 1.849122 0
M  V30 6 C 2.437916 -4.102833 1.404396 0
M  V30 7 C 2.700955 -4.245994 0.061046 0
M  V30 8 C 2.496854 -3.229066 -0.871677 0
M  V30 9 C 2.006419 -2.021542 -0.417878 0
M  V30 10 S 1.693448 -0.617923 -1.508542 0
M  V30 11 C 1.059805 0.766359 -0.539653 0
M  V30 12 C 1.819190 1.753817 0.064101 0
M  V30 13 C 1.176668 2.742924 0.770085 0
M  V30 14 C -0.211875 2.743961 0.870943 0
M  V30 15 N -1.107597 3.548477 1.472094 0
M  V30 16 N -2.324081 3.048696 1.226552 0
M  V30 17 C -2.212792 1.945504 0.482804 0
M  V30 18 C -3.292766 1.094220 -0.006981 0
M  V30 19 C -3.136286 -0.041466 -0.775666 0
M  V30 20 C -4.422115 -0.532837 -1.010575 0
M  V30 21 N -5.271479 0.325713 -0.376717 0
M  V30 22 N -4.604583 1.292128 0.219667 0
M  V30 23 N -0.896929 1.766331 0.268381 0
M  V30 24 N -0.276713 0.817978 -0.408815 0
M  V30 25 C 1.745287 -1.887833 0.934093 0
M  V30 26 H 2.617621 -4.926678 2.069646 0
M  V30 27 H 3.084677 -5.150525 -0.381842 0
M  V30 28 H 2.704726 -3.344248 -1.928810 0
M  V30 29 H 2.882198 1.656546 -0.077449 0
M  V30 30 H 1.762673 3.497447 1.230999 0
M  V30 31 H -2.210135 -0.473902 -1.130891 0
M  V30 32 H -4.637881 -1.422262 -1.588162 0
M  V30 33 H -5.091774 2.045405 0.757175 0
M  V30 34 H 1.360595 -0.952787 1.316569 0
M  V30 END ATOM
M  V30 BEGIN BOND
M  V30 1 1 1 2
M  V30 2 1 2 3
M  V30 3 1 2 4
M  V30 4 1 2 5
M  V30 5 2 5 6
M  V30 6 1 6 7
M  V30 7 2 7 8
M  V30 8 1 8 9
M  V30 9 1 9 10
M  V30 10 1 10 11
M  V30 11 1 11 12
M  V30 12 2 12 13
M  V30 13 1 13 14
M  V30 14 2 14 15
M  V30 15 1 15 16
M  V30 16 2 16 17
M  V30 17 1 17 18
M  V30 18 2 18 19
M  V30 19 1 19 20
M  V30 20 2 20 21
M  V30 21 1 21 22
M  V30 22 1 17 23
M  V30 23 1 23 24
M  V30 24 2 9 25
M  V30 25 1 25 5
M  V30 26 2 24 11
M  V30 27 1 23 14
M  V30 28 1 22 18
M  V30 29 1 6 26
M  V30 30 1 7 27
M  V30 31 1 8 28
M  V30 32 1 12 29
M  V30 33 1 13 30
M  V30 34 1 19 31
M  V30 35 1 20 32
M  V30 36 1 22 33
M  V30 37 1 25 34
M  V30 END BOND
M  V30 END CTAB
M  END
>  <Dataset>  (645) 
ChEMBL_Kinases

>  <Ligand_Instance>  (645) 
nan

>  <PDB_ID>  (645) 
nan

>  <Standardized_SMILES>  (645) 
FC(F)(F)c1cccc(Sc2ccc3nnc(-c4ccn[nH]4)n3n2)c1

>  <Name>  (645) 
nan

>  <Pocket>  (645) 
nan

>  <ATP_Site>  (645) 
nan

>  <Peripheral>  (645) 
nan

>  <Num_H_Atoms_ProtBoundConf>  (645) 
nan

>  <Num_Resolved_Atoms>  (645) 
nan

>  <Num_Not_Resolved_Atoms>  (645) 
nan

$$$$
CHEMBL2349212
     RDKit          3D

  0  0  0  0  0  0  0  0  0  0999 V3000
M  V30 BEGIN CTAB
M  V30 COUNTS 37 39 0 0 0
M  V30 BEGIN ATOM
M  V30 1 O 0.692449 -8.303186 -0.010170 0
M  V30 2 C 1.285557 -7.265062 0.312513 0
M  V30 3 O 2.443127 -7.850495 0.846635 0
M  V30 4 C 0.875394 -5.839552 0.168407 0
M  V30 5 C 1.992316 -4.930165 0.539460 0
M  V30 6 N 1.549808 -3.539575 0.407067 0
M  V30 7 C 1.609736 -2.694799 -0.724001 0
M  V30 8 O 2.106485 -3.122745 -1.822279 0
M  V30 9 C 1.092516 -1.372827 -0.555996 0
M  V30 10 C 1.103957 -0.363515 -1.372192 0
M  V30 11 C 0.521990 0.931412 -1.038636 0
M  V30 12 C 0.373351 1.938977 -1.969570 0
M  V30 13 C -0.204546 3.001099 -1.301139 0
M  V30 14 C -0.380090 2.596005 -0.002961 0
M  V30 15 C -0.947571 3.326231 1.120656 0
M  V30 16 C -1.400886 4.639451 1.018642 0
M  V30 17 C -1.947368 5.389259 2.011349 0
M  V30 18 C -2.068342 4.795027 3.249206 0
M  V30 19 C -1.640026 3.496317 3.423678 0
M  V30 20 C -1.094675 2.793131 2.373361 0
M  V30 21 F -0.695973 1.527087 2.601965 0
M  V30 22 O 0.067439 1.345801 0.121192 0
M  V30 23 S 0.383163 -1.323144 1.088841 0
M  V30 24 C 0.974208 -2.944039 1.573112 0
M  V30 25 S 0.752474 -3.357864 3.106229 0
M  V30 26 H 2.413495 -8.334668 1.747817 0
M  V30 27 H -0.063015 -5.689277 0.730195 0
M  V30 28 H 0.603440 -5.718192 -0.914074 0
M  V30 29 H 2.400400 -5.160332 1.540442 0
M  V30 30 H 2.845763 -5.135259 -0.157730 0
M  V30 31 H 1.580415 -0.561779 -2.320456 0
M  V30 32 H 0.650770 1.899591 -3.003290 0
M  V30 33 H -0.482671 3.968523 -1.665463 0
M  V30 34 H -1.306445 5.119497 0.040024 0
M  V30 35 H -2.269155 6.416202 1.818082 0
M  V30 36 H -2.494995 5.348082 4.070687 0
M  V30 37 H -1.724845 3.018361 4.391365 0
M  V30 END ATOM
M  V30 BEGIN BOND
M  V30 1 2 1 2
M  V30 2 1 2 3
M  V30 3 1 2 4
M  V30 4 1 4 5
M  V30 5 1 5 6
M  V30 6 1 6 7
M  V30 7 2 7 8
M  V30 8 1 7 9
M  V30 9 2 9 10
M  V30 10 1 10 11
M  V30 11 2 11 12
M  V30 12 1 12 13
M  V30 13 2 13 14
M  V30 14 1 14 15
M  V30 15 2 15 16
M  V30 16 1 16 17
M  V30 17 2 17 18
M  V30 18 1 18 19
M  V30 19 2 19 20
M  V30 20 1 20 21
M  V30 21 1 14 22
M  V30 22 1 9 23
M  V30 23 1 23 24
M  V30 24 2 24 25
M  V30 25 1 24 6
M  V30 26 1 22 11
M  V30 27 1 20 15
M  V30 28 1 3 26
M  V30 29 1 4 27
M  V30 30 1 4 28
M  V30 31 1 5 29
M  V30 32 1 5 30
M  V30 33 1 10 31
M  V30 34 1 12 32
M  V30 35 1 13 33
M  V30 36 1 16 34
M  V30 37 1 17 35
M  V30 38 1 18 36
M  V30 39 1 19 37
M  V30 END BOND
M  V30 END CTAB
M  END
>  <Dataset>  (646) 
ChEMBL_Kinases

>  <Ligand_Instance>  (646) 
nan

>  <PDB_ID>  (646) 
nan

>  <Standardized_SMILES>  (646) 
O=C(O)CCN1C(=O)/C(=C/c2ccc(-c3ccccc3F)o2)SC1=S

>  <Name>  (646) 
nan

>  <Pocket>  (646) 
nan

>  <ATP_Site>  (646) 
nan

>  <Peripheral>  (646) 
nan

>  <Num_H_Atoms_ProtBoundConf>  (646) 
nan

>  <Num_Resolved_Atoms>  (646) 
nan

>  <Num_Not_Resolved_Atoms>  (646) 
nan

$$$$
CHEMBL2349211
     RDKit          3D

  0  0  0  0  0  0  0  0  0  0999 V3000
M  V30 BEGIN CTAB
M  V30 COUNTS 34 36 0 0 0
M  V30 BEGIN ATOM
M  V30 1 O 2.485226 -7.143960 1.424287 0
M  V30 2 C 1.962928 -6.041878 1.071960 0
M  V30 3 O 0.994821 -6.459151 0.177007 0
M  V30 4 C 2.645656 -4.927872 1.784450 0
M  V30 5 N 2.100550 -3.622630 1.459173 0
M  V30 6 C 2.522921 -2.783008 0.429227 0
M  V30 7 O 3.461477 -3.074005 -0.366341 0
M  V30 8 C 1.830133 -1.524124 0.293341 0
M  V30 9 C 1.903998 -0.630265 -0.675617 0
M  V30 10 C 1.099744 0.598829 -0.610626 0
M  V30 11 C 1.578677 1.840138 -1.062298 0
M  V30 12 C 0.501602 2.657941 -0.802877 0
M  V30 13 C -0.547191 1.981354 -0.241199 0
M  V30 14 C -1.878625 2.373390 0.208367 0
M  V30 15 C -2.200000 3.728558 0.064985 0
M  V30 16 C -3.467045 4.131221 0.486198 0
M  V30 17 C -4.383272 3.233636 1.028058 0
M  V30 18 C -4.022266 1.894403 1.152500 0
M  V30 19 C -2.773260 1.473990 0.742011 0
M  V30 20 F -2.408530 0.164393 0.857349 0
M  V30 21 O -0.107720 0.735438 -0.155895 0
M  V30 22 S 0.798118 -1.406484 1.777544 0
M  V30 23 C 1.025282 -3.126436 2.257105 0
M  V30 24 S 0.127605 -3.882631 3.391116 0
M  V30 25 H 0.201846 -7.016863 0.477922 0
M  V30 26 H 3.716812 -4.990815 1.434914 0
M  V30 27 H 2.683517 -5.104477 2.871996 0
M  V30 28 H 2.562713 -0.839386 -1.488036 0
M  V30 29 H 2.506160 2.130011 -1.494998 0
M  V30 30 H 0.395671 3.738920 -0.987039 0
M  V30 31 H -1.527130 4.472622 -0.350539 0
M  V30 32 H -3.739551 5.194479 0.382021 0
M  V30 33 H -5.364976 3.542941 1.354719 0
M  V30 34 H -4.687499 1.138238 1.567458 0
M  V30 END ATOM
M  V30 BEGIN BOND
M  V30 1 2 1 2
M  V30 2 1 2 3
M  V30 3 1 2 4
M  V30 4 1 4 5
M  V30 5 1 5 6
M  V30 6 2 6 7
M  V30 7 1 6 8
M  V30 8 2 8 9
M  V30 9 1 9 10
M  V30 10 2 10 11
M  V30 11 1 11 12
M  V30 12 2 12 13
M  V30 13 1 13 14
M  V30 14 2 14 15
M  V30 15 1 15 16
M  V30 16 2 16 17
M  V30 17 1 17 18
M  V30 18 2 18 19
M  V30 19 1 19 20
M  V30 20 1 13 21
M  V30 21 1 8 22
M  V30 22 1 22 23
M  V30 23 2 23 24
M  V30 24 1 23 5
M  V30 25 1 21 10
M  V30 26 1 19 14
M  V30 27 1 3 25
M  V30 28 1 4 26
M  V30 29 1 4 27
M  V30 30 1 9 28
M  V30 31 1 11 29
M  V30 32 1 12 30
M  V30 33 1 15 31
M  V30 34 1 16 32
M  V30 35 1 17 33
M  V30 36 1 18 34
M  V30 END BOND
M  V30 END CTAB
M  END
>  <Dataset>  (647) 
ChEMBL_Kinases

>  <Ligand_Instance>  (647) 
nan

>  <PDB_ID>  (647) 
nan

>  <Standardized_SMILES>  (647) 
O=C(O)CN1C(=O)/C(=C/c2ccc(-c3ccccc3F)o2)SC1=S

>  <Name>  (647) 
nan

>  <Pocket>  (647) 
nan

>  <ATP_Site>  (647) 
nan

>  <Peripheral>  (647) 
nan

>  <Num_H_Atoms_ProtBoundConf>  (647) 
nan

>  <Num_Resolved_Atoms>  (647) 
nan

>  <Num_Not_Resolved_Atoms>  (647) 
nan

$$$$
CHEMBL2349210
     RDKit          3D

  0  0  0  0  0  0  0  0  0  0999 V3000
M  V30 BEGIN CTAB
M  V30 COUNTS 39 42 0 0 0
M  V30 BEGIN ATOM
M  V30 1 O -0.439231 -1.200441 4.024152 0
M  V30 2 C -0.580854 -1.521503 2.785052 0
M  V30 3 C 0.473759 -1.230917 1.815142 0
M  V30 4 C 1.344531 -0.269889 1.768514 0
M  V30 5 C 2.240016 -0.343623 0.617002 0
M  V30 6 C 3.055545 -1.155651 -0.116498 0
M  V30 7 C 3.602754 -0.424521 -1.146835 0
M  V30 8 C 3.090174 0.842458 -1.005256 0
M  V30 9 C 3.460066 1.900927 -1.939277 0
M  V30 10 C 4.344919 1.717554 -3.003666 0
M  V30 11 C 4.598621 2.809636 -3.805688 0
M  V30 12 C 4.070801 4.077343 -3.674863 0
M  V30 13 Br 4.493563 5.509223 -4.847665 0
M  V30 14 C 3.185445 4.218155 -2.592280 0
M  V30 15 C 2.900280 3.166695 -1.766117 0
M  V30 16 O 2.294163 0.862141 0.036585 0
M  V30 17 S 0.142720 -2.625471 0.680056 0
M  V30 18 C -1.667474 -2.423099 0.845795 0
M  V30 19 S -3.066794 -2.407873 -0.026009 0
M  V30 20 N -1.758934 -2.172880 2.271946 0
M  V30 21 C -2.882291 -2.522900 3.106199 0
M  V30 22 C -3.874699 -1.589978 3.310123 0
M  V30 23 C -5.026062 -1.792578 4.083556 0
M  V30 24 C -5.170194 -3.033419 4.688052 0
M  V30 25 C -4.181825 -4.013054 4.506018 0
M  V30 26 O -4.355062 -5.241689 5.122382 0
M  V30 27 C -3.088365 -3.724625 3.731765 0
M  V30 28 H 1.327147 0.461795 2.559811 0
M  V30 29 H 3.074504 -2.159885 0.279651 0
M  V30 30 H 4.278780 -0.924946 -1.824987 0
M  V30 31 H 4.786393 0.741496 -3.149433 0
M  V30 32 H 5.302851 2.607445 -4.626220 0
M  V30 33 H 2.732174 5.210162 -2.435121 0
M  V30 34 H 2.202878 3.310602 -0.929939 0
M  V30 35 H -3.738787 -0.611488 2.821792 0
M  V30 36 H -5.707199 -0.956068 4.140775 0
M  V30 37 H -6.067453 -3.170993 5.281002 0
M  V30 38 H -4.509388 -6.078710 4.585333 0
M  V30 39 H -2.300507 -4.480233 3.575264 0
M  V30 END ATOM
M  V30 BEGIN BOND
M  V30 1 2 1 2
M  V30 2 1 2 3
M  V30 3 2 3 4
M  V30 4 1 4 5
M  V30 5 2 5 6
M  V30 6 1 6 7
M  V30 7 2 7 8
M  V30 8 1 8 9
M  V30 9 2 9 10
M  V30 10 1 10 11
M  V30 11 2 11 12
M  V30 12 1 12 13
M  V30 13 1 12 14
M  V30 14 2 14 15
M  V30 15 1 8 16
M  V30 16 1 3 17
M  V30 17 1 17 18
M  V30 18 2 18 19
M  V30 19 1 18 20
M  V30 20 1 20 21
M  V30 21 2 21 22
M  V30 22 1 22 23
M  V30 23 2 23 24
M  V30 24 1 24 25
M  V30 25 1 25 26
M  V30 26 2 25 27
M  V30 27 1 20 2
M  V30 28 1 27 21
M  V30 29 1 16 5
M  V30 30 1 15 9
M  V30 31 1 4 28
M  V30 32 1 6 29
M  V30 33 1 7 30
M  V30 34 1 10 31
M  V30 35 1 11 32
M  V30 36 1 14 33
M  V30 37 1 15 34
M  V30 38 1 22 35
M  V30 39 1 23 36
M  V30 40 1 24 37
M  V30 41 1 26 38
M  V30 42 1 27 39
M  V30 END BOND
M  V30 END CTAB
M  END
>  <Dataset>  (648) 
ChEMBL_Kinases

>  <Ligand_Instance>  (648) 
nan

>  <PDB_ID>  (648) 
nan

>  <Standardized_SMILES>  (648) 
O=C1/C(=C/c2ccc(-c3ccc(Br)cc3)o2)SC(=S)N1c1cccc(O)c1

>  <Name>  (648) 
nan

>  <Pocket>  (648) 
nan

>  <ATP_Site>  (648) 
nan

>  <Peripheral>  (648) 
nan

>  <Num_H_Atoms_ProtBoundConf>  (648) 
nan

>  <Num_Resolved_Atoms>  (648) 
nan

>  <Num_Not_Resolved_Atoms>  (648) 
nan

$$$$
CHEMBL2349209
     RDKit          3D

  0  0  0  0  0  0  0  0  0  0999 V3000
M  V30 BEGIN CTAB
M  V30 COUNTS 40 42 0 0 0
M  V30 BEGIN ATOM
M  V30 1 O 1.430892 -5.534488 -3.900308 0
M  V30 2 C 0.293812 -5.341205 -3.396749 0
M  V30 3 O -0.310013 -6.572162 -3.715896 0
M  V30 4 C -0.005182 -4.071636 -2.727550 0
M  V30 5 C 1.041459 -3.870564 -1.652436 0
M  V30 6 C 1.010293 -4.973689 -0.641399 0
M  V30 7 O 0.845411 -4.599296 0.561411 0
M  V30 8 O 1.030501 -6.199747 -0.001690 0
M  V30 9 N 0.854736 -2.581789 -0.970972 0
M  V30 10 C 1.834865 -1.569325 -0.965749 0
M  V30 11 O 2.976304 -1.655203 -1.541093 0
M  V30 12 C 1.494782 -0.367194 -0.256023 0
M  V30 13 C 2.228102 0.684545 -0.011954 0
M  V30 14 C 1.648261 1.815611 0.753416 0
M  V30 15 C 1.933227 3.143819 0.515014 0
M  V30 16 C 1.187788 3.846229 1.444494 0
M  V30 17 C 0.488803 2.934397 2.197920 0
M  V30 18 C -0.434508 3.171268 3.301358 0
M  V30 19 C -1.041005 2.100472 3.935378 0
M  V30 20 C -1.925114 2.310643 4.997390 0
M  V30 21 C -2.221251 3.586775 5.444762 0
M  V30 22 Br -3.426684 3.947027 6.891780 0
M  V30 23 C -1.583794 4.624763 4.770660 0
M  V30 24 C -0.701183 4.445665 3.714497 0
M  V30 25 O 0.793362 1.713280 1.750888 0
M  V30 26 S -0.218738 -0.561701 0.270504 0
M  V30 27 C -0.347634 -2.280474 -0.266722 0
M  V30 28 S -1.609964 -3.280631 0.012927 0
M  V30 29 H -0.175079 -7.404580 -3.132571 0
M  V30 30 H 0.184888 -3.248425 -3.476247 0
M  V30 31 H -1.028050 -3.947504 -2.396334 0
M  V30 32 H 2.023986 -3.928699 -2.145424 0
M  V30 33 H 0.278691 -6.904120 -0.160259 0
M  V30 34 H 3.256008 0.712108 -0.377882 0
M  V30 35 H 2.591623 3.607562 -0.220471 0
M  V30 36 H 1.167887 4.935838 1.549049 0
M  V30 37 H -0.875292 1.073028 3.663618 0
M  V30 38 H -2.408462 1.462688 5.499559 0
M  V30 39 H -1.832611 5.619227 5.143091 0
M  V30 40 H -0.247639 5.309043 3.245840 0
M  V30 END ATOM
M  V30 BEGIN BOND
M  V30 1 2 1 2
M  V30 2 1 2 3
M  V30 3 1 2 4
M  V30 4 1 4 5
M  V30 5 1 5 6
M  V30 6 2 6 7
M  V30 7 1 6 8
M  V30 8 1 5 9
M  V30 9 1 9 10
M  V30 10 2 10 11
M  V30 11 1 10 12
M  V30 12 2 12 13
M  V30 13 1 13 14
M  V30 14 2 14 15
M  V30 15 1 15 16
M  V30 16 2 16 17
M  V30 17 1 17 18
M  V30 18 2 18 19
M  V30 19 1 19 20
M  V30 20 2 20 21
M  V30 21 1 21 22
M  V30 22 1 21 23
M  V30 23 2 23 24
M  V30 24 1 17 25
M  V30 25 1 12 26
M  V30 26 1 26 27
M  V30 27 2 27 28
M  V30 28 1 27 9
M  V30 29 1 25 14
M  V30 30 1 24 18
M  V30 31 1 3 29
M  V30 32 1 4 30
M  V30 33 1 4 31
M  V30 34 1 5 32
M  V30 35 1 8 33
M  V30 36 1 13 34
M  V30 37 1 15 35
M  V30 38 1 16 36
M  V30 39 1 19 37
M  V30 40 1 20 38
M  V30 41 1 23 39
M  V30 42 1 24 40
M  V30 END BOND
M  V30 END CTAB
M  END
>  <Dataset>  (649) 
ChEMBL_Kinases

>  <Ligand_Instance>  (649) 
nan

>  <PDB_ID>  (649) 
nan

>  <Standardized_SMILES>  (649) 
O=C(O)CC(C(=O)O)N1C(=O)/C(=C/c2ccc(-c3ccc(Br)cc3)o2)SC1=S

>  <Name>  (649) 
nan

>  <Pocket>  (649) 
nan

>  <ATP_Site>  (649) 
nan

>  <Peripheral>  (649) 
nan

>  <Num_H_Atoms_ProtBoundConf>  (649) 
nan

>  <Num_Resolved_Atoms>  (649) 
nan

>  <Num_Not_Resolved_Atoms>  (649) 
nan

$$$$
CHEMBL2349208
     RDKit          3D

  0  0  0  0  0  0  0  0  0  0999 V3000
M  V30 BEGIN CTAB
M  V30 COUNTS 43 45 0 0 0
M  V30 BEGIN ATOM
M  V30 1 C 2.859674 -5.765514 0.838536 0
M  V30 2 C 2.470050 -4.631334 -0.137014 0
M  V30 3 C 3.567202 -3.643180 -0.205502 0
M  V30 4 C 3.368024 -2.471382 -1.148459 0
M  V30 5 C 3.191292 -2.858665 -2.555576 0
M  V30 6 O 4.040113 -3.678666 -3.041100 0
M  V30 7 O 2.290327 -2.554080 -3.568459 0
M  V30 8 N 2.361155 -1.532821 -0.681224 0
M  V30 9 C 2.701420 -0.245150 -0.161122 0
M  V30 10 O 3.876789 0.250419 -0.005974 0
M  V30 11 C 1.595074 0.618896 0.244583 0
M  V30 12 C 1.517652 1.920650 0.338954 0
M  V30 13 C 0.224274 2.473937 0.788642 0
M  V30 14 C -0.415615 3.637190 0.384192 0
M  V30 15 C -1.610014 3.753241 1.077446 0
M  V30 16 C -1.628438 2.619660 1.888221 0
M  V30 17 C -2.705449 2.291547 2.818095 0
M  V30 18 C -2.621810 1.132257 3.573461 0
M  V30 19 C -3.579167 0.742876 4.468682 0
M  V30 20 C -4.665770 1.586815 4.586439 0
M  V30 21 Br -6.057550 1.144945 5.799719 0
M  V30 22 C -4.802826 2.752715 3.861179 0
M  V30 23 C -3.803067 3.115554 2.957093 0
M  V30 24 O -0.551066 1.922072 1.680478 0
M  V30 25 S 0.329732 -0.647931 0.589613 0
M  V30 26 C 0.943349 -1.752915 -0.715312 0
M  V30 27 S 0.100091 -2.729779 -1.703087 0
M  V30 28 H 3.280486 -6.610614 0.263742 0
M  V30 29 H 1.971410 -6.166958 1.367861 0
M  V30 30 H 3.548622 -5.389384 1.607627 0
M  V30 31 H 2.184849 -5.083771 -1.078462 0
M  V30 32 H 1.536243 -4.209688 0.347887 0
M  V30 33 H 3.728968 -3.156970 0.802826 0
M  V30 34 H 4.521299 -4.167829 -0.399477 0
M  V30 35 H 4.380425 -1.947128 -1.076375 0
M  V30 36 H 2.585490 -2.228873 -4.489789 0
M  V30 37 H 2.384882 2.516933 0.088564 0
M  V30 38 H -0.007568 4.307692 -0.353289 0
M  V30 39 H -2.324177 4.556365 0.975201 0
M  V30 40 H -1.754468 0.489188 3.457377 0
M  V30 41 H -3.521744 -0.159409 5.062261 0
M  V30 42 H -5.665766 3.407142 3.965870 0
M  V30 43 H -3.869431 4.012564 2.374464 0
M  V30 END ATOM
M  V30 BEGIN BOND
M  V30 1 1 1 2
M  V30 2 1 2 3
M  V30 3 1 3 4
M  V30 4 1 4 5
M  V30 5 2 5 6
M  V30 6 1 5 7
M  V30 7 1 4 8
M  V30 8 1 8 9
M  V30 9 2 9 10
M  V30 10 1 9 11
M  V30 11 2 11 12
M  V30 12 1 12 13
M  V30 13 2 13 14
M  V30 14 1 14 15
M  V30 15 2 15 16
M  V30 16 1 16 17
M  V30 17 2 17 18
M  V30 18 1 18 19
M  V30 19 2 19 20
M  V30 20 1 20 21
M  V30 21 1 20 22
M  V30 22 2 22 23
M  V30 23 1 16 24
M  V30 24 1 11 25
M  V30 25 1 25 26
M  V30 26 2 26 27
M  V30 27 1 26 8
M  V30 28 1 24 13
M  V30 29 1 23 17
M  V30 30 1 1 28
M  V30 31 1 1 29
M  V30 32 1 1 30
M  V30 33 1 2 31
M  V30 34 1 2 32
M  V30 35 1 3 33
M  V30 36 1 3 34
M  V30 37 1 4 35
M  V30 38 1 7 36
M  V30 39 1 12 37
M  V30 40 1 14 38
M  V30 41 1 15 39
M  V30 42 1 18 40
M  V30 43 1 19 41
M  V30 44 1 22 42
M  V30 45 1 23 43
M  V30 END BOND
M  V30 END CTAB
M  END
>  <Dataset>  (650) 
ChEMBL_Kinases

>  <Ligand_Instance>  (650) 
nan

>  <PDB_ID>  (650) 
nan

>  <Standardized_SMILES>  (650) 
CCCC(C(=O)O)N1C(=O)/C(=C/c2ccc(-c3ccc(Br)cc3)o2)SC1=S

>  <Name>  (650) 
nan

>  <Pocket>  (650) 
nan

>  <ATP_Site>  (650) 
nan

>  <Peripheral>  (650) 
nan

>  <Num_H_Atoms_ProtBoundConf>  (650) 
nan

>  <Num_Resolved_Atoms>  (650) 
nan

>  <Num_Not_Resolved_Atoms>  (650) 
nan

$$$$
CHEMBL2349207
     RDKit          3D

  0  0  0  0  0  0  0  0  0  0999 V3000
M  V30 BEGIN CTAB
M  V30 COUNTS 40 42 0 0 0
M  V30 BEGIN ATOM
M  V30 1 C 0.384956 -6.783875 -0.939910 0
M  V30 2 C 0.798854 -5.328000 -0.855044 0
M  V30 3 C -0.238091 -4.593015 -0.056492 0
M  V30 4 C -0.295957 -5.189723 1.291489 0
M  V30 5 O -0.505130 -6.329858 1.834094 0
M  V30 6 O -0.165117 -4.880621 2.661896 0
M  V30 7 N -0.001105 -3.153157 -0.041297 0
M  V30 8 C -0.883147 -2.195328 -0.601498 0
M  V30 9 O -1.990447 -2.484558 -1.181057 0
M  V30 10 C -0.450319 -0.817723 -0.481311 0
M  V30 11 C -0.733166 0.225054 -1.190704 0
M  V30 12 C -0.191111 1.577352 -0.915930 0
M  V30 13 C 0.357488 2.596325 -1.596172 0
M  V30 14 C 0.673018 3.630799 -0.742926 0
M  V30 15 C 0.278289 3.165000 0.492064 0
M  V30 16 C 0.391455 3.876343 1.760180 0
M  V30 17 C -0.038351 3.281736 2.925278 0
M  V30 18 C 0.041694 3.900133 4.167345 0
M  V30 19 C 0.585951 5.170311 4.177302 0
M  V30 20 Br 0.763896 6.160825 5.820749 0
M  V30 21 C 1.034700 5.813829 3.024000 0
M  V30 22 C 0.930390 5.144989 1.797978 0
M  V30 23 O -0.231479 1.943153 0.358168 0
M  V30 24 S 0.674223 -0.883081 0.937685 0
M  V30 25 C 1.185927 -2.594914 0.560036 0
M  V30 26 S 2.647851 -3.222720 0.876800 0
M  V30 27 H 1.207852 -7.444922 -0.570799 0
M  V30 28 H 0.123982 -7.081858 -1.989549 0
M  V30 29 H -0.516273 -7.021520 -0.346038 0
M  V30 30 H 0.896193 -4.950929 -1.891952 0
M  V30 31 H 1.766619 -5.234750 -0.339646 0
M  V30 32 H -1.222061 -4.820260 -0.556771 0
M  V30 33 H 0.743255 -4.697089 3.095219 0
M  V30 34 H -1.398025 0.142467 -2.039969 0
M  V30 35 H 0.480219 2.492482 -2.663246 0
M  V30 36 H 1.124088 4.569769 -1.026129 0
M  V30 37 H -0.474446 2.281971 2.969616 0
M  V30 38 H -0.293152 3.440618 5.085125 0
M  V30 39 H 1.455315 6.790786 3.000625 0
M  V30 40 H 1.284642 5.655514 0.896618 0
M  V30 END ATOM
M  V30 BEGIN BOND
M  V30 1 1 1 2
M  V30 2 1 2 3
M  V30 3 1 3 4
M  V30 4 2 4 5
M  V30 5 1 4 6
M  V30 6 1 3 7
M  V30 7 1 7 8
M  V30 8 2 8 9
M  V30 9 1 8 10
M  V30 10 2 10 11
M  V30 11 1 11 12
M  V30 12 2 12 13
M  V30 13 1 13 14
M  V30 14 2 14 15
M  V30 15 1 15 16
M  V30 16 2 16 17
M  V30 17 1 17 18
M  V30 18 2 18 19
M  V30 19 1 19 20
M  V30 20 1 19 21
M  V30 21 2 21 22
M  V30 22 1 15 23
M  V30 23 1 10 24
M  V30 24 1 24 25
M  V30 25 2 25 26
M  V30 26 1 25 7
M  V30 27 1 23 12
M  V30 28 1 22 16
M  V30 29 1 1 27
M  V30 30 1 1 28
M  V30 31 1 1 29
M  V30 32 1 2 30
M  V30 33 1 2 31
M  V30 34 1 3 32
M  V30 35 1 6 33
M  V30 36 1 11 34
M  V30 37 1 13 35
M  V30 38 1 14 36
M  V30 39 1 17 37
M  V30 40 1 18 38
M  V30 41 1 21 39
M  V30 42 1 22 40
M  V30 END BOND
M  V30 END CTAB
M  END
>  <Dataset>  (651) 
ChEMBL_Kinases

>  <Ligand_Instance>  (651) 
nan

>  <PDB_ID>  (651) 
nan

>  <Standardized_SMILES>  (651) 
CCC(C(=O)O)N1C(=O)/C(=C/c2ccc(-c3ccc(Br)cc3)o2)SC1=S

>  <Name>  (651) 
nan

>  <Pocket>  (651) 
nan

>  <ATP_Site>  (651) 
nan

>  <Peripheral>  (651) 
nan

>  <Num_H_Atoms_ProtBoundConf>  (651) 
nan

>  <Num_Resolved_Atoms>  (651) 
nan

>  <Num_Not_Resolved_Atoms>  (651) 
nan

$$$$
CHEMBL2349206
     RDKit          3D

  0  0  0  0  0  0  0  0  0  0999 V3000
M  V30 BEGIN CTAB
M  V30 COUNTS 46 48 0 0 0
M  V30 BEGIN ATOM
M  V30 1 O 5.697648 -1.871258 6.189028 0
M  V30 2 C 4.812286 -2.496370 5.514055 0
M  V30 3 O 4.295992 -3.594128 6.181372 0
M  V30 4 C 4.322479 -2.156644 4.147685 0
M  V30 5 C 5.022204 -0.939898 3.602592 0
M  V30 6 C 4.496947 -0.634061 2.214213 0
M  V30 7 C 4.721608 -1.759989 1.264464 0
M  V30 8 C 4.221304 -1.441587 -0.129732 0
M  V30 9 N 2.797995 -1.167163 -0.177878 0
M  V30 10 C 2.167670 0.078615 -0.042676 0
M  V30 11 O 2.804128 1.157220 0.154039 0
M  V30 12 C 0.716567 0.064784 -0.142798 0
M  V30 13 C -0.145887 1.000889 -0.387911 0
M  V30 14 C -1.589537 0.804268 -0.450895 0
M  V30 15 C -2.093345 -0.060874 0.531528 0
M  V30 16 C -3.473793 -0.131753 0.320550 0
M  V30 17 C -3.721157 0.683692 -0.762800 0
M  V30 18 C -5.033313 0.921910 -1.350285 0
M  V30 19 C -5.234697 1.742282 -2.435417 0
M  V30 20 C -6.497619 1.928916 -2.951566 0
M  V30 21 C -7.619437 1.329910 -2.439840 0
M  V30 22 Br -9.364150 1.583282 -3.146848 0
M  V30 23 C -7.434559 0.490666 -1.334699 0
M  V30 24 C -6.160304 0.321551 -0.838329 0
M  V30 25 O -2.590757 1.201041 -1.169576 0
M  V30 26 S 0.291684 -1.671677 0.156639 0
M  V30 27 C 1.909802 -2.285597 -0.396044 0
M  V30 28 S 2.238696 -3.762638 -0.992195 0
M  V30 29 H 4.163136 -3.578977 7.179215 0
M  V30 30 H 3.247978 -1.959027 4.229856 0
M  V30 31 H 4.490900 -3.058731 3.536360 0
M  V30 32 H 6.126793 -1.091567 3.578102 0
M  V30 33 H 4.838712 -0.095205 4.285180 0
M  V30 34 H 4.962201 0.306982 1.890136 0
M  V30 35 H 3.411417 -0.435535 2.324712 0
M  V30 36 H 5.716398 -2.198363 1.271799 0
M  V30 37 H 4.030618 -2.590471 1.615078 0
M  V30 38 H 4.506876 -2.226103 -0.844899 0
M  V30 39 H 4.777940 -0.517673 -0.484962 0
M  V30 40 H 0.343664 1.974719 -0.545832 0
M  V30 41 H -1.692204 -0.652458 1.370098 0
M  V30 42 H -4.230302 -0.706019 0.880286 0
M  V30 43 H -4.372703 2.245686 -2.884406 0
M  V30 44 H -6.695684 2.570582 -3.809930 0
M  V30 45 H -8.253563 -0.031505 -0.853495 0
M  V30 46 H -6.042336 -0.338193 0.023928 0
M  V30 END ATOM
M  V30 BEGIN BOND
M  V30 1 2 1 2
M  V30 2 1 2 3
M  V30 3 1 2 4
M  V30 4 1 4 5
M  V30 5 1 5 6
M  V30 6 1 6 7
M  V30 7 1 7 8
M  V30 8 1 8 9
M  V30 9 1 9 10
M  V30 10 2 10 11
M  V30 11 1 10 12
M  V30 12 2 12 13
M  V30 13 1 13 14
M  V30 14 2 14 15
M  V30 15 1 15 16
M  V30 16 2 16 17
M  V30 17 1 17 18
M  V30 18 2 18 19
M  V30 19 1 19 20
M  V30 20 2 20 21
M  V30 21 1 21 22
M  V30 22 1 21 23
M  V30 23 2 23 24
M  V30 24 1 17 25
M  V30 25 1 12 26
M  V30 26 1 26 27
M  V30 27 2 27 28
M  V30 28 1 27 9
M  V30 29 1 25 14
M  V30 30 1 24 18
M  V30 31 1 3 29
M  V30 32 1 4 30
M  V30 33 1 4 31
M  V30 34 1 5 32
M  V30 35 1 5 33
M  V30 36 1 6 34
M  V30 37 1 6 35
M  V30 38 1 7 36
M  V30 39 1 7 37
M  V30 40 1 8 38
M  V30 41 1 8 39
M  V30 42 1 13 40
M  V30 43 1 15 41
M  V30 44 1 16 42
M  V30 45 1 19 43
M  V30 46 1 20 44
M  V30 47 1 23 45
M  V30 48 1 24 46
M  V30 END BOND
M  V30 END CTAB
M  END
>  <Dataset>  (652) 
ChEMBL_Kinases

>  <Ligand_Instance>  (652) 
nan

>  <PDB_ID>  (652) 
nan

>  <Standardized_SMILES>  (652) 
O=C(O)CCCCCN1C(=O)/C(=C/c2ccc(-c3ccc(Br)cc3)o2)SC1=S

>  <Name>  (652) 
nan

>  <Pocket>  (652) 
nan

>  <ATP_Site>  (652) 
nan

>  <Peripheral>  (652) 
nan

>  <Num_H_Atoms_ProtBoundConf>  (652) 
nan

>  <Num_Resolved_Atoms>  (652) 
nan

>  <Num_Not_Resolved_Atoms>  (652) 
nan

$$$$
CHEMBL2349205
     RDKit          3D

  0  0  0  0  0  0  0  0  0  0999 V3000
M  V30 BEGIN CTAB
M  V30 COUNTS 40 42 0 0 0
M  V30 BEGIN ATOM
M  V30 1 O -3.421824 -5.103848 -1.274277 0
M  V30 2 C -2.580096 -5.137182 -0.314310 0
M  V30 3 O -3.054132 -5.565513 0.909125 0
M  V30 4 C -1.199746 -4.710451 -0.643967 0
M  V30 5 C -1.097802 -4.304758 -2.109675 0
M  V30 6 C 0.314064 -3.864300 -2.445643 0
M  V30 7 N 0.710126 -2.708209 -1.623226 0
M  V30 8 C 0.485120 -1.375090 -2.075991 0
M  V30 9 O -0.055214 -1.044358 -3.182093 0
M  V30 10 C 0.933840 -0.381402 -1.149798 0
M  V30 11 C 1.289700 0.851235 -1.291998 0
M  V30 12 C 1.740470 1.798023 -0.245857 0
M  V30 13 C 2.740923 2.712958 -0.115643 0
M  V30 14 C 2.516229 3.221799 1.174808 0
M  V30 15 C 1.417766 2.591485 1.725702 0
M  V30 16 C 0.930704 2.909928 3.074094 0
M  V30 17 C 1.550867 3.840184 3.881985 0
M  V30 18 C 1.056157 4.105530 5.150607 0
M  V30 19 C -0.076257 3.430121 5.618117 0
M  V30 20 Br -0.776165 3.780004 7.372386 0
M  V30 21 C -0.696984 2.487953 4.788135 0
M  V30 22 C -0.199613 2.228559 3.527166 0
M  V30 23 O 0.945398 1.709141 0.834698 0
M  V30 24 S 0.953176 -1.247100 0.441700 0
M  V30 25 C 1.340056 -2.854337 -0.331292 0
M  V30 26 S 2.147688 -4.201904 0.123293 0
M  V30 27 H -3.986953 -5.355762 1.254281 0
M  V30 28 H -0.912470 -3.866905 0.011535 0
M  V30 29 H -0.523141 -5.561365 -0.410859 0
M  V30 30 H -1.862006 -3.533736 -2.282166 0
M  V30 31 H -1.283727 -5.207133 -2.711720 0
M  V30 32 H 0.985796 -4.709737 -2.259369 0
M  V30 33 H 0.325162 -3.592732 -3.519471 0
M  V30 34 H 1.267310 1.276111 -2.282602 0
M  V30 35 H 3.422831 2.851412 -0.923005 0
M  V30 36 H 3.199678 3.994336 1.530951 0
M  V30 37 H 2.440660 4.367246 3.505164 0
M  V30 38 H 1.550244 4.834646 5.771922 0
M  V30 39 H -1.580481 2.001954 5.227819 0
M  V30 40 H -0.753875 1.484753 2.975303 0
M  V30 END ATOM
M  V30 BEGIN BOND
M  V30 1 2 1 2
M  V30 2 1 2 3
M  V30 3 1 2 4
M  V30 4 1 4 5
M  V30 5 1 5 6
M  V30 6 1 6 7
M  V30 7 1 7 8
M  V30 8 2 8 9
M  V30 9 1 8 10
M  V30 10 2 10 11
M  V30 11 1 11 12
M  V30 12 2 12 13
M  V30 13 1 13 14
M  V30 14 2 14 15
M  V30 15 1 15 16
M  V30 16 2 16 17
M  V30 17 1 17 18
M  V30 18 2 18 19
M  V30 19 1 19 20
M  V30 20 1 19 21
M  V30 21 2 21 22
M  V30 22 1 15 23
M  V30 23 1 10 24
M  V30 24 1 24 25
M  V30 25 2 25 26
M  V30 26 1 25 7
M  V30 27 1 23 12
M  V30 28 1 22 16
M  V30 29 1 3 27
M  V30 30 1 4 28
M  V30 31 1 4 29
M  V30 32 1 5 30
M  V30 33 1 5 31
M  V30 34 1 6 32
M  V30 35 1 6 33
M  V30 36 1 11 34
M  V30 37 1 13 35
M  V30 38 1 14 36
M  V30 39 1 17 37
M  V30 40 1 18 38
M  V30 41 1 21 39
M  V30 42 1 22 40
M  V30 END BOND
M  V30 END CTAB
M  END
>  <Dataset>  (653) 
ChEMBL_Kinases

>  <Ligand_Instance>  (653) 
nan

>  <PDB_ID>  (653) 
nan

>  <Standardized_SMILES>  (653) 
O=C(O)CCCN1C(=O)/C(=C/c2ccc(-c3ccc(Br)cc3)o2)SC1=S

>  <Name>  (653) 
nan

>  <Pocket>  (653) 
nan

>  <ATP_Site>  (653) 
nan

>  <Peripheral>  (653) 
nan

>  <Num_H_Atoms_ProtBoundConf>  (653) 
nan

>  <Num_Resolved_Atoms>  (653) 
nan

>  <Num_Not_Resolved_Atoms>  (653) 
nan

$$$$
CHEMBL2349203
     RDKit          3D

  0  0  0  0  0  0  0  0  0  0999 V3000
M  V30 BEGIN CTAB
M  V30 COUNTS 44 46 0 0 0
M  V30 BEGIN ATOM
M  V30 1 C 3.975258 -1.430486 6.224543 0
M  V30 2 S 4.502870 -1.698437 4.497122 0
M  V30 3 C 3.392521 -2.913320 3.741824 0
M  V30 4 C 3.768440 -3.178617 2.325982 0
M  V30 5 C 3.800254 -2.035321 1.371318 0
M  V30 6 C 4.783021 -1.037703 1.837111 0
M  V30 7 O 5.977426 -1.297377 2.118825 0
M  V30 8 O 4.639311 0.328606 2.061511 0
M  V30 9 N 2.525140 -1.436027 1.038642 0
M  V30 10 C 1.704668 -0.612185 1.867484 0
M  V30 11 O 1.910574 -0.195580 3.036835 0
M  V30 12 C 0.439465 -0.161949 1.317349 0
M  V30 13 C -0.410080 0.767558 1.634638 0
M  V30 14 C -1.644088 0.987614 0.858109 0
M  V30 15 C -2.848201 1.371955 1.409465 0
M  V30 16 C -3.698611 1.449490 0.309284 0
M  V30 17 C -2.972647 1.112048 -0.834551 0
M  V30 18 C -3.506543 1.072460 -2.203218 0
M  V30 19 C -4.821184 1.377899 -2.506175 0
M  V30 20 C -5.253527 1.317625 -3.818185 0
M  V30 21 C -4.391011 0.953200 -4.857386 0
M  V30 22 Cl -4.969461 0.887398 -6.501495 0
M  V30 23 C -3.091735 0.659613 -4.495956 0
M  V30 24 Cl -2.048516 0.208571 -5.825408 0
M  V30 25 C -2.603930 0.702352 -3.205642 0
M  V30 26 O -1.747513 0.848219 -0.418748 0
M  V30 27 S 0.161399 -1.245244 -0.110784 0
M  V30 28 C 1.916915 -1.679131 -0.260808 0
M  V30 29 S 2.558812 -2.222232 -1.636905 0
M  V30 30 H 3.934164 -0.326424 6.367345 0
M  V30 31 H 2.958543 -1.887107 6.397396 0
M  V30 32 H 4.739340 -1.879552 6.876945 0
M  V30 33 H 3.527761 -3.907659 4.327039 0
M  V30 34 H 2.354562 -2.581594 3.899836 0
M  V30 35 H 3.233397 -4.071101 1.908556 0
M  V30 36 H 4.843461 -3.550315 2.363559 0
M  V30 37 H 4.189059 -2.514619 0.413541 0
M  V30 38 H 4.956117 0.804212 2.895127 0
M  V30 39 H -0.165660 1.370451 2.496469 0
M  V30 40 H -3.125639 1.578159 2.437395 0
M  V30 41 H -4.742015 1.715648 0.270833 0
M  V30 42 H -5.487421 1.658881 -1.708273 0
M  V30 43 H -6.304729 1.568402 -4.012232 0
M  V30 44 H -1.562082 0.450798 -3.030731 0
M  V30 END ATOM
M  V30 BEGIN BOND
M  V30 1 1 1 2
M  V30 2 1 2 3
M  V30 3 1 3 4
M  V30 4 1 4 5
M  V30 5 1 5 6
M  V30 6 2 6 7
M  V30 7 1 6 8
M  V30 8 1 5 9
M  V30 9 1 9 10
M  V30 10 2 10 11
M  V30 11 1 10 12
M  V30 12 2 12 13
M  V30 13 1 13 14
M  V30 14 2 14 15
M  V30 15 1 15 16
M  V30 16 2 16 17
M  V30 17 1 17 18
M  V30 18 2 18 19
M  V30 19 1 19 20
M  V30 20 2 20 21
M  V30 21 1 21 22
M  V30 22 1 21 23
M  V30 23 1 23 24
M  V30 24 2 23 25
M  V30 25 1 17 26
M  V30 26 1 12 27
M  V30 27 1 27 28
M  V30 28 2 28 29
M  V30 29 1 28 9
M  V30 30 1 26 14
M  V30 31 1 25 18
M  V30 32 1 1 30
M  V30 33 1 1 31
M  V30 34 1 1 32
M  V30 35 1 3 33
M  V30 36 1 3 34
M  V30 37 1 4 35
M  V30 38 1 4 36
M  V30 39 1 5 37
M  V30 40 1 8 38
M  V30 41 1 13 39
M  V30 42 1 15 40
M  V30 43 1 16 41
M  V30 44 1 19 42
M  V30 45 1 20 43
M  V30 46 1 25 44
M  V30 END BOND
M  V30 END CTAB
M  END
>  <Dataset>  (654) 
ChEMBL_Kinases

>  <Ligand_Instance>  (654) 
nan

>  <PDB_ID>  (654) 
nan

>  <Standardized_SMILES>  (654) 
CSCCC(C(=O)O)N1C(=O)/C(=C/c2ccc(-c3ccc(Cl)c(Cl)c3)o2)SC1=S

>  <Name>  (654) 
nan

>  <Pocket>  (654) 
nan

>  <ATP_Site>  (654) 
nan

>  <Peripheral>  (654) 
nan

>  <Num_H_Atoms_ProtBoundConf>  (654) 
nan

>  <Num_Resolved_Atoms>  (654) 
nan

>  <Num_Not_Resolved_Atoms>  (654) 
nan

$$$$
CHEMBL2349202
     RDKit          3D

  0  0  0  0  0  0  0  0  0  0999 V3000
M  V30 BEGIN CTAB
M  V30 COUNTS 43 45 0 0 0
M  V30 BEGIN ATOM
M  V30 1 C 3.367346 -2.378064 5.452440 0
M  V30 2 C 3.163302 -2.425053 3.926087 0
M  V30 3 C 4.150868 -1.572456 3.228101 0
M  V30 4 C 4.075717 -1.562166 1.714216 0
M  V30 5 C 4.281944 -2.869185 1.093452 0
M  V30 6 O 3.710096 -3.579690 0.230077 0
M  V30 7 O 5.434286 -3.492943 1.607145 0
M  V30 8 N 2.886797 -0.906231 1.199775 0
M  V30 9 C 2.889034 0.397493 0.569610 0
M  V30 10 O 3.896603 1.170614 0.390332 0
M  V30 11 C 1.605898 0.876270 0.089674 0
M  V30 12 C 1.227455 1.706625 -0.835344 0
M  V30 13 C -0.217508 1.952648 -1.042816 0
M  V30 14 C -0.877293 3.118763 -1.376944 0
M  V30 15 C -2.211637 2.738453 -1.430762 0
M  V30 16 C -2.310172 1.395121 -1.136231 0
M  V30 17 C -3.522560 0.586695 -1.080181 0
M  V30 18 C -3.486964 -0.735691 -0.769398 0
M  V30 19 C -4.671713 -1.467090 -0.730415 0
M  V30 20 C -5.890421 -0.852849 -1.007400 0
M  V30 21 Cl -7.384335 -1.787812 -0.955586 0
M  V30 22 C -5.962691 0.492488 -1.327447 0
M  V30 23 Cl -7.468773 1.305892 -1.682065 0
M  V30 24 C -4.752125 1.149525 -1.346308 0
M  V30 25 O -1.088598 0.982477 -0.914142 0
M  V30 26 S 0.471591 -0.040461 1.179921 0
M  V30 27 C 1.564741 -1.491441 1.224362 0
M  V30 28 S 1.122750 -3.065888 1.256297 0
M  V30 29 H 4.420241 -2.618443 5.717431 0
M  V30 30 H 2.738835 -3.125386 5.953672 0
M  V30 31 H 3.064601 -1.394268 5.856796 0
M  V30 32 H 3.146072 -3.491749 3.647666 0
M  V30 33 H 2.135137 -2.007950 3.768846 0
M  V30 34 H 3.937616 -0.507918 3.533449 0
M  V30 35 H 5.199039 -1.792761 3.496161 0
M  V30 36 H 4.920497 -0.846239 1.438283 0
M  V30 37 H 5.840216 -4.331770 1.197799 0
M  V30 38 H 2.018495 2.173374 -1.406637 0
M  V30 39 H -0.375812 4.061982 -1.538066 0
M  V30 40 H -3.009568 3.426421 -1.670207 0
M  V30 41 H -2.565490 -1.250914 -0.548179 0
M  V30 42 H -4.732424 -2.527525 -0.491208 0
M  V30 43 H -4.766126 2.207720 -1.593467 0
M  V30 END ATOM
M  V30 BEGIN BOND
M  V30 1 1 1 2
M  V30 2 1 2 3
M  V30 3 1 3 4
M  V30 4 1 4 5
M  V30 5 2 5 6
M  V30 6 1 5 7
M  V30 7 1 4 8
M  V30 8 1 8 9
M  V30 9 2 9 10
M  V30 10 1 9 11
M  V30 11 2 11 12
M  V30 12 1 12 13
M  V30 13 2 13 14
M  V30 14 1 14 15
M  V30 15 2 15 16
M  V30 16 1 16 17
M  V30 17 2 17 18
M  V30 18 1 18 19
M  V30 19 2 19 20
M  V30 20 1 20 21
M  V30 21 1 20 22
M  V30 22 1 22 23
M  V30 23 2 22 24
M  V30 24 1 16 25
M  V30 25 1 11 26
M  V30 26 1 26 27
M  V30 27 2 27 28
M  V30 28 1 27 8
M  V30 29 1 25 13
M  V30 30 1 24 17
M  V30 31 1 1 29
M  V30 32 1 1 30
M  V30 33 1 1 31
M  V30 34 1 2 32
M  V30 35 1 2 33
M  V30 36 1 3 34
M  V30 37 1 3 35
M  V30 38 1 4 36
M  V30 39 1 7 37
M  V30 40 1 12 38
M  V30 41 1 14 39
M  V30 42 1 15 40
M  V30 43 1 18 41
M  V30 44 1 19 42
M  V30 45 1 24 43
M  V30 END BOND
M  V30 END CTAB
M  END
>  <Dataset>  (655) 
ChEMBL_Kinases

>  <Ligand_Instance>  (655) 
nan

>  <PDB_ID>  (655) 
nan

>  <Standardized_SMILES>  (655) 
CCCC(C(=O)O)N1C(=O)/C(=C/c2ccc(-c3ccc(Cl)c(Cl)c3)o2)SC1=S

>  <Name>  (655) 
nan

>  <Pocket>  (655) 
nan

>  <ATP_Site>  (655) 
nan

>  <Peripheral>  (655) 
nan

>  <Num_H_Atoms_ProtBoundConf>  (655) 
nan

>  <Num_Resolved_Atoms>  (655) 
nan

>  <Num_Not_Resolved_Atoms>  (655) 
nan

$$$$
CHEMBL2349201
     RDKit          3D

  0  0  0  0  0  0  0  0  0  0999 V3000
M  V30 BEGIN CTAB
M  V30 COUNTS 40 42 0 0 0
M  V30 BEGIN ATOM
M  V30 1 O 4.713072 -5.929374 1.588887 0
M  V30 2 C 4.861718 -4.952105 0.815023 0
M  V30 3 O 5.740370 -5.292456 -0.232041 0
M  V30 4 C 4.194648 -3.635885 1.000846 0
M  V30 5 C 2.764660 -3.831585 0.512343 0
M  V30 6 C 2.132943 -4.879234 1.312665 0
M  V30 7 O 1.161915 -4.227912 1.792875 0
M  V30 8 O 1.590109 -5.922849 2.047847 0
M  V30 9 N 2.043557 -2.548179 0.549106 0
M  V30 10 C 1.590564 -1.892714 -0.640080 0
M  V30 11 O 1.769772 -2.336653 -1.826089 0
M  V30 12 C 0.886451 -0.643940 -0.422556 0
M  V30 13 C 0.682219 0.351389 -1.223544 0
M  V30 14 C -0.076261 1.558823 -0.808175 0
M  V30 15 C 0.279800 2.846392 -1.132475 0
M  V30 16 C -0.717125 3.573601 -0.527521 0
M  V30 17 C -1.623177 2.786158 0.123256 0
M  V30 18 C -2.828133 3.001059 0.899426 0
M  V30 19 C -3.354103 4.232817 1.191191 0
M  V30 20 Cl -2.598216 5.691717 0.656554 0
M  V30 21 C -4.489235 4.418082 1.912900 0
M  V30 22 C -5.204658 3.338298 2.413656 0
M  V30 23 C -4.707661 2.097814 2.141290 0
M  V30 24 C -3.555002 1.948351 1.405883 0
M  V30 25 Cl -3.052915 0.281620 1.137864 0
M  V30 26 O -1.168489 1.554956 -0.089035 0
M  V30 27 S 0.356210 -0.786631 1.303350 0
M  V30 28 C 1.735816 -1.877892 1.760745 0
M  V30 29 S 2.400874 -1.997408 3.234033 0
M  V30 30 H 5.562223 -6.099602 -0.846874 0
M  V30 31 H 4.686505 -2.907815 0.293488 0
M  V30 32 H 4.241864 -3.281098 2.044172 0
M  V30 33 H 2.877222 -4.198313 -0.532153 0
M  V30 34 H 2.137212 -6.458000 2.700288 0
M  V30 35 H 1.098757 0.268936 -2.241946 0
M  V30 36 H 1.123629 3.154309 -1.709592 0
M  V30 37 H -0.780997 4.645555 -0.560222 0
M  V30 38 H -4.913966 5.388215 2.149037 0
M  V30 39 H -6.107456 3.464565 2.989300 0
M  V30 40 H -5.251237 1.248540 2.522104 0
M  V30 END ATOM
M  V30 BEGIN BOND
M  V30 1 2 1 2
M  V30 2 1 2 3
M  V30 3 1 2 4
M  V30 4 1 4 5
M  V30 5 1 5 6
M  V30 6 2 6 7
M  V30 7 1 6 8
M  V30 8 1 5 9
M  V30 9 1 9 10
M  V30 10 2 10 11
M  V30 11 1 10 12
M  V30 12 2 12 13
M  V30 13 1 13 14
M  V30 14 2 14 15
M  V30 15 1 15 16
M  V30 16 2 16 17
M  V30 17 1 17 18
M  V30 18 2 18 19
M  V30 19 1 19 20
M  V30 20 1 19 21
M  V30 21 2 21 22
M  V30 22 1 22 23
M  V30 23 2 23 24
M  V30 24 1 24 25
M  V30 25 1 17 26
M  V30 26 1 12 27
M  V30 27 1 27 28
M  V30 28 2 28 29
M  V30 29 1 28 9
M  V30 30 1 26 14
M  V30 31 1 24 18
M  V30 32 1 3 30
M  V30 33 1 4 31
M  V30 34 1 4 32
M  V30 35 1 5 33
M  V30 36 1 8 34
M  V30 37 1 13 35
M  V30 38 1 15 36
M  V30 39 1 16 37
M  V30 40 1 21 38
M  V30 41 1 22 39
M  V30 42 1 23 40
M  V30 END BOND
M  V30 END CTAB
M  END
>  <Dataset>  (656) 
ChEMBL_Kinases

>  <Ligand_Instance>  (656) 
nan

>  <PDB_ID>  (656) 
nan

>  <Standardized_SMILES>  (656) 
O=C(O)CC(C(=O)O)N1C(=O)/C(=C/c2ccc(-c3c(Cl)cccc3Cl)o2)SC1=S

>  <Name>  (656) 
nan

>  <Pocket>  (656) 
nan

>  <ATP_Site>  (656) 
nan

>  <Peripheral>  (656) 
nan

>  <Num_H_Atoms_ProtBoundConf>  (656) 
nan

>  <Num_Resolved_Atoms>  (656) 
nan

>  <Num_Not_Resolved_Atoms>  (656) 
nan

$$$$
CHEMBL2349092
     RDKit          3D

  0  0  0  0  0  0  0  0  0  0999 V3000
M  V30 BEGIN CTAB
M  V30 COUNTS 39 42 0 0 0
M  V30 BEGIN ATOM
M  V30 1 O 1.626441 1.107215 3.458414 0
M  V30 2 S 1.443673 1.706471 2.099044 0
M  V30 3 O 1.815673 3.144553 2.038164 0
M  V30 4 C 2.339018 0.759681 0.906398 0
M  V30 5 C 2.608865 -0.566738 1.179558 0
M  V30 6 C 3.311287 -1.375104 0.283753 0
M  V30 7 C 3.750802 -0.822690 -0.919790 0
M  V30 8 C 3.469016 0.507851 -1.171878 0
M  V30 9 C 3.913449 1.161565 -2.446715 0
M  V30 10 F 2.902473 2.050829 -2.825819 0
M  V30 11 F 4.079534 0.230384 -3.445448 0
M  V30 12 F 5.057945 1.871696 -2.169797 0
M  V30 13 C 2.767921 1.315959 -0.278539 0
M  V30 14 C -0.247539 1.496983 1.661420 0
M  V30 15 C -1.037436 2.598502 1.323778 0
M  V30 16 C -2.363181 2.417616 0.982558 0
M  V30 17 C -2.874669 1.134968 0.985645 0
M  V30 18 N -4.122821 0.694787 0.694389 0
M  V30 19 N -4.140279 -0.617144 0.835385 0
M  V30 20 C -2.913994 -0.990669 1.211081 0
M  V30 21 C -2.354057 -2.325675 1.511995 0
M  V30 22 C -1.386637 -2.793150 0.663253 0
M  V30 23 C -0.855088 -4.046897 0.938807 0
M  V30 24 C -1.276608 -4.803569 2.023317 0
M  V30 25 C -2.262294 -4.273247 2.847882 0
M  V30 26 C -2.818501 -3.022658 2.605178 0
M  V30 27 N -2.089033 0.068830 1.318198 0
M  V30 28 N -0.826860 0.305554 1.635888 0
M  V30 29 H 2.290057 -1.058376 2.107858 0
M  V30 30 H 3.528987 -2.424901 0.491787 0
M  V30 31 H 4.301693 -1.396870 -1.658692 0
M  V30 32 H 2.551617 2.354105 -0.482241 0
M  V30 33 H -0.521130 3.568250 1.356767 0
M  V30 34 H -2.931154 3.304391 0.729254 0
M  V30 35 H -1.010008 -2.253425 -0.204292 0
M  V30 36 H -0.083291 -4.444976 0.280432 0
M  V30 37 H -0.846494 -5.790325 2.225620 0
M  V30 38 H -2.613633 -4.835986 3.701257 0
M  V30 39 H -3.596776 -2.598598 3.252247 0
M  V30 END ATOM
M  V30 BEGIN BOND
M  V30 1 2 1 2
M  V30 2 2 2 3
M  V30 3 1 2 4
M  V30 4 2 4 5
M  V30 5 1 5 6
M  V30 6 2 6 7
M  V30 7 1 7 8
M  V30 8 1 8 9
M  V30 9 1 9 10
M  V30 10 1 9 11
M  V30 11 1 9 12
M  V30 12 2 8 13
M  V30 13 1 2 14
M  V30 14 1 14 15
M  V30 15 2 15 16
M  V30 16 1 16 17
M  V30 17 2 17 18
M  V30 18 1 18 19
M  V30 19 2 19 20
M  V30 20 1 20 21
M  V30 21 2 21 22
M  V30 22 1 22 23
M  V30 23 2 23 24
M  V30 24 1 24 25
M  V30 25 2 25 26
M  V30 26 1 20 27
M  V30 27 1 27 28
M  V30 28 1 13 4
M  V30 29 2 28 14
M  V30 30 1 27 17
M  V30 31 1 26 21
M  V30 32 1 5 29
M  V30 33 1 6 30
M  V30 34 1 7 31
M  V30 35 1 13 32
M  V30 36 1 15 33
M  V30 37 1 16 34
M  V30 38 1 22 35
M  V30 39 1 23 36
M  V30 40 1 24 37
M  V30 41 1 25 38
M  V30 42 1 26 39
M  V30 END BOND
M  V30 END CTAB
M  END
>  <Dataset>  (657) 
ChEMBL_Kinases

>  <Ligand_Instance>  (657) 
nan

>  <PDB_ID>  (657) 
nan

>  <Standardized_SMILES>  (657) 
O=S(=O)(c1cccc(C(F)(F)F)c1)c1ccc2nnc(-c3ccccc3)n2n1

>  <Name>  (657) 
nan

>  <Pocket>  (657) 
nan

>  <ATP_Site>  (657) 
nan

>  <Peripheral>  (657) 
nan

>  <Num_H_Atoms_ProtBoundConf>  (657) 
nan

>  <Num_Resolved_Atoms>  (657) 
nan

>  <Num_Not_Resolved_Atoms>  (657) 
nan

$$$$
CHEMBL2349091
     RDKit          3D

  0  0  0  0  0  0  0  0  0  0999 V3000
M  V30 BEGIN CTAB
M  V30 COUNTS 38 41 0 0 0
M  V30 BEGIN ATOM
M  V30 1 O 1.666724 -3.114157 -0.707495 0 CHG=-1 VAL=1
M  V30 2 S 1.521212 -1.578593 -0.139414 0 CHG=1 VAL=3
M  V30 3 C 2.931619 -0.606381 -0.178839 0
M  V30 4 C 3.664361 -0.684186 1.014335 0
M  V30 5 C 4.849178 0.026438 1.197089 0
M  V30 6 C 5.338945 0.835087 0.197462 0
M  V30 7 C 4.621413 0.910660 -0.969774 0
M  V30 8 C 5.104970 1.767243 -2.078167 0
M  V30 9 F 4.915420 3.097724 -1.719647 0
M  V30 10 F 4.446216 1.497344 -3.259688 0
M  V30 11 F 6.451065 1.546760 -2.303575 0
M  V30 12 C 3.448869 0.212313 -1.161007 0
M  V30 13 C 0.039724 -0.771400 -0.531026 0
M  V30 14 C -0.318671 -0.013707 -1.624070 0
M  V30 15 C -1.576679 0.539591 -1.715901 0
M  V30 16 C -2.474293 0.321540 -0.692024 0
M  V30 17 N -3.754623 0.743681 -0.534930 0
M  V30 18 N -4.196135 0.260224 0.637408 0
M  V30 19 C -3.202985 -0.442929 1.183397 0
M  V30 20 C -3.302213 -1.126776 2.469343 0
M  V30 21 C -2.636924 -0.868479 3.643219 0
M  V30 22 C -2.894689 -1.657022 4.747169 0
M  V30 23 C -3.803990 -2.694305 4.691963 0
M  V30 24 C -4.487053 -2.975315 3.522525 0
M  V30 25 C -4.222839 -2.179391 2.418914 0
M  V30 26 N -2.117957 -0.418395 0.370724 0
M  V30 27 N -0.890801 -0.951740 0.449051 0
M  V30 28 H 3.404659 -1.283620 1.900716 0
M  V30 29 H 5.431025 -0.014926 2.101921 0
M  V30 30 H 6.250286 1.404754 0.289960 0
M  V30 31 H 2.845488 0.224297 -2.039293 0
M  V30 32 H 0.489254 0.062817 -2.336503 0
M  V30 33 H -1.783958 1.121562 -2.603499 0
M  V30 34 H -1.953408 -0.039561 3.573334 0
M  V30 35 H -2.337950 -1.406141 5.650865 0
M  V30 36 H -3.994771 -3.302688 5.565080 0
M  V30 37 H -5.191097 -3.791937 3.510312 0
M  V30 38 H -4.804674 -2.471518 1.542245 0
M  V30 END ATOM
M  V30 BEGIN BOND
M  V30 1 1 1 2
M  V30 2 1 2 3
M  V30 3 2 3 4
M  V30 4 1 4 5
M  V30 5 2 5 6
M  V30 6 1 6 7
M  V30 7 1 7 8
M  V30 8 1 8 9
M  V30 9 1 8 10
M  V30 10 1 8 11
M  V30 11 2 7 12
M  V30 12 1 2 13
M  V30 13 1 13 14
M  V30 14 2 14 15
M  V30 15 1 15 16
M  V30 16 2 16 17
M  V30 17 1 17 18
M  V30 18 2 18 19
M  V30 19 1 19 20
M  V30 20 2 20 21
M  V30 21 1 21 22
M  V30 22 2 22 23
M  V30 23 1 23 24
M  V30 24 2 24 25
M  V30 25 1 19 26
M  V30 26 1 26 27
M  V30 27 1 12 3
M  V30 28 2 27 13
M  V30 29 1 26 16
M  V30 30 1 25 20
M  V30 31 1 4 28
M  V30 32 1 5 29
M  V30 33 1 6 30
M  V30 34 1 12 31
M  V30 35 1 14 32
M  V30 36 1 15 33
M  V30 37 1 21 34
M  V30 38 1 22 35
M  V30 39 1 23 36
M  V30 40 1 24 37
M  V30 41 1 25 38
M  V30 END BOND
M  V30 END CTAB
M  END
>  <Dataset>  (658) 
ChEMBL_Kinases

>  <Ligand_Instance>  (658) 
nan

>  <PDB_ID>  (658) 
nan

>  <Standardized_SMILES>  (658) 
[O-][S+](c1cccc(C(F)(F)F)c1)c1ccc2nnc(-c3ccccc3)n2n1

>  <Name>  (658) 
nan

>  <Pocket>  (658) 
nan

>  <ATP_Site>  (658) 
nan

>  <Peripheral>  (658) 
nan

>  <Num_H_Atoms_ProtBoundConf>  (658) 
nan

>  <Num_Resolved_Atoms>  (658) 
nan

>  <Num_Not_Resolved_Atoms>  (658) 
nan

$$$$
CHEMBL2349089
     RDKit          3D

  0  0  0  0  0  0  0  0  0  0999 V3000
M  V30 BEGIN CTAB
M  V30 COUNTS 38 41 0 0 0
M  V30 BEGIN ATOM
M  V30 1 O 1.704624 3.432576 0.420050 0
M  V30 2 C 1.239240 2.279398 0.501710 0
M  V30 3 C 2.212732 1.204593 0.589103 0
M  V30 4 C 3.471736 1.469185 1.103054 0
M  V30 5 C 4.419496 0.460354 1.195758 0
M  V30 6 C 4.148874 -0.822146 0.786766 0
M  V30 7 C 2.887623 -1.125656 0.262481 0
M  V30 8 C 2.543540 -2.498333 -0.194288 0
M  V30 9 F 1.501708 -2.413372 -1.127955 0
M  V30 10 F 2.192505 -3.320928 0.859663 0
M  V30 11 F 3.657590 -2.999743 -0.863722 0
M  V30 12 C 1.979286 -0.092857 0.189716 0
M  V30 13 C -0.201980 2.119444 0.502062 0
M  V30 14 C -0.996259 3.232407 0.401434 0
M  V30 15 C -2.369326 3.034002 0.407647 0
M  V30 16 C -2.908999 1.747368 0.512534 0
M  V30 17 N -4.145143 1.218359 0.548142 0
M  V30 18 N -4.079153 -0.097691 0.660289 0
M  V30 19 C -2.784408 -0.471428 0.701880 0
M  V30 20 C -2.118471 -1.785253 0.819681 0
M  V30 21 C -1.940151 -2.148042 2.157380 0
M  V30 22 C -1.327592 -3.355437 2.456612 0
M  V30 23 C -0.888809 -4.209347 1.450212 0
M  V30 24 C -1.089239 -3.803046 0.147400 0
M  V30 25 C -1.692637 -2.613155 -0.200887 0
M  V30 26 N -2.086007 0.698011 0.608014 0
M  V30 27 N -0.794399 0.922338 0.599183 0
M  V30 28 H 3.781708 2.448973 1.451956 0
M  V30 29 H 5.421664 0.629088 1.595336 0
M  V30 30 H 4.855563 -1.658639 0.835708 0
M  V30 31 H 1.029420 -0.351834 -0.213677 0
M  V30 32 H -0.630770 4.259572 0.317040 0
M  V30 33 H -3.060548 3.863358 0.332073 0
M  V30 34 H -2.237826 -1.570364 3.021696 0
M  V30 35 H -1.165772 -3.683024 3.481525 0
M  V30 36 H -0.401496 -5.168601 1.638386 0
M  V30 37 H -0.771333 -4.420875 -0.689391 0
M  V30 38 H -1.882272 -2.230386 -1.182389 0
M  V30 END ATOM
M  V30 BEGIN BOND
M  V30 1 2 1 2
M  V30 2 1 2 3
M  V30 3 2 3 4
M  V30 4 1 4 5
M  V30 5 2 5 6
M  V30 6 1 6 7
M  V30 7 1 7 8
M  V30 8 1 8 9
M  V30 9 1 8 10
M  V30 10 1 8 11
M  V30 11 2 7 12
M  V30 12 1 2 13
M  V30 13 1 13 14
M  V30 14 2 14 15
M  V30 15 1 15 16
M  V30 16 2 16 17
M  V30 17 1 17 18
M  V30 18 2 18 19
M  V30 19 1 19 20
M  V30 20 2 20 21
M  V30 21 1 21 22
M  V30 22 2 22 23
M  V30 23 1 23 24
M  V30 24 2 24 25
M  V30 25 1 19 26
M  V30 26 1 26 27
M  V30 27 1 12 3
M  V30 28 2 27 13
M  V30 29 1 26 16
M  V30 30 1 25 20
M  V30 31 1 4 28
M  V30 32 1 5 29
M  V30 33 1 6 30
M  V30 34 1 12 31
M  V30 35 1 14 32
M  V30 36 1 15 33
M  V30 37 1 21 34
M  V30 38 1 22 35
M  V30 39 1 23 36
M  V30 40 1 24 37
M  V30 41 1 25 38
M  V30 END BOND
M  V30 END CTAB
M  END
>  <Dataset>  (659) 
ChEMBL_Kinases

>  <Ligand_Instance>  (659) 
nan

>  <PDB_ID>  (659) 
nan

>  <Standardized_SMILES>  (659) 
O=C(c1cccc(C(F)(F)F)c1)c1ccc2nnc(-c3ccccc3)n2n1

>  <Name>  (659) 
nan

>  <Pocket>  (659) 
nan

>  <ATP_Site>  (659) 
nan

>  <Peripheral>  (659) 
nan

>  <Num_H_Atoms_ProtBoundConf>  (659) 
nan

>  <Num_Resolved_Atoms>  (659) 
nan

>  <Num_Not_Resolved_Atoms>  (659) 
nan

$$$$
CHEMBL2349082
     RDKit          3D

  0  0  0  0  0  0  0  0  0  0999 V3000
M  V30 BEGIN CTAB
M  V30 COUNTS 107 107 0 0 0
M  V30 BEGIN ATOM
M  V30 1 C 1.007785 -2.529998 4.331580 0
M  V30 2 C 1.455419 -3.952253 4.225357 0
M  V30 3 C 0.564324 -4.828592 3.393835 0
M  V30 4 C 0.451494 -4.377601 1.978085 0
M  V30 5 C 1.783702 -4.334308 1.266018 0
M  V30 6 C 1.499601 -3.932148 -0.184760 0
M  V30 7 C 2.750384 -3.881670 -0.988527 0
M  V30 8 C 3.766820 -2.874475 -0.607551 0
M  V30 9 C 3.311325 -1.437803 -0.797896 0
M  V30 10 C 4.418392 -0.519294 -0.399627 0
M  V30 11 C 4.179687 0.908386 -0.641177 0
M  V30 12 C 3.003518 1.568813 0.038299 0
M  V30 13 C 3.046044 2.993757 -0.446342 0
M  V30 14 C 2.055211 3.952751 -0.003521 0
M  V30 15 C 0.612289 3.812281 -0.166642 0
M  V30 16 C 0.003700 3.611226 -1.515625 0
M  V30 17 C 0.312699 2.293297 -2.171451 0
M  V30 18 C -0.262694 2.071289 -3.505441 0
M  V30 19 C -1.664085 2.132331 -3.812880 0
M  V30 20 C -2.791205 1.413833 -3.304500 0
M  V30 21 C -2.998037 -0.032303 -3.297156 0 CFG=1
M  V30 22 C -4.394974 -0.361017 -2.753417 0
M  V30 23 O -5.574620 -0.376065 -2.287053 0
M  V30 24 O -4.650750 -1.720442 -2.690439 0
M  V30 25 C -5.828214 -2.302959 -2.239909 0
M  V30 26 C -5.637411 -3.821076 -2.359672 0
M  V30 27 C -2.814689 -0.855998 -4.478675 0
M  V30 28 C -1.899786 -2.013720 -4.123551 0
M  V30 29 C -1.132723 -1.481594 -2.932725 0
M  V30 30 C -2.113789 -0.649913 -2.174680 0 CFG=2
M  V30 31 O -2.863874 -1.406375 -1.287020 0
M  V30 32 P -2.970614 -0.756521 0.243517 0
M  V30 33 O -3.235413 -1.866415 1.280010 0
M  V30 34 O -4.334099 0.279513 0.421749 0 CHG=-1 VAL=1
M  V30 35 O -1.658048 0.180641 0.728916 0
M  V30 36 C -0.921590 -0.377681 1.750559 0
M  V30 37 C -0.241410 0.611489 2.659990 0
M  V30 38 N -1.120966 1.496506 3.340707 0 CHG=1 VAL=4
M  V30 39 C -2.529764 1.236899 3.125042 0
M  V30 40 C -0.832285 2.894978 3.120645 0
M  V30 41 C -0.920063 1.292554 4.789250 0
M  V30 42 H 1.819760 -1.784551 4.111468 0
M  V30 43 H 0.149403 -2.293778 3.672995 0
M  V30 44 H 0.687847 -2.272185 5.377838 0
M  V30 45 H 2.468209 -3.929320 3.725636 0
M  V30 46 H 1.585160 -4.425546 5.242153 0
M  V30 47 H -0.470189 -4.706482 3.837291 0
M  V30 48 H 0.822777 -5.900702 3.480193 0
M  V30 49 H 0.036694 -3.357654 1.952986 0
M  V30 50 H -0.241193 -4.998404 1.374556 0
M  V30 51 H 2.450934 -3.541687 1.708295 0
M  V30 52 H 2.338844 -5.280087 1.315676 0
M  V30 53 H 0.718001 -4.542679 -0.634324 0
M  V30 54 H 1.107379 -2.893910 -0.107890 0
M  V30 55 H 3.238753 -4.873759 -1.109302 0
M  V30 56 H 2.425613 -3.624019 -2.043738 0
M  V30 57 H 4.125945 -3.040045 0.438764 0
M  V30 58 H 4.640738 -3.008679 -1.276646 0
M  V30 59 H 3.128118 -1.319554 -1.888741 0
M  V30 60 H 2.404570 -1.196374 -0.245473 0
M  V30 61 H 4.622260 -0.677432 0.684935 0
M  V30 62 H 5.349160 -0.874288 -0.935916 0
M  V30 63 H 4.110741 1.180473 -1.727409 0
M  V30 64 H 5.081559 1.487501 -0.256832 0
M  V30 65 H 2.056325 1.053125 -0.079591 0
M  V30 66 H 3.246286 1.547929 1.140653 0
M  V30 67 H 4.048859 3.373596 0.046239 0
M  V30 68 H 3.368009 3.032078 -1.512849 0
M  V30 69 H 2.236381 4.144064 1.112124 0
M  V30 70 H 2.391119 4.970963 -0.442558 0
M  V30 71 H 0.144794 4.769557 0.259499 0
M  V30 72 H 0.227124 2.956990 0.457169 0
M  V30 73 H 0.371093 4.477372 -2.143365 0
M  V30 74 H -1.111548 3.799168 -1.489076 0
M  V30 75 H 1.440012 2.275204 -2.292278 0
M  V30 76 H 0.150915 1.517266 -1.401546 0
M  V30 77 H 0.242884 2.902415 -4.139842 0
M  V30 78 H 0.300563 1.189948 -3.962120 0
M  V30 79 H -1.728544 2.114703 -4.978407 0
M  V30 80 H -1.951261 3.258686 -3.695665 0
M  V30 81 H -3.708594 1.822961 -3.868478 0
M  V30 82 H -3.054945 1.839319 -2.268398 0
M  V30 83 H -5.962452 -2.136683 -1.140248 0
M  V30 84 H -6.735610 -2.082923 -2.833708 0
M  V30 85 H -4.562321 -4.081194 -2.263184 0
M  V30 86 H -6.002410 -4.218093 -3.311135 0
M  V30 87 H -6.183262 -4.348028 -1.540687 0
M  V30 88 H -3.741519 -1.366581 -4.880282 0
M  V30 89 H -2.378149 -0.386044 -5.372127 0
M  V30 90 H -2.504891 -2.897215 -3.776250 0
M  V30 91 H -1.211536 -2.277096 -4.947475 0
M  V30 92 H -0.230683 -0.958626 -3.224832 0
M  V30 93 H -0.813929 -2.389609 -2.363912 0
M  V30 94 H -1.689559 0.160295 -1.566169 0
M  V30 95 H -1.513864 -1.146533 2.316275 0
M  V30 96 H -0.097661 -0.973885 1.271540 0
M  V30 97 H 0.378162 0.067294 3.372514 0
M  V30 98 H 0.439455 1.204710 2.002673 0
M  V30 99 H -2.795589 0.187130 3.217596 0
M  V30 100 H -3.111417 1.758479 3.941567 0
M  V30 101 H -2.836900 1.738783 2.189888 0
M  V30 102 H 0.239382 3.000092 2.860177 0
M  V30 103 H -1.497863 3.322027 2.348788 0
M  V30 104 H -0.993065 3.520719 4.035288 0
M  V30 105 H -1.196795 2.185771 5.371522 0
M  V30 106 H 0.165785 1.060372 4.932454 0
M  V30 107 H -1.478108 0.394748 5.121096 0
M  V30 END ATOM
M  V30 BEGIN BOND
M  V30 1 1 1 2
M  V30 2 1 2 3
M  V30 3 1 3 4
M  V30 4 1 4 5
M  V30 5 1 5 6
M  V30 6 1 6 7
M  V30 7 1 7 8
M  V30 8 1 8 9
M  V30 9 1 9 10
M  V30 10 1 10 11
M  V30 11 1 11 12
M  V30 12 1 12 13
M  V30 13 1 13 14
M  V30 14 1 14 15
M  V30 15 1 15 16
M  V30 16 1 16 17
M  V30 17 1 17 18
M  V30 18 1 18 19
M  V30 19 1 19 20
M  V30 20 1 21 20 CFG=3
M  V30 21 1 21 22
M  V30 22 2 22 23
M  V30 23 1 22 24
M  V30 24 1 24 25
M  V30 25 1 25 26
M  V30 26 1 21 27
M  V30 27 1 27 28
M  V30 28 1 28 29
M  V30 29 1 29 30
M  V30 30 1 30 31
M  V30 31 1 31 32
M  V30 32 2 32 33
M  V30 33 1 32 34
M  V30 34 1 32 35
M  V30 35 1 35 36
M  V30 36 1 36 37
M  V30 37 1 37 38
M  V30 38 1 38 39
M  V30 39 1 38 40
M  V30 40 1 38 41
M  V30 41 1 30 21
M  V30 42 1 1 42
M  V30 43 1 1 43
M  V30 44 1 1 44
M  V30 45 1 2 45
M  V30 46 1 2 46
M  V30 47 1 3 47
M  V30 48 1 3 48
M  V30 49 1 4 49
M  V30 50 1 4 50
M  V30 51 1 5 51
M  V30 52 1 5 52
M  V30 53 1 6 53
M  V30 54 1 6 54
M  V30 55 1 7 55
M  V30 56 1 7 56
M  V30 57 1 8 57
M  V30 58 1 8 58
M  V30 59 1 9 59
M  V30 60 1 9 60
M  V30 61 1 10 61
M  V30 62 1 10 62
M  V30 63 1 11 63
M  V30 64 1 11 64
M  V30 65 1 12 65
M  V30 66 1 12 66
M  V30 67 1 13 67
M  V30 68 1 13 68
M  V30 69 1 14 69
M  V30 70 1 14 70
M  V30 71 1 15 71
M  V30 72 1 15 72
M  V30 73 1 16 73
M  V30 74 1 16 74
M  V30 75 1 17 75
M  V30 76 1 17 76
M  V30 77 1 18 77
M  V30 78 1 18 78
M  V30 79 1 19 79
M  V30 80 1 19 80
M  V30 81 1 20 81
M  V30 82 1 20 82
M  V30 83 1 25 83
M  V30 84 1 25 84
M  V30 85 1 26 85
M  V30 86 1 26 86
M  V30 87 1 26 87
M  V30 88 1 27 88
M  V30 89 1 27 89
M  V30 90 1 28 90
M  V30 91 1 28 91
M  V30 92 1 29 92
M  V30 93 1 29 93
M  V30 94 1 30 94 CFG=1
M  V30 95 1 36 95
M  V30 96 1 36 96
M  V30 97 1 37 97
M  V30 98 1 37 98
M  V30 99 1 39 99
M  V30 100 1 39 100
M  V30 101 1 39 101
M  V30 102 1 40 102
M  V30 103 1 40 103
M  V30 104 1 40 104
M  V30 105 1 41 105
M  V30 106 1 41 106
M  V30 107 1 41 107
M  V30 END BOND
M  V30 END CTAB
M  END
>  <Dataset>  (660) 
ChEMBL_Kinases

>  <Ligand_Instance>  (660) 
nan

>  <PDB_ID>  (660) 
nan

>  <Standardized_SMILES>  (660) 
CCCCCCCCCCCCCCCCCCCC[C@@]1(C(=O)OCC)CCC[C@@H]1OP(=O)([O-])OCC[N+](C)(C)C

>  <Name>  (660) 
nan

>  <Pocket>  (660) 
nan

>  <ATP_Site>  (660) 
nan

>  <Peripheral>  (660) 
nan

>  <Num_H_Atoms_ProtBoundConf>  (660) 
nan

>  <Num_Resolved_Atoms>  (660) 
nan

>  <Num_Not_Resolved_Atoms>  (660) 
nan

$$$$
CHEMBL2348971
     RDKit          3D

  0  0  0  0  0  0  0  0  0  0999 V3000
M  V30 BEGIN CTAB
M  V30 COUNTS 31 33 0 0 0
M  V30 BEGIN ATOM
M  V30 1 C -2.492800 -3.180356 2.054897 0
M  V30 2 C -1.027567 -3.537520 2.132691 0
M  V30 3 S -0.084183 -1.991278 2.164841 0
M  V30 4 C -0.211836 -1.078639 0.659291 0
M  V30 5 C -0.920071 -1.394375 -0.489706 0
M  V30 6 C -0.898635 -0.546274 -1.579322 0
M  V30 7 C -0.153339 0.611444 -1.477545 0
M  V30 8 N -0.004322 1.572547 -2.437220 0
M  V30 9 N 0.803280 2.496613 -1.885154 0
M  V30 10 C 1.115369 2.086962 -0.641875 0
M  V30 11 C 1.984723 2.818253 0.309854 0
M  V30 12 C 3.171262 2.391851 0.882710 0
M  V30 13 C 3.846376 3.203122 1.746062 0
M  V30 14 C 3.362693 4.485865 2.078095 0
M  V30 15 S 1.760714 4.555774 1.046614 0
M  V30 16 N 0.538316 0.911320 -0.344507 0
M  V30 17 N 0.488472 0.068337 0.675722 0
M  V30 18 C -0.603652 -4.429842 1.024626 0
M  V30 19 N -1.364368 -5.606985 1.092292 0
M  V30 20 O 0.225542 -4.447976 0.051045 0
M  V30 21 H -2.956582 -3.297590 3.072578 0
M  V30 22 H -3.063552 -3.882257 1.416010 0
M  V30 23 H -2.575924 -2.145965 1.682373 0
M  V30 24 H -0.800048 -4.089374 3.092770 0
M  V30 25 H -1.455236 -2.331610 -0.421848 0
M  V30 26 H -1.470852 -0.854198 -2.436498 0
M  V30 27 H 3.533128 1.410694 0.623804 0
M  V30 28 H 4.774794 2.947937 2.234616 0
M  V30 29 H 3.688425 5.237733 2.679350 0
M  V30 30 H -1.813194 -6.511711 1.241226 0
M  V30 31 H -2.242298 -5.996813 0.667671 0
M  V30 END ATOM
M  V30 BEGIN BOND
M  V30 1 1 1 2
M  V30 2 1 2 3
M  V30 3 1 3 4
M  V30 4 1 4 5
M  V30 5 2 5 6
M  V30 6 1 6 7
M  V30 7 2 7 8
M  V30 8 1 8 9
M  V30 9 2 9 10
M  V30 10 1 10 11
M  V30 11 2 11 12
M  V30 12 1 12 13
M  V30 13 2 13 14
M  V30 14 1 14 15
M  V30 15 1 10 16
M  V30 16 1 16 17
M  V30 17 1 2 18
M  V30 18 1 18 19
M  V30 19 2 18 20
M  V30 20 2 17 4
M  V30 21 1 16 7
M  V30 22 1 15 11
M  V30 23 1 1 21
M  V30 24 1 1 22
M  V30 25 1 1 23
M  V30 26 1 2 24
M  V30 27 1 5 25
M  V30 28 1 6 26
M  V30 29 1 12 27
M  V30 30 1 13 28
M  V30 31 1 14 29
M  V30 32 1 19 30
M  V30 33 1 19 31
M  V30 END BOND
M  V30 END CTAB
M  END
>  <Dataset>  (661) 
ChEMBL_Kinases

>  <Ligand_Instance>  (661) 
nan

>  <PDB_ID>  (661) 
nan

>  <Standardized_SMILES>  (661) 
CC(Sc1ccc2nnc(-c3cccs3)n2n1)C(N)=O

>  <Name>  (661) 
nan

>  <Pocket>  (661) 
nan

>  <ATP_Site>  (661) 
nan

>  <Peripheral>  (661) 
nan

>  <Num_H_Atoms_ProtBoundConf>  (661) 
nan

>  <Num_Resolved_Atoms>  (661) 
nan

>  <Num_Not_Resolved_Atoms>  (661) 
nan

$$$$
CHEMBL2348972
     RDKit          3D

  0  0  0  0  0  0  0  0  0  0999 V3000
M  V30 BEGIN CTAB
M  V30 COUNTS 33 35 0 0 0
M  V30 BEGIN ATOM
M  V30 1 C 2.194080 -1.003093 -1.538172 0
M  V30 2 O 1.752757 -1.017498 -0.195019 0
M  V30 3 C 1.908801 -2.106116 0.619484 0
M  V30 4 O 2.483987 -3.055347 -0.016335 0
M  V30 5 C 1.740010 -2.768985 1.928556 0 CFG=2
M  V30 6 C 2.261541 -4.181286 1.886633 0
M  V30 7 S -0.062712 -2.813169 2.242452 0
M  V30 8 C -0.537947 -1.083733 2.452134 0
M  V30 9 C -0.526757 -0.520978 3.727873 0
M  V30 10 C -0.897593 0.825266 3.840287 0
M  V30 11 C -1.247246 1.502901 2.690746 0
M  V30 12 N -1.637006 2.775941 2.494657 0
M  V30 13 N -1.869312 2.981170 1.202209 0
M  V30 14 C -1.625753 1.825972 0.560964 0
M  V30 15 C -1.743737 1.581570 -0.891072 0
M  V30 16 C -2.524407 0.525880 -1.534550 0
M  V30 17 C -2.447064 0.539488 -2.897233 0
M  V30 18 C -1.729636 1.423237 -3.660449 0
M  V30 19 S -0.985367 2.479757 -2.270949 0
M  V30 20 N -1.240423 0.905893 1.474817 0
M  V30 21 N -0.890437 -0.385857 1.324588 0
M  V30 22 H 2.972448 -0.210701 -1.672208 0
M  V30 23 H 1.310742 -0.765232 -2.200295 0
M  V30 24 H 2.636716 -1.961286 -1.874480 0
M  V30 25 H 2.279464 -2.221598 2.740796 0
M  V30 26 H 1.994928 -4.659037 0.912530 0
M  V30 27 H 1.710560 -4.755107 2.670617 0
M  V30 28 H 3.348059 -4.202839 2.102069 0
M  V30 29 H -0.231551 -1.180284 4.530074 0
M  V30 30 H -0.883579 1.249623 4.832921 0
M  V30 31 H -3.095889 -0.180565 -0.960252 0
M  V30 32 H -2.968209 -0.177199 -3.513791 0
M  V30 33 H -1.508489 1.651142 -4.574496 0
M  V30 END ATOM
M  V30 BEGIN BOND
M  V30 1 1 1 2
M  V30 2 1 2 3
M  V30 3 2 3 4
M  V30 4 1 3 5
M  V30 5 1 5 6
M  V30 6 1 5 7
M  V30 7 1 7 8
M  V30 8 1 8 9
M  V30 9 2 9 10
M  V30 10 1 10 11
M  V30 11 2 11 12
M  V30 12 1 12 13
M  V30 13 2 13 14
M  V30 14 1 14 15
M  V30 15 2 15 16
M  V30 16 1 16 17
M  V30 17 2 17 18
M  V30 18 1 18 19
M  V30 19 1 14 20
M  V30 20 1 20 21
M  V30 21 2 21 8
M  V30 22 1 20 11
M  V30 23 1 19 15
M  V30 24 1 1 22
M  V30 25 1 1 23
M  V30 26 1 1 24
M  V30 27 1 5 25 CFG=1
M  V30 28 1 6 26
M  V30 29 1 6 27
M  V30 30 1 6 28
M  V30 31 1 9 29
M  V30 32 1 10 30
M  V30 33 1 16 31
M  V30 34 1 17 32
M  V30 35 1 18 33
M  V30 END BOND
M  V30 END CTAB
M  END
>  <Dataset>  (662) 
ChEMBL_Kinases

>  <Ligand_Instance>  (662) 
nan

>  <PDB_ID>  (662) 
nan

>  <Standardized_SMILES>  (662) 
COC(=O)[C@H](C)Sc1ccc2nnc(-c3cccs3)n2n1

>  <Name>  (662) 
nan

>  <Pocket>  (662) 
nan

>  <ATP_Site>  (662) 
nan

>  <Peripheral>  (662) 
nan

>  <Num_H_Atoms_ProtBoundConf>  (662) 
nan

>  <Num_Resolved_Atoms>  (662) 
nan

>  <Num_Not_Resolved_Atoms>  (662) 
nan

$$$$
CHEMBL2348973
     RDKit          3D

  0  0  0  0  0  0  0  0  0  0999 V3000
M  V30 BEGIN CTAB
M  V30 COUNTS 33 35 0 0 0
M  V30 BEGIN ATOM
M  V30 1 C -0.990852 -1.667768 4.198934 0
M  V30 2 O 0.343127 -1.887911 3.820360 0
M  V30 3 C 0.603945 -2.424659 2.582025 0
M  V30 4 O -0.397221 -2.690647 1.847849 0
M  V30 5 C 1.681763 -2.859192 1.673344 0 CFG=1
M  V30 6 C 1.051262 -3.376052 0.394917 0
M  V30 7 S 2.914694 -1.595405 1.348441 0
M  V30 8 C 2.277678 -0.210179 0.444066 0
M  V30 9 C 3.256438 0.757661 0.201976 0
M  V30 10 C 2.932889 1.924775 -0.500880 0
M  V30 11 C 1.635163 2.084118 -0.939221 0
M  V30 12 N 1.024711 3.081398 -1.630517 0
M  V30 13 N -0.238286 2.704610 -1.777343 0
M  V30 14 C -0.428702 1.507101 -1.199499 0
M  V30 15 C -1.700579 0.778859 -1.163994 0
M  V30 16 C -2.934435 1.024651 -0.736576 0
M  V30 17 C -3.940178 0.120455 -0.842118 0
M  V30 18 C -3.571714 -1.099151 -1.440873 0
M  V30 19 S -1.730434 -0.831125 -1.818036 0
M  V30 20 N 0.739287 1.101226 -0.666894 0
M  V30 21 N 1.019124 -0.004735 -0.008150 0
M  V30 22 H -1.688214 -2.198374 3.505287 0
M  V30 23 H -1.189591 -0.584030 4.147784 0
M  V30 24 H -1.212485 -2.104109 5.213220 0
M  V30 25 H 2.226301 -3.722488 2.139611 0
M  V30 26 H 0.634398 -4.396520 0.568747 0
M  V30 27 H 1.822028 -3.465298 -0.387516 0
M  V30 28 H 0.237271 -2.748938 0.011408 0
M  V30 29 H 4.299788 0.713591 0.510498 0
M  V30 30 H 3.673283 2.693648 -0.704485 0
M  V30 31 H -3.047629 2.019224 -0.296969 0
M  V30 32 H -4.945544 0.318296 -0.495261 0
M  V30 33 H -4.416305 -1.945104 -1.565029 0
M  V30 END ATOM
M  V30 BEGIN BOND
M  V30 1 1 1 2
M  V30 2 1 2 3
M  V30 3 2 3 4
M  V30 4 1 3 5
M  V30 5 1 5 6
M  V30 6 1 5 7
M  V30 7 1 7 8
M  V30 8 1 8 9
M  V30 9 2 9 10
M  V30 10 1 10 11
M  V30 11 2 11 12
M  V30 12 1 12 13
M  V30 13 2 13 14
M  V30 14 1 14 15
M  V30 15 2 15 16
M  V30 16 1 16 17
M  V30 17 2 17 18
M  V30 18 1 18 19
M  V30 19 1 14 20
M  V30 20 1 20 21
M  V30 21 2 21 8
M  V30 22 1 20 11
M  V30 23 1 19 15
M  V30 24 1 1 22
M  V30 25 1 1 23
M  V30 26 1 1 24
M  V30 27 1 5 25 CFG=1
M  V30 28 1 6 26
M  V30 29 1 6 27
M  V30 30 1 6 28
M  V30 31 1 9 29
M  V30 32 1 10 30
M  V30 33 1 16 31
M  V30 34 1 17 32
M  V30 35 1 18 33
M  V30 END BOND
M  V30 END CTAB
M  END
>  <Dataset>  (663) 
ChEMBL_Kinases

>  <Ligand_Instance>  (663) 
nan

>  <PDB_ID>  (663) 
nan

>  <Standardized_SMILES>  (663) 
COC(=O)[C@@H](C)Sc1ccc2nnc(-c3cccs3)n2n1

>  <Name>  (663) 
nan

>  <Pocket>  (663) 
nan

>  <ATP_Site>  (663) 
nan

>  <Peripheral>  (663) 
nan

>  <Num_H_Atoms_ProtBoundConf>  (663) 
nan

>  <Num_Resolved_Atoms>  (663) 
nan

>  <Num_Not_Resolved_Atoms>  (663) 
nan

$$$$
CHEMBL2348974
     RDKit          3D

  0  0  0  0  0  0  0  0  0  0999 V3000
M  V30 BEGIN CTAB
M  V30 COUNTS 36 38 0 0 0
M  V30 BEGIN ATOM
M  V30 1 C -2.363534 -3.251037 0.631049 0
M  V30 2 C -0.866512 -3.287865 0.417948 0
M  V30 3 C -0.094988 -3.118848 1.717861 0
M  V30 4 S 1.685717 -3.176152 1.378811 0
M  V30 5 C 2.246663 -1.766074 0.450072 0
M  V30 6 C 3.610814 -1.815339 0.133315 0
M  V30 7 C 4.167639 -0.754084 -0.583930 0
M  V30 8 C 3.354899 0.324950 -0.965747 0
M  V30 9 N 3.644347 1.456255 -1.650620 0
M  V30 10 N 2.502532 2.161962 -1.744284 0
M  V30 11 C 1.535249 1.436162 -1.108471 0
M  V30 12 C 0.182587 1.930447 -1.029231 0
M  V30 13 C -1.024148 1.919114 -1.619991 0
M  V30 14 C -2.090438 2.612169 -1.112060 0
M  V30 15 C -1.853156 3.347324 0.077642 0
M  V30 16 S -0.124220 3.040914 0.451909 0
M  V30 17 N 2.057563 0.287381 -0.619219 0
M  V30 18 N 1.519562 -0.709265 0.057737 0
M  V30 19 C -0.367804 -1.763033 2.293651 0
M  V30 20 O -1.126099 -1.243545 1.449916 0
M  V30 21 O 0.078783 -1.183311 3.456578 0
M  V30 22 C -0.315492 0.129465 3.805149 0
M  V30 23 H -2.840183 -2.530822 -0.059868 0
M  V30 24 H -2.577030 -3.046196 1.704234 0
M  V30 25 H -2.790789 -4.277565 0.446909 0
M  V30 26 H -0.594003 -2.462251 -0.246889 0
M  V30 27 H -0.575581 -4.294981 0.018261 0
M  V30 28 H -0.318561 -3.904378 2.460222 0
M  V30 29 H 4.292264 -2.636050 0.405553 0
M  V30 30 H 5.233171 -0.803351 -0.825431 0
M  V30 31 H -0.984269 1.303582 -2.503755 0
M  V30 32 H -3.043106 2.565234 -1.637283 0
M  V30 33 H -2.724386 3.929356 0.516404 0
M  V30 34 H -0.973038 0.125768 4.706231 0
M  V30 35 H -0.853450 0.566219 2.962518 0
M  V30 36 H 0.602661 0.760973 3.959797 0
M  V30 END ATOM
M  V30 BEGIN BOND
M  V30 1 1 1 2
M  V30 2 1 2 3
M  V30 3 1 3 4
M  V30 4 1 4 5
M  V30 5 1 5 6
M  V30 6 2 6 7
M  V30 7 1 7 8
M  V30 8 2 8 9
M  V30 9 1 9 10
M  V30 10 2 10 11
M  V30 11 1 11 12
M  V30 12 2 12 13
M  V30 13 1 13 14
M  V30 14 2 14 15
M  V30 15 1 15 16
M  V30 16 1 11 17
M  V30 17 1 17 18
M  V30 18 1 3 19
M  V30 19 2 19 20
M  V30 20 1 19 21
M  V30 21 1 21 22
M  V30 22 2 18 5
M  V30 23 1 17 8
M  V30 24 1 16 12
M  V30 25 1 1 23
M  V30 26 1 1 24
M  V30 27 1 1 25
M  V30 28 1 2 26
M  V30 29 1 2 27
M  V30 30 1 3 28
M  V30 31 1 6 29
M  V30 32 1 7 30
M  V30 33 1 13 31
M  V30 34 1 14 32
M  V30 35 1 15 33
M  V30 36 1 22 34
M  V30 37 1 22 35
M  V30 38 1 22 36
M  V30 END BOND
M  V30 END CTAB
M  END
>  <Dataset>  (664) 
ChEMBL_Kinases

>  <Ligand_Instance>  (664) 
nan

>  <PDB_ID>  (664) 
nan

>  <Standardized_SMILES>  (664) 
CCC(Sc1ccc2nnc(-c3cccs3)n2n1)C(=O)OC

>  <Name>  (664) 
nan

>  <Pocket>  (664) 
nan

>  <ATP_Site>  (664) 
nan

>  <Peripheral>  (664) 
nan

>  <Num_H_Atoms_ProtBoundConf>  (664) 
nan

>  <Num_Resolved_Atoms>  (664) 
nan

>  <Num_Not_Resolved_Atoms>  (664) 
nan

$$$$
CHEMBL2348975
     RDKit          3D

  0  0  0  0  0  0  0  0  0  0999 V3000
M  V30 BEGIN CTAB
M  V30 COUNTS 37 39 0 0 0
M  V30 BEGIN ATOM
M  V30 1 C -1.878381 -3.412363 2.227373 0
M  V30 2 C -0.626576 -3.073175 1.456548 0
M  V30 3 C 0.265070 -4.298831 1.319702 0
M  V30 4 C 0.142265 -1.935886 2.127597 0
M  V30 5 S 1.608816 -1.661779 1.066791 0
M  V30 6 C 1.110945 -1.029657 -0.526937 0
M  V30 7 C 0.789402 -1.782366 -1.655188 0
M  V30 8 C 0.435051 -1.057992 -2.772592 0
M  V30 9 C 0.398827 0.318536 -2.782348 0
M  V30 10 N 0.093262 1.225365 -3.725049 0
M  V30 11 N 0.211620 2.457871 -3.233849 0
M  V30 12 C 0.596083 2.315600 -1.968323 0
M  V30 13 C 0.900646 3.339192 -0.883294 0
M  V30 14 C -0.146994 3.861696 -0.265742 0
M  V30 15 C -0.147742 4.773204 0.714510 0
M  V30 16 C 1.194775 5.137874 1.035810 0
M  V30 17 S 2.255460 4.074599 -0.164090 0
M  V30 18 N 0.722544 1.013239 -1.651585 0
M  V30 19 N 1.056170 0.306963 -0.600819 0
M  V30 20 C 0.548846 -2.293833 3.501117 0
M  V30 21 N 1.370597 -3.332047 4.013513 0
M  V30 22 O 0.190607 -1.665845 4.535266 0
M  V30 23 H -2.738152 -3.511232 1.529175 0
M  V30 24 H -1.697575 -4.351346 2.766987 0
M  V30 25 H -2.091210 -2.536675 2.877932 0
M  V30 26 H -0.922243 -2.754197 0.438072 0
M  V30 27 H 1.241766 -3.952120 0.957559 0
M  V30 28 H -0.167019 -4.949162 0.512735 0
M  V30 29 H 0.293437 -4.820986 2.301307 0
M  V30 30 H -0.494758 -1.048824 2.202902 0
M  V30 31 H 0.854919 -2.851646 -1.523344 0
M  V30 32 H 0.187166 -1.653991 -3.641805 0
M  V30 33 H -1.239352 3.716270 -0.364472 0
M  V30 34 H -0.531013 5.441155 1.453414 0
M  V30 35 H 2.145750 5.729925 1.623250 0
M  V30 36 H 2.426909 -3.415146 4.102689 0
M  V30 37 H 1.237727 -4.278813 4.438156 0
M  V30 END ATOM
M  V30 BEGIN BOND
M  V30 1 1 1 2
M  V30 2 1 2 3
M  V30 3 1 2 4
M  V30 4 1 4 5
M  V30 5 1 5 6
M  V30 6 1 6 7
M  V30 7 2 7 8
M  V30 8 1 8 9
M  V30 9 2 9 10
M  V30 10 1 10 11
M  V30 11 2 11 12
M  V30 12 1 12 13
M  V30 13 2 13 14
M  V30 14 1 14 15
M  V30 15 2 15 16
M  V30 16 1 16 17
M  V30 17 1 12 18
M  V30 18 1 18 19
M  V30 19 1 4 20
M  V30 20 1 20 21
M  V30 21 2 20 22
M  V30 22 2 19 6
M  V30 23 1 18 9
M  V30 24 1 17 13
M  V30 25 1 1 23
M  V30 26 1 1 24
M  V30 27 1 1 25
M  V30 28 1 2 26
M  V30 29 1 3 27
M  V30 30 1 3 28
M  V30 31 1 3 29
M  V30 32 1 4 30
M  V30 33 1 7 31
M  V30 34 1 8 32
M  V30 35 1 14 33
M  V30 36 1 15 34
M  V30 37 1 16 35
M  V30 38 1 21 36
M  V30 39 1 21 37
M  V30 END BOND
M  V30 END CTAB
M  END
>  <Dataset>  (665) 
ChEMBL_Kinases

>  <Ligand_Instance>  (665) 
nan

>  <PDB_ID>  (665) 
nan

>  <Standardized_SMILES>  (665) 
CC(C)C(Sc1ccc2nnc(-c3cccs3)n2n1)C(N)=O

>  <Name>  (665) 
nan

>  <Pocket>  (665) 
nan

>  <ATP_Site>  (665) 
nan

>  <Peripheral>  (665) 
nan

>  <Num_H_Atoms_ProtBoundConf>  (665) 
nan

>  <Num_Resolved_Atoms>  (665) 
nan

>  <Num_Not_Resolved_Atoms>  (665) 
nan

$$$$
CHEMBL2348976
     RDKit          3D

  0  0  0  0  0  0  0  0  0  0999 V3000
M  V30 BEGIN CTAB
M  V30 COUNTS 34 36 0 0 0
M  V30 BEGIN ATOM
M  V30 1 C -1.126084 -1.994981 2.439182 0
M  V30 2 C -1.103726 -2.767184 1.131555 0
M  V30 3 C -2.096398 -3.907048 1.204443 0
M  V30 4 S 0.569830 -3.358365 0.809497 0
M  V30 5 C 1.634141 -1.961468 0.494843 0
M  V30 6 C 2.970409 -2.205586 0.229189 0
M  V30 7 C 3.853368 -1.152764 -0.029941 0
M  V30 8 C 3.340027 0.150121 -0.011117 0
M  V30 9 N 3.842201 1.387803 -0.202813 0
M  V30 10 N 2.873497 2.290433 -0.059935 0
M  V30 11 C 1.728672 1.609474 0.229062 0
M  V30 12 C 0.469376 2.267606 0.453585 0
M  V30 13 C -0.517018 2.633702 -0.425188 0
M  V30 14 C -1.645601 3.258865 0.032050 0
M  V30 15 C -1.770978 3.517929 1.427984 0
M  V30 16 S -0.155811 2.814967 2.131776 0
M  V30 17 N 2.024121 0.298903 0.256888 0
M  V30 18 N 1.175018 -0.697030 0.505004 0
M  V30 19 C -1.493449 -1.816703 0.033573 0
M  V30 20 N -1.711975 -1.607698 -1.344381 0
M  V30 21 O -1.715347 -0.743275 0.665417 0
M  V30 22 H -2.157532 -1.865922 2.836228 0
M  V30 23 H -0.675181 -0.986758 2.253857 0
M  V30 24 H -0.545172 -2.506585 3.206930 0
M  V30 25 H -3.111146 -3.506262 0.910981 0
M  V30 26 H -2.159038 -4.332443 2.240152 0
M  V30 27 H -1.864877 -4.691460 0.447174 0
M  V30 28 H 3.432495 -3.185099 0.199469 0
M  V30 29 H 4.901800 -1.293539 -0.240171 0
M  V30 30 H -0.374690 2.416049 -1.469986 0
M  V30 31 H -2.477965 3.587770 -0.567875 0
M  V30 32 H -2.492733 3.957683 1.983772 0
M  V30 33 H -0.905532 -1.229602 -1.923703 0
M  V30 34 H -2.716309 -1.925017 -1.389255 0
M  V30 END ATOM
M  V30 BEGIN BOND
M  V30 1 1 1 2
M  V30 2 1 2 3
M  V30 3 1 2 4
M  V30 4 1 4 5
M  V30 5 1 5 6
M  V30 6 2 6 7
M  V30 7 1 7 8
M  V30 8 2 8 9
M  V30 9 1 9 10
M  V30 10 2 10 11
M  V30 11 1 11 12
M  V30 12 2 12 13
M  V30 13 1 13 14
M  V30 14 2 14 15
M  V30 15 1 15 16
M  V30 16 1 11 17
M  V30 17 1 17 18
M  V30 18 1 2 19
M  V30 19 1 19 20
M  V30 20 2 19 21
M  V30 21 2 18 5
M  V30 22 1 17 8
M  V30 23 1 16 12
M  V30 24 1 1 22
M  V30 25 1 1 23
M  V30 26 1 1 24
M  V30 27 1 3 25
M  V30 28 1 3 26
M  V30 29 1 3 27
M  V30 30 1 6 28
M  V30 31 1 7 29
M  V30 32 1 13 30
M  V30 33 1 14 31
M  V30 34 1 15 32
M  V30 35 1 20 33
M  V30 36 1 20 34
M  V30 END BOND
M  V30 END CTAB
M  END
>  <Dataset>  (666) 
ChEMBL_Kinases

>  <Ligand_Instance>  (666) 
nan

>  <PDB_ID>  (666) 
nan

>  <Standardized_SMILES>  (666) 
CC(C)(Sc1ccc2nnc(-c3cccs3)n2n1)C(N)=O

>  <Name>  (666) 
nan

>  <Pocket>  (666) 
nan

>  <ATP_Site>  (666) 
nan

>  <Peripheral>  (666) 
nan

>  <Num_H_Atoms_ProtBoundConf>  (666) 
nan

>  <Num_Resolved_Atoms>  (666) 
nan

>  <Num_Not_Resolved_Atoms>  (666) 
nan

$$$$
CHEMBL2348977
     RDKit          3D

  0  0  0  0  0  0  0  0  0  0999 V3000
M  V30 BEGIN CTAB
M  V30 COUNTS 32 35 0 0 0
M  V30 BEGIN ATOM
M  V30 1 C -0.435683 -4.627861 0.734682 0
M  V30 2 C -1.179428 -3.662525 1.621307 0
M  V30 3 S -0.033662 -2.808706 2.718179 0
M  V30 4 C 1.069429 -1.753819 1.831663 0
M  V30 5 C 2.246534 -2.329522 1.419410 0
M  V30 6 C 3.232888 -1.673347 0.716571 0
M  V30 7 C 3.000933 -0.335235 0.413342 0
M  V30 8 N 3.708717 0.598179 -0.236707 0
M  V30 9 N 3.002308 1.735181 -0.238315 0
M  V30 10 C 1.846847 1.493996 0.419799 0
M  V30 11 C 0.859599 2.524609 0.593478 0
M  V30 12 C -0.359293 2.705420 -0.022757 0
M  V30 13 C -1.115876 3.779481 0.327440 0
M  V30 14 C -0.603392 4.634118 1.295606 0
M  V30 15 S 0.998533 3.886774 1.717046 0
M  V30 16 N 1.828984 0.210883 0.832215 0
M  V30 17 N 0.883327 -0.451419 1.516581 0
M  V30 18 C -1.902863 -2.702895 0.743543 0
M  V30 19 N -3.251712 -2.565973 0.836066 0
M  V30 20 N -3.670196 -1.658218 -0.040786 0
M  V30 21 C -2.566998 -1.236172 -0.675356 0
M  V30 22 O -1.516756 -1.875170 -0.190155 0
M  V30 23 H 0.205211 -5.332649 1.268175 0
M  V30 24 H 0.113209 -4.008617 -0.006438 0
M  V30 25 H -1.187894 -5.200831 0.134082 0
M  V30 26 H -1.921607 -4.176494 2.287947 0
M  V30 27 H 2.510593 -3.380947 1.615847 0
M  V30 28 H 4.155687 -2.123209 0.393658 0
M  V30 29 H -0.658694 1.975789 -0.764050 0
M  V30 30 H -2.083888 4.003928 -0.100510 0
M  V30 31 H -1.046555 5.525578 1.700314 0
M  V30 32 H -2.430415 -0.514622 -1.454503 0
M  V30 END ATOM
M  V30 BEGIN BOND
M  V30 1 1 1 2
M  V30 2 1 2 3
M  V30 3 1 3 4
M  V30 4 1 4 5
M  V30 5 2 5 6
M  V30 6 1 6 7
M  V30 7 2 7 8
M  V30 8 1 8 9
M  V30 9 2 9 10
M  V30 10 1 10 11
M  V30 11 2 11 12
M  V30 12 1 12 13
M  V30 13 2 13 14
M  V30 14 1 14 15
M  V30 15 1 10 16
M  V30 16 1 16 17
M  V30 17 1 2 18
M  V30 18 2 18 19
M  V30 19 1 19 20
M  V30 20 2 20 21
M  V30 21 1 21 22
M  V30 22 2 17 4
M  V30 23 1 22 18
M  V30 24 1 16 7
M  V30 25 1 15 11
M  V30 26 1 1 23
M  V30 27 1 1 24
M  V30 28 1 1 25
M  V30 29 1 2 26
M  V30 30 1 5 27
M  V30 31 1 6 28
M  V30 32 1 12 29
M  V30 33 1 13 30
M  V30 34 1 14 31
M  V30 35 1 21 32
M  V30 END BOND
M  V30 END CTAB
M  END
>  <Dataset>  (667) 
ChEMBL_Kinases

>  <Ligand_Instance>  (667) 
nan

>  <PDB_ID>  (667) 
nan

>  <Standardized_SMILES>  (667) 
CC(Sc1ccc2nnc(-c3cccs3)n2n1)c1nnco1

>  <Name>  (667) 
nan

>  <Pocket>  (667) 
nan

>  <ATP_Site>  (667) 
nan

>  <Peripheral>  (667) 
nan

>  <Num_H_Atoms_ProtBoundConf>  (667) 
nan

>  <Num_Resolved_Atoms>  (667) 
nan

>  <Num_Not_Resolved_Atoms>  (667) 
nan

$$$$
CHEMBL2348978
     RDKit          3D

  0  0  0  0  0  0  0  0  0  0999 V3000
M  V30 BEGIN CTAB
M  V30 COUNTS 37 40 0 0 0
M  V30 BEGIN ATOM
M  V30 1 C -1.039585 -2.235199 2.632138 0
M  V30 2 C 0.341681 -2.496073 3.138803 0
M  V30 3 S 1.430259 -1.035351 2.933487 0
M  V30 4 C 1.718400 -0.682329 1.206909 0
M  V30 5 C 2.773612 -1.223297 0.499818 0
M  V30 6 C 2.996010 -0.949983 -0.834178 0
M  V30 7 C 2.114040 -0.096938 -1.469554 0
M  V30 8 N 2.007839 0.390613 -2.723629 0
M  V30 9 N 0.937849 1.188713 -2.770249 0
M  V30 10 C 0.371106 1.200713 -1.537739 0
M  V30 11 C -0.833402 2.011936 -1.323226 0
M  V30 12 C -2.143848 1.711661 -1.560026 0
M  V30 13 C -3.114307 2.651077 -1.273502 0
M  V30 14 C -2.776750 3.895830 -0.748388 0
M  V30 15 C -1.452840 4.205562 -0.506475 0
M  V30 16 Cl -1.088581 5.785599 0.155082 0
M  V30 17 C -0.477922 3.258989 -0.795506 0
M  V30 18 N 1.107917 0.394053 -0.718984 0
M  V30 19 N 0.859625 0.156538 0.563216 0
M  V30 20 C 0.964092 -3.730948 2.649624 0
M  V30 21 C 1.382570 -4.794457 3.452768 0
M  V30 22 C 1.932904 -5.813452 2.667712 0
M  V30 23 N 1.842052 -5.355278 1.391712 0
M  V30 24 N 1.283555 -4.162678 1.419491 0
M  V30 25 H -1.826100 -2.302202 3.435294 0
M  V30 26 H -1.156174 -1.207699 2.211644 0
M  V30 27 H -1.364269 -2.931815 1.838427 0
M  V30 28 H 0.248327 -2.597607 4.261168 0
M  V30 29 H 3.456070 -1.893252 1.019786 0
M  V30 30 H 3.821682 -1.381166 -1.362770 0
M  V30 31 H -2.285005 0.732464 -1.962140 0
M  V30 32 H -4.124854 2.372768 -1.474007 0
M  V30 33 H -3.590659 4.589615 -0.545792 0
M  V30 34 H 0.526691 3.616639 -0.562911 0
M  V30 35 H 1.324538 -4.896000 4.547674 0
M  V30 36 H 2.331971 -6.746243 3.040953 0
M  V30 37 H 1.099156 -3.587228 0.546344 0
M  V30 END ATOM
M  V30 BEGIN BOND
M  V30 1 1 1 2
M  V30 2 1 2 3
M  V30 3 1 3 4
M  V30 4 1 4 5
M  V30 5 2 5 6
M  V30 6 1 6 7
M  V30 7 2 7 8
M  V30 8 1 8 9
M  V30 9 2 9 10
M  V30 10 1 10 11
M  V30 11 2 11 12
M  V30 12 1 12 13
M  V30 13 2 13 14
M  V30 14 1 14 15
M  V30 15 1 15 16
M  V30 16 2 15 17
M  V30 17 1 10 18
M  V30 18 1 18 19
M  V30 19 1 2 20
M  V30 20 2 20 21
M  V30 21 1 21 22
M  V30 22 2 22 23
M  V30 23 1 23 24
M  V30 24 2 19 4
M  V30 25 1 24 20
M  V30 26 1 18 7
M  V30 27 1 17 11
M  V30 28 1 1 25
M  V30 29 1 1 26
M  V30 30 1 1 27
M  V30 31 1 2 28
M  V30 32 1 5 29
M  V30 33 1 6 30
M  V30 34 1 12 31
M  V30 35 1 13 32
M  V30 36 1 14 33
M  V30 37 1 17 34
M  V30 38 1 21 35
M  V30 39 1 22 36
M  V30 40 1 24 37
M  V30 END BOND
M  V30 END CTAB
M  END
>  <Dataset>  (668) 
ChEMBL_Kinases

>  <Ligand_Instance>  (668) 
nan

>  <PDB_ID>  (668) 
nan

>  <Standardized_SMILES>  (668) 
CC(Sc1ccc2nnc(-c3cccc(Cl)c3)n2n1)c1ccn[nH]1

>  <Name>  (668) 
nan

>  <Pocket>  (668) 
nan

>  <ATP_Site>  (668) 
nan

>  <Peripheral>  (668) 
nan

>  <Num_H_Atoms_ProtBoundConf>  (668) 
nan

>  <Num_Resolved_Atoms>  (668) 
nan

>  <Num_Not_Resolved_Atoms>  (668) 
nan

$$$$
CHEMBL2349081
     RDKit          3D

  0  0  0  0  0  0  0  0  0  0999 V3000
M  V30 BEGIN CTAB
M  V30 COUNTS 101 101 0 0 0
M  V30 BEGIN ATOM
M  V30 1 C 2.408032 -1.940066 6.666613 0
M  V30 2 C 1.602993 -0.674519 6.636322 0
M  V30 3 C 0.194899 -0.764664 6.237185 0
M  V30 4 C -0.077729 -1.177813 4.840723 0
M  V30 5 C 0.424181 -2.527232 4.487867 0
M  V30 6 C 0.026819 -2.902760 3.057844 0
M  V30 7 C 0.565978 -1.941596 2.046934 0
M  V30 8 C 2.049808 -1.896733 2.081058 0
M  V30 9 C 2.706338 -1.035698 1.053430 0
M  V30 10 C 2.351126 0.421422 1.080900 0
M  V30 11 C 3.151641 1.074374 -0.031684 0
M  V30 12 C 2.957215 2.561650 -0.134807 0
M  V30 13 C 3.791604 3.172713 -1.214143 0
M  V30 14 C 3.492282 2.826381 -2.627389 0
M  V30 15 C 2.130010 3.431959 -3.007020 0
M  V30 16 C 1.842776 3.239202 -4.449189 0
M  V30 17 C 1.550461 1.945654 -5.046231 0
M  V30 18 C 0.258635 1.280296 -4.944207 0
M  V30 19 C -0.462182 0.957174 -3.715070 0 CFG=1
M  V30 20 C 0.324447 0.120112 -2.822249 0
M  V30 21 O 0.448897 0.532087 -1.651312 0
M  V30 22 O 0.845403 -1.040549 -3.383456 0
M  V30 23 C 1.631564 -1.918682 -2.600889 0
M  V30 24 C 2.019399 -3.099871 -3.460912 0
M  V30 25 C -1.214109 2.103026 -3.081133 0
M  V30 26 C -2.384573 2.369727 -4.067480 0
M  V30 27 C -2.582636 1.063742 -4.746763 0
M  V30 28 C -1.711024 0.066241 -4.048732 0 CFG=2
M  V30 29 O -2.166157 -0.507523 -2.967854 0
M  V30 30 P -2.666739 -2.009028 -2.728726 0
M  V30 31 O -3.668624 -2.573496 -3.707029 0
M  V30 32 O -1.363197 -3.078600 -2.788236 0 CHG=-1 VAL=1
M  V30 33 O -3.373454 -2.255166 -1.178896 0
M  V30 34 C -4.761980 -2.346710 -1.297102 0
M  V30 35 C -5.452814 -2.039925 0.000983 0
M  V30 36 N -5.107899 -2.895715 1.088296 0 CHG=1 VAL=4
M  V30 37 C -5.068826 -4.297956 0.786220 0
M  V30 38 C -6.108898 -2.692087 2.139703 0
M  V30 39 C -3.834582 -2.532661 1.693382 0
M  V30 40 H 3.009928 -1.910602 7.649326 0
M  V30 41 H 3.205118 -1.994154 5.906253 0
M  V30 42 H 1.794188 -2.863337 6.762168 0
M  V30 43 H 2.168975 0.075325 5.975344 0
M  V30 44 H 1.669627 -0.152036 7.644495 0
M  V30 45 H -0.358741 0.195057 6.500707 0
M  V30 46 H -0.273478 -1.591937 6.887823 0
M  V30 47 H 0.439993 -0.425273 4.177257 0
M  V30 48 H -1.190893 -1.079462 4.623541 0
M  V30 49 H 0.053114 -3.305578 5.199174 0
M  V30 50 H 1.503581 -2.571868 4.499992 0
M  V30 51 H -1.099361 -2.971265 2.996264 0
M  V30 52 H 0.375270 -3.941546 2.897363 0
M  V30 53 H 0.098847 -0.930205 2.172896 0
M  V30 54 H 0.181054 -2.291623 1.049987 0
M  V30 55 H 2.409928 -2.941004 1.913735 0
M  V30 56 H 2.384064 -1.579492 3.103092 0
M  V30 57 H 2.638021 -1.472099 0.036448 0
M  V30 58 H 3.816101 -1.073924 1.281173 0
M  V30 59 H 1.258676 0.605860 0.999128 0
M  V30 60 H 2.653794 0.829747 2.074140 0
M  V30 61 H 4.230648 0.898934 0.266725 0
M  V30 62 H 3.055290 0.529427 -0.983552 0
M  V30 63 H 1.890502 2.825840 -0.319541 0
M  V30 64 H 3.204018 3.005280 0.854724 0
M  V30 65 H 3.626472 4.303362 -1.107904 0
M  V30 66 H 4.888517 3.067026 -0.975785 0
M  V30 67 H 3.392276 1.701284 -2.661661 0
M  V30 68 H 4.276980 3.163519 -3.317853 0
M  V30 69 H 2.224392 4.520426 -2.822209 0
M  V30 70 H 1.436654 3.010808 -2.284848 0
M  V30 71 H 2.754736 3.712215 -4.980949 0
M  V30 72 H 1.056968 4.029738 -4.703219 0
M  V30 73 H 2.420409 1.250281 -4.782353 0
M  V30 74 H 1.748574 2.063731 -6.178932 0
M  V30 75 H 0.388969 0.270721 -5.501260 0
M  V30 76 H -0.429200 1.851849 -5.683916 0
M  V30 77 H 1.101913 -2.289208 -1.711503 0
M  V30 78 H 2.557333 -1.357967 -2.344743 0
M  V30 79 H 2.441946 -3.912359 -2.798237 0
M  V30 80 H 1.102858 -3.494918 -3.990898 0
M  V30 81 H 2.774732 -2.782570 -4.205598 0
M  V30 82 H -0.689692 3.046915 -3.005175 0
M  V30 83 H -1.571046 1.797478 -2.100450 0
M  V30 84 H -3.243506 2.793369 -3.544069 0
M  V30 85 H -2.047916 3.167129 -4.796968 0
M  V30 86 H -2.258155 1.145547 -5.794550 0
M  V30 87 H -3.644086 0.745954 -4.817558 0
M  V30 88 H -1.366240 -0.643337 -4.805330 0
M  V30 89 H -5.068999 -1.547370 -2.023731 0
M  V30 90 H -5.114991 -3.306428 -1.715282 0
M  V30 91 H -5.154448 -0.984098 0.283296 0
M  V30 92 H -6.550706 -2.050896 -0.173019 0
M  V30 93 H -4.801153 -4.829077 1.746110 0
M  V30 94 H -4.203598 -4.549417 0.107726 0
M  V30 95 H -6.011264 -4.719134 0.429141 0
M  V30 96 H -6.998012 -3.344141 1.945275 0
M  V30 97 H -6.487115 -1.641234 2.029159 0
M  V30 98 H -5.716893 -2.892679 3.145732 0
M  V30 99 H -3.028815 -3.138186 1.211579 0
M  V30 100 H -3.719784 -1.446954 1.560501 0
M  V30 101 H -3.881843 -2.720555 2.779581 0
M  V30 END ATOM
M  V30 BEGIN BOND
M  V30 1 1 1 2
M  V30 2 1 2 3
M  V30 3 1 3 4
M  V30 4 1 4 5
M  V30 5 1 5 6
M  V30 6 1 6 7
M  V30 7 1 7 8
M  V30 8 1 8 9
M  V30 9 1 9 10
M  V30 10 1 10 11
M  V30 11 1 11 12
M  V30 12 1 12 13
M  V30 13 1 13 14
M  V30 14 1 14 15
M  V30 15 1 15 16
M  V30 16 1 16 17
M  V30 17 1 17 18
M  V30 18 1 19 18 CFG=3
M  V30 19 1 19 20
M  V30 20 2 20 21
M  V30 21 1 20 22
M  V30 22 1 22 23
M  V30 23 1 23 24
M  V30 24 1 19 25
M  V30 25 1 25 26
M  V30 26 1 26 27
M  V30 27 1 27 28
M  V30 28 1 28 29
M  V30 29 1 29 30
M  V30 30 2 30 31
M  V30 31 1 30 32
M  V30 32 1 30 33
M  V30 33 1 33 34
M  V30 34 1 34 35
M  V30 35 1 35 36
M  V30 36 1 36 37
M  V30 37 1 36 38
M  V30 38 1 36 39
M  V30 39 1 28 19
M  V30 40 1 1 40
M  V30 41 1 1 41
M  V30 42 1 1 42
M  V30 43 1 2 43
M  V30 44 1 2 44
M  V30 45 1 3 45
M  V30 46 1 3 46
M  V30 47 1 4 47
M  V30 48 1 4 48
M  V30 49 1 5 49
M  V30 50 1 5 50
M  V30 51 1 6 51
M  V30 52 1 6 52
M  V30 53 1 7 53
M  V30 54 1 7 54
M  V30 55 1 8 55
M  V30 56 1 8 56
M  V30 57 1 9 57
M  V30 58 1 9 58
M  V30 59 1 10 59
M  V30 60 1 10 60
M  V30 61 1 11 61
M  V30 62 1 11 62
M  V30 63 1 12 63
M  V30 64 1 12 64
M  V30 65 1 13 65
M  V30 66 1 13 66
M  V30 67 1 14 67
M  V30 68 1 14 68
M  V30 69 1 15 69
M  V30 70 1 15 70
M  V30 71 1 16 71
M  V30 72 1 16 72
M  V30 73 1 17 73
M  V30 74 1 17 74
M  V30 75 1 18 75
M  V30 76 1 18 76
M  V30 77 1 23 77
M  V30 78 1 23 78
M  V30 79 1 24 79
M  V30 80 1 24 80
M  V30 81 1 24 81
M  V30 82 1 25 82
M  V30 83 1 25 83
M  V30 84 1 26 84
M  V30 85 1 26 85
M  V30 86 1 27 86
M  V30 87 1 27 87
M  V30 88 1 28 88 CFG=3
M  V30 89 1 34 89
M  V30 90 1 34 90
M  V30 91 1 35 91
M  V30 92 1 35 92
M  V30 93 1 37 93
M  V30 94 1 37 94
M  V30 95 1 37 95
M  V30 96 1 38 96
M  V30 97 1 38 97
M  V30 98 1 38 98
M  V30 99 1 39 99
M  V30 100 1 39 100
M  V30 101 1 39 101
M  V30 END BOND
M  V30 END CTAB
M  END
>  <Dataset>  (669) 
ChEMBL_Kinases

>  <Ligand_Instance>  (669) 
nan

>  <PDB_ID>  (669) 
nan

>  <Standardized_SMILES>  (669) 
CCCCCCCCCCCCCCCCCC[C@@]1(C(=O)OCC)CCC[C@@H]1OP(=O)([O-])OCC[N+](C)(C)C

>  <Name>  (669) 
nan

>  <Pocket>  (669) 
nan

>  <ATP_Site>  (669) 
nan

>  <Peripheral>  (669) 
nan

>  <Num_H_Atoms_ProtBoundConf>  (669) 
nan

>  <Num_Resolved_Atoms>  (669) 
nan

>  <Num_Not_Resolved_Atoms>  (669) 
nan

$$$$
CHEMBL2348983
     RDKit          3D

  0  0  0  0  0  0  0  0  0  0999 V3000
M  V30 BEGIN CTAB
M  V30 COUNTS 37 40 0 0 0
M  V30 BEGIN ATOM
M  V30 1 F -0.309607 -3.698550 1.394591 0
M  V30 2 C 0.718002 -4.133520 0.574667 0
M  V30 3 F 0.344064 -3.892915 -0.734040 0
M  V30 4 F 0.906187 -5.475632 0.793039 0
M  V30 5 C 1.965566 -3.352412 0.819184 0
M  V30 6 C 3.199958 -3.935839 1.000909 0
M  V30 7 C 4.291632 -3.130836 1.220292 0
M  V30 8 C 4.124538 -1.741458 1.253891 0
M  V30 9 C 2.868942 -1.148174 1.069037 0
M  V30 10 O 2.983086 0.213723 1.148716 0
M  V30 11 C 1.917988 1.082872 1.008172 0
M  V30 12 C 2.358759 2.403170 1.140940 0
M  V30 13 C 1.467347 3.474242 1.038580 0
M  V30 14 C 0.129884 3.222998 0.802472 0
M  V30 15 N -1.007249 3.939708 0.643035 0
M  V30 16 N -2.024075 3.112438 0.435268 0
M  V30 17 C -1.558859 1.846109 0.457279 0
M  V30 18 C -2.373314 0.638297 0.266639 0
M  V30 19 C -3.282777 0.075481 1.137918 0
M  V30 20 C -3.948377 -1.071069 0.762117 0
M  V30 21 C -3.701128 -1.641451 -0.472679 0
M  V30 22 C -2.798565 -1.102040 -1.363746 0
M  V30 23 C -2.135634 0.054216 -0.969719 0
M  V30 24 N -0.236784 1.933248 0.683521 0
M  V30 25 N 0.603937 0.932433 0.780477 0
M  V30 26 C 1.792953 -1.984030 0.850921 0
M  V30 27 H 3.273486 -5.011626 0.965499 0
M  V30 28 H 5.226116 -3.626836 1.355449 0
M  V30 29 H 5.082760 -1.233068 1.437660 0
M  V30 30 H 3.389903 2.742209 1.329443 0
M  V30 31 H 1.773805 4.506778 1.135984 0
M  V30 32 H -3.372000 0.628753 2.062800 0
M  V30 33 H -4.648566 -1.466168 1.485628 0
M  V30 34 H -4.237649 -2.540223 -0.740526 0
M  V30 35 H -2.628742 -1.577282 -2.327040 0
M  V30 36 H -1.438103 0.422262 -1.725734 0
M  V30 37 H 0.880164 -1.422236 0.722326 0
M  V30 END ATOM
M  V30 BEGIN BOND
M  V30 1 1 1 2
M  V30 2 1 2 3
M  V30 3 1 2 4
M  V30 4 1 2 5
M  V30 5 2 5 6
M  V30 6 1 6 7
M  V30 7 2 7 8
M  V30 8 1 8 9
M  V30 9 1 9 10
M  V30 10 1 10 11
M  V30 11 1 11 12
M  V30 12 2 12 13
M  V30 13 1 13 14
M  V30 14 2 14 15
M  V30 15 1 15 16
M  V30 16 2 16 17
M  V30 17 1 17 18
M  V30 18 2 18 19
M  V30 19 1 19 20
M  V30 20 2 20 21
M  V30 21 1 21 22
M  V30 22 2 22 23
M  V30 23 1 17 24
M  V30 24 1 24 25
M  V30 25 2 9 26
M  V30 26 1 26 5
M  V30 27 2 25 11
M  V30 28 1 24 14
M  V30 29 1 23 18
M  V30 30 1 6 27
M  V30 31 1 7 28
M  V30 32 1 8 29
M  V30 33 1 12 30
M  V30 34 1 13 31
M  V30 35 1 19 32
M  V30 36 1 20 33
M  V30 37 1 21 34
M  V30 38 1 22 35
M  V30 39 1 23 36
M  V30 40 1 26 37
M  V30 END BOND
M  V30 END CTAB
M  END
>  <Dataset>  (670) 
ChEMBL_Kinases

>  <Ligand_Instance>  (670) 
nan

>  <PDB_ID>  (670) 
nan

>  <Standardized_SMILES>  (670) 
FC(F)(F)c1cccc(Oc2ccc3nnc(-c4ccccc4)n3n2)c1

>  <Name>  (670) 
nan

>  <Pocket>  (670) 
nan

>  <ATP_Site>  (670) 
nan

>  <Peripheral>  (670) 
nan

>  <Num_H_Atoms_ProtBoundConf>  (670) 
nan

>  <Num_Resolved_Atoms>  (670) 
nan

>  <Num_Not_Resolved_Atoms>  (670) 
nan

$$$$
CHEMBL2348996
     RDKit          3D

  0  0  0  0  0  0  0  0  0  0999 V3000
M  V30 BEGIN CTAB
M  V30 COUNTS 53 57 0 0 0
M  V30 BEGIN ATOM
M  V30 1 C 3.863682 -1.435794 8.046604 0
M  V30 2 C 4.267711 -1.819941 6.655377 0
M  V30 3 C 3.840328 -1.173944 5.512841 0
M  V30 4 C 4.405305 -1.788858 4.415038 0
M  V30 5 C 4.306420 -1.532767 2.987118 0
M  V30 6 O 4.845004 -2.129144 2.051749 0
M  V30 7 N 3.456555 -0.425723 2.651840 0
M  V30 8 C 3.281826 -0.079470 1.288032 0
M  V30 9 C 4.171095 0.847610 0.724940 0
M  V30 10 C 3.989998 1.178088 -0.609322 0
M  V30 11 C 2.968963 0.615490 -1.363102 0
M  V30 12 C 2.086620 -0.306691 -0.797925 0
M  V30 13 O 1.094292 -0.819561 -1.625144 0
M  V30 14 C -0.152005 -0.219150 -1.754946 0
M  V30 15 C -0.486826 0.946109 -1.056425 0
M  V30 16 C -1.749888 1.464299 -1.253930 0
M  V30 17 C -2.685587 0.897098 -2.095013 0
M  V30 18 N -3.948124 1.148017 -2.487523 0
M  V30 19 C -4.347476 0.190099 -3.369416 0
M  V30 20 N -5.680328 0.294158 -3.901276 0
M  V30 21 C -6.564824 -0.424906 -3.038300 0
M  V30 22 O -5.926564 -0.943943 -2.059714 0
M  V30 23 C -8.040043 -0.530855 -3.285810 0
M  V30 24 C -8.895096 -0.403868 -2.053311 0
M  V30 25 C -8.782053 -1.701147 -2.760362 0
M  V30 26 C -3.302358 -0.671012 -3.521812 0
M  V30 27 N -2.293600 -0.236576 -2.744391 0
M  V30 28 N -1.085533 -0.747353 -2.566552 0
M  V30 29 C 2.285776 -0.620115 0.529849 0
M  V30 30 N 5.158334 -2.787220 4.902342 0
M  V30 31 C 5.999385 -3.796654 4.294133 0
M  V30 32 N 5.073575 -2.800581 6.219262 0
M  V30 33 H 4.729071 -1.557311 8.719381 0
M  V30 34 H 3.535793 -0.376041 8.040316 0
M  V30 35 H 3.023918 -2.095465 8.344551 0
M  V30 36 H 3.177447 -0.326693 5.428661 0
M  V30 37 H 2.914921 0.200427 3.304559 0
M  V30 38 H 4.965548 1.284113 1.314929 0
M  V30 39 H 4.705299 1.898339 -0.991204 0
M  V30 40 H 2.946040 0.967862 -2.398493 0
M  V30 41 H 0.239574 1.380159 -0.408067 0
M  V30 42 H -2.056756 2.367219 -0.734295 0
M  V30 43 H -6.077752 0.772494 -4.749977 0
M  V30 44 H -8.445463 -0.025979 -4.177671 0
M  V30 45 H -9.852599 0.167729 -2.108954 0
M  V30 46 H -8.380334 -0.222212 -1.065001 0
M  V30 47 H -9.685726 -2.029147 -3.313836 0
M  V30 48 H -8.265444 -2.552384 -2.268393 0
M  V30 49 H -3.400434 -1.515093 -4.183146 0
M  V30 50 H 1.609965 -1.326592 0.963151 0
M  V30 51 H 5.798963 -3.909909 3.228158 0
M  V30 52 H 5.880641 -4.797933 4.766365 0
M  V30 53 H 7.068830 -3.503263 4.421719 0
M  V30 END ATOM
M  V30 BEGIN BOND
M  V30 1 1 1 2
M  V30 2 1 2 3
M  V30 3 2 3 4
M  V30 4 1 4 5
M  V30 5 2 5 6
M  V30 6 1 5 7
M  V30 7 1 7 8
M  V30 8 2 8 9
M  V30 9 1 9 10
M  V30 10 2 10 11
M  V30 11 1 11 12
M  V30 12 1 12 13
M  V30 13 1 13 14
M  V30 14 1 14 15
M  V30 15 2 15 16
M  V30 16 1 16 17
M  V30 17 2 17 18
M  V30 18 1 18 19
M  V30 19 1 19 20
M  V30 20 1 20 21
M  V30 21 2 21 22
M  V30 22 1 21 23
M  V30 23 1 23 24
M  V30 24 1 24 25
M  V30 25 2 19 26
M  V30 26 1 26 27
M  V30 27 1 27 28
M  V30 28 2 12 29
M  V30 29 1 4 30
M  V30 30 1 30 31
M  V30 31 1 30 32
M  V30 32 2 32 2
M  V30 33 1 29 8
M  V30 34 2 28 14
M  V30 35 1 27 17
M  V30 36 1 25 23
M  V30 37 1 1 33
M  V30 38 1 1 34
M  V30 39 1 1 35
M  V30 40 1 3 36
M  V30 41 1 7 37
M  V30 42 1 9 38
M  V30 43 1 10 39
M  V30 44 1 11 40
M  V30 45 1 15 41
M  V30 46 1 16 42
M  V30 47 1 20 43
M  V30 48 1 23 44
M  V30 49 1 24 45
M  V30 50 1 24 46
M  V30 51 1 25 47
M  V30 52 1 25 48
M  V30 53 1 26 49
M  V30 54 1 29 50
M  V30 55 1 31 51
M  V30 56 1 31 52
M  V30 57 1 31 53
M  V30 END BOND
M  V30 END CTAB
M  END
>  <Dataset>  (671) 
ChEMBL_Kinases

>  <Ligand_Instance>  (671) 
nan

>  <PDB_ID>  (671) 
nan

>  <Standardized_SMILES>  (671) 
Cc1cc(C(=O)Nc2cccc(Oc3ccc4nc(NC(=O)C5CC5)cn4n3)c2)n(C)n1

>  <Name>  (671) 
nan

>  <Pocket>  (671) 
nan

>  <ATP_Site>  (671) 
nan

>  <Peripheral>  (671) 
nan

>  <Num_H_Atoms_ProtBoundConf>  (671) 
nan

>  <Num_Resolved_Atoms>  (671) 
nan

>  <Num_Not_Resolved_Atoms>  (671) 
nan

$$$$
CHEMBL2349074
     RDKit          3D

  0  0  0  0  0  0  0  0  0  0999 V3000
M  V30 BEGIN CTAB
M  V30 COUNTS 86 86 0 0 0
M  V30 BEGIN ATOM
M  V30 1 C 5.883032 -7.681119 5.931001 0
M  V30 2 C 5.294721 -6.549397 5.097786 0
M  V30 3 C 5.409499 -6.801767 3.626532 0
M  V30 4 C 4.845264 -5.711779 2.760509 0
M  V30 5 C 3.388698 -5.521416 3.038073 0
M  V30 6 C 2.751476 -4.436832 2.202812 0
M  V30 7 C 2.876705 -4.755782 0.732834 0
M  V30 8 C 2.264434 -3.721473 -0.154457 0
M  V30 9 C 0.767108 -3.537565 0.097367 0
M  V30 10 C 0.313723 -2.484491 -0.857449 0
M  V30 11 C -1.179125 -2.170843 -0.746579 0
M  V30 12 C -1.433506 -1.103038 -1.774641 0
M  V30 13 C -2.785405 -0.600117 -1.959652 0
M  V30 14 C -3.614305 0.033818 -0.962017 0 CFG=1
M  V30 15 C -4.926561 0.435509 -1.628634 0
M  V30 16 O -5.236164 0.245639 -2.852979 0
M  V30 17 O -5.925266 1.063309 -0.928027 0
M  V30 18 C -7.155602 1.435812 -1.569595 0
M  V30 19 C -8.008005 2.093976 -0.506992 0
M  V30 20 C -4.103483 -0.961725 0.067411 0
M  V30 21 C -3.682379 -0.541963 1.426415 0
M  V30 22 C -2.783251 0.613470 1.214676 0
M  V30 23 C -3.157518 1.157693 -0.157754 0 CFG=1
M  V30 24 O -2.057504 1.857975 -0.580125 0
M  V30 25 P -2.303557 3.527610 -0.694959 0
M  V30 26 O -3.702452 3.833138 -1.164140 0
M  V30 27 O -1.932975 4.231060 0.773630 0 CHG=-1 VAL=1
M  V30 28 O -1.157920 4.089903 -1.838961 0
M  V30 29 C 0.112111 3.688716 -1.505661 0
M  V30 30 C 1.149867 4.105681 -2.518979 0
M  V30 31 N 1.243083 5.519643 -2.708125 0 CHG=1 VAL=4
M  V30 32 C 2.269619 5.743227 -3.722322 0
M  V30 33 C 1.623318 6.270638 -1.550392 0
M  V30 34 C -0.001152 6.024268 -3.294400 0
M  V30 35 H 5.825265 -7.333601 6.993186 0
M  V30 36 H 6.943261 -7.839494 5.679069 0
M  V30 37 H 5.234010 -8.557715 5.852402 0
M  V30 38 H 4.273194 -6.347931 5.440568 0
M  V30 39 H 5.911747 -5.657003 5.336833 0
M  V30 40 H 6.482612 -6.969630 3.398749 0
M  V30 41 H 4.905233 -7.769639 3.407659 0
M  V30 42 H 4.977166 -6.050779 1.704072 0
M  V30 43 H 5.424581 -4.774604 2.880933 0
M  V30 44 H 3.279398 -5.185928 4.102132 0
M  V30 45 H 2.881382 -6.494441 2.969659 0
M  V30 46 H 1.674342 -4.443888 2.436522 0
M  V30 47 H 3.245563 -3.484862 2.460911 0
M  V30 48 H 3.971658 -4.747595 0.513965 0
M  V30 49 H 2.470816 -5.733093 0.473628 0
M  V30 50 H 2.396729 -4.023737 -1.193429 0
M  V30 51 H 2.715506 -2.717870 -0.034695 0
M  V30 52 H 0.320167 -4.539047 -0.159460 0
M  V30 53 H 0.526718 -3.351948 1.145193 0
M  V30 54 H 0.527579 -2.839714 -1.886227 0
M  V30 55 H 0.912717 -1.578475 -0.705441 0
M  V30 56 H -1.425131 -1.883948 0.297030 0
M  V30 57 H -1.706443 -3.120729 -0.938453 0
M  V30 58 H -1.156239 -1.643202 -2.742877 0
M  V30 59 H -0.626766 -0.323888 -1.770219 0
M  V30 60 H -3.354475 -1.472139 -2.435898 0
M  V30 61 H -2.740666 0.093664 -2.867719 0
M  V30 62 H -7.627211 0.484233 -1.916334 0
M  V30 63 H -6.998682 2.155982 -2.380667 0
M  V30 64 H -7.324117 2.651670 0.164726 0
M  V30 65 H -8.737565 2.805813 -0.945042 0
M  V30 66 H -8.498908 1.326587 0.139759 0
M  V30 67 H -3.673387 -1.958966 -0.206540 0
M  V30 68 H -5.223691 -1.115410 0.016365 0
M  V30 69 H -3.159006 -1.418690 1.907502 0
M  V30 70 H -4.598135 -0.276564 2.001270 0
M  V30 71 H -1.715090 0.309688 1.234987 0
M  V30 72 H -2.970699 1.355100 2.017410 0
M  V30 73 H -3.955842 1.905443 0.030957 0
M  V30 74 H 0.362695 4.131488 -0.510105 0
M  V30 75 H 0.174788 2.594136 -1.380652 0
M  V30 76 H 2.140076 3.734004 -2.158916 0
M  V30 77 H 0.953915 3.637200 -3.489702 0
M  V30 78 H 2.090188 6.761987 -4.125009 0
M  V30 79 H 2.106565 5.010771 -4.561957 0
M  V30 80 H 3.290302 5.702722 -3.307432 0
M  V30 81 H 2.228867 5.680472 -0.832204 0
M  V30 82 H 0.721962 6.700137 -1.067942 0
M  V30 83 H 2.259647 7.160829 -1.804027 0
M  V30 84 H -0.713022 6.387322 -2.537488 0
M  V30 85 H -0.433857 5.250962 -3.964509 0
M  V30 86 H 0.251234 6.894546 -3.927372 0
M  V30 END ATOM
M  V30 BEGIN BOND
M  V30 1 1 1 2
M  V30 2 1 2 3
M  V30 3 1 3 4
M  V30 4 1 4 5
M  V30 5 1 5 6
M  V30 6 1 6 7
M  V30 7 1 7 8
M  V30 8 1 8 9
M  V30 9 1 9 10
M  V30 10 1 10 11
M  V30 11 1 11 12
M  V30 12 1 12 13
M  V30 13 1 14 13 CFG=3
M  V30 14 1 14 15
M  V30 15 2 15 16
M  V30 16 1 15 17
M  V30 17 1 17 18
M  V30 18 1 18 19
M  V30 19 1 14 20
M  V30 20 1 20 21
M  V30 21 1 21 22
M  V30 22 1 22 23
M  V30 23 1 23 24
M  V30 24 1 24 25
M  V30 25 2 25 26
M  V30 26 1 25 27
M  V30 27 1 25 28
M  V30 28 1 28 29
M  V30 29 1 29 30
M  V30 30 1 30 31
M  V30 31 1 31 32
M  V30 32 1 31 33
M  V30 33 1 31 34
M  V30 34 1 23 14
M  V30 35 1 1 35
M  V30 36 1 1 36
M  V30 37 1 1 37
M  V30 38 1 2 38
M  V30 39 1 2 39
M  V30 40 1 3 40
M  V30 41 1 3 41
M  V30 42 1 4 42
M  V30 43 1 4 43
M  V30 44 1 5 44
M  V30 45 1 5 45
M  V30 46 1 6 46
M  V30 47 1 6 47
M  V30 48 1 7 48
M  V30 49 1 7 49
M  V30 50 1 8 50
M  V30 51 1 8 51
M  V30 52 1 9 52
M  V30 53 1 9 53
M  V30 54 1 10 54
M  V30 55 1 10 55
M  V30 56 1 11 56
M  V30 57 1 11 57
M  V30 58 1 12 58
M  V30 59 1 12 59
M  V30 60 1 13 60
M  V30 61 1 13 61
M  V30 62 1 18 62
M  V30 63 1 18 63
M  V30 64 1 19 64
M  V30 65 1 19 65
M  V30 66 1 19 66
M  V30 67 1 20 67
M  V30 68 1 20 68
M  V30 69 1 21 69
M  V30 70 1 21 70
M  V30 71 1 22 71
M  V30 72 1 22 72
M  V30 73 1 23 73 CFG=1
M  V30 74 1 29 74
M  V30 75 1 29 75
M  V30 76 1 30 76
M  V30 77 1 30 77
M  V30 78 1 32 78
M  V30 79 1 32 79
M  V30 80 1 32 80
M  V30 81 1 33 81
M  V30 82 1 33 82
M  V30 83 1 33 83
M  V30 84 1 34 84
M  V30 85 1 34 85
M  V30 86 1 34 86
M  V30 END BOND
M  V30 END CTAB
M  END
>  <Dataset>  (672) 
ChEMBL_Kinases

>  <Ligand_Instance>  (672) 
nan

>  <PDB_ID>  (672) 
nan

>  <Standardized_SMILES>  (672) 
CCCCCCCCCCCCC[C@@]1(C(=O)OCC)CCC[C@H]1OP(=O)([O-])OCC[N+](C)(C)C

>  <Name>  (672) 
nan

>  <Pocket>  (672) 
nan

>  <ATP_Site>  (672) 
nan

>  <Peripheral>  (672) 
nan

>  <Num_H_Atoms_ProtBoundConf>  (672) 
nan

>  <Num_Resolved_Atoms>  (672) 
nan

>  <Num_Not_Resolved_Atoms>  (672) 
nan

$$$$
CHEMBL2349075
     RDKit          3D

  0  0  0  0  0  0  0  0  0  0999 V3000
M  V30 BEGIN CTAB
M  V30 COUNTS 95 95 0 0 0
M  V30 BEGIN ATOM
M  V30 1 C -1.689727 -4.511372 3.633988 0
M  V30 2 C -0.368847 -3.848029 3.994773 0
M  V30 3 C 0.769004 -4.488708 3.236485 0
M  V30 4 C 2.110416 -3.889742 3.542597 0
M  V30 5 C 2.198309 -2.424221 3.199517 0
M  V30 6 C 3.587656 -1.874329 3.550517 0
M  V30 7 C 4.664946 -2.571365 2.814535 0
M  V30 8 C 4.649176 -2.490907 1.333815 0
M  V30 9 C 4.765684 -1.106307 0.781631 0
M  V30 10 C 4.773965 -1.214983 -0.733365 0
M  V30 11 C 4.922811 0.080386 -1.441244 0
M  V30 12 C 3.862196 1.100167 -1.237183 0
M  V30 13 C 2.505466 0.638928 -1.716920 0
M  V30 14 C 1.518330 1.760228 -1.478852 0
M  V30 15 C 0.133392 1.470867 -1.927928 0
M  V30 16 C -0.596707 0.318615 -1.402040 0
M  V30 17 C -0.900514 0.159545 0.026641 0 CFG=1
M  V30 18 C -1.721230 -1.143667 0.115270 0
M  V30 19 O -1.395698 -2.183779 0.785529 0
M  V30 20 O -2.901884 -1.131396 -0.612610 0
M  V30 21 C -3.706384 -2.299188 -0.577554 0
M  V30 22 C -2.856381 -3.434671 -1.130562 0
M  V30 23 C 0.310031 -0.116621 0.875808 0
M  V30 24 C -0.284708 0.039795 2.267168 0
M  V30 25 C -1.135961 1.284202 2.104965 0
M  V30 26 C -1.699866 1.206763 0.694080 0 CFG=1
M  V30 27 O -1.753080 2.433512 0.087128 0
M  V30 28 P -3.334999 2.995432 -0.118529 0
M  V30 29 O -3.294666 4.494035 -0.306678 0
M  V30 30 O -4.286818 2.600078 1.245479 0 CHG=-1 VAL=1
M  V30 31 O -4.002384 2.234363 -1.441821 0
M  V30 32 C -4.528323 3.120420 -2.376628 0
M  V30 33 C -5.075709 2.343033 -3.522881 0
M  V30 34 N -4.111620 1.527547 -4.207072 0 CHG=1 VAL=4
M  V30 35 C -2.769238 2.040380 -4.156803 0
M  V30 36 C -4.484718 1.510993 -5.621974 0
M  V30 37 C -4.121910 0.152941 -3.750867 0
M  V30 38 H -2.536891 -3.966944 4.053425 0
M  V30 39 H -1.694511 -5.549078 4.075684 0
M  V30 40 H -1.817165 -4.599317 2.539815 0
M  V30 41 H -0.215288 -4.091072 5.086250 0
M  V30 42 H -0.412837 -2.762953 3.936648 0
M  V30 43 H 0.795694 -5.565165 3.412135 0
M  V30 44 H 0.538879 -4.356200 2.158136 0
M  V30 45 H 2.841139 -4.430921 2.880270 0
M  V30 46 H 2.338791 -4.083908 4.610924 0
M  V30 47 H 2.087275 -2.281466 2.125657 0
M  V30 48 H 1.414404 -1.894323 3.771278 0
M  V30 49 H 3.718292 -2.129844 4.638359 0
M  V30 50 H 3.613576 -0.784902 3.492941 0
M  V30 51 H 4.721626 -3.622412 3.186128 0
M  V30 52 H 5.644035 -2.115523 3.148579 0
M  V30 53 H 3.655978 -2.896084 0.990438 0
M  V30 54 H 5.393087 -3.145051 0.842256 0
M  V30 55 H 3.931870 -0.442622 1.041443 0
M  V30 56 H 5.693515 -0.644735 1.159855 0
M  V30 57 H 3.824768 -1.721613 -1.028551 0
M  V30 58 H 5.610596 -1.868061 -1.054089 0
M  V30 59 H 5.948222 0.480643 -1.198653 0
M  V30 60 H 5.012681 -0.173624 -2.539949 0
M  V30 61 H 4.127244 1.968050 -1.910340 0
M  V30 62 H 3.822923 1.520589 -0.225891 0
M  V30 63 H 2.194831 -0.327779 -1.304217 0
M  V30 64 H 2.628487 0.472700 -2.826618 0
M  V30 65 H 1.871169 2.584720 -2.226929 0
M  V30 66 H 1.652880 2.258493 -0.522293 0
M  V30 67 H 0.216716 1.302606 -3.058190 0
M  V30 68 H -0.443833 2.438976 -1.859341 0
M  V30 69 H -1.534085 0.098000 -1.996726 0
M  V30 70 H 0.039479 -0.601538 -1.673765 0
M  V30 71 H -4.011393 -2.482679 0.453019 0
M  V30 72 H -4.618409 -2.158754 -1.201566 0
M  V30 73 H -3.457453 -4.044352 -1.840361 0
M  V30 74 H -1.980934 -3.075984 -1.709536 0
M  V30 75 H -2.456902 -4.021642 -0.295278 0
M  V30 76 H 1.130643 0.563465 0.810626 0
M  V30 77 H 0.609578 -1.160443 0.646736 0
M  V30 78 H -0.857190 -0.823119 2.607147 0
M  V30 79 H 0.559148 0.202063 2.967097 0
M  V30 80 H -0.517035 2.184972 2.230945 0
M  V30 81 H -1.905068 1.285556 2.881962 0
M  V30 82 H -2.773914 0.888664 0.839162 0
M  V30 83 H -3.841923 3.937963 -2.662359 0
M  V30 84 H -5.398682 3.612183 -1.871644 0
M  V30 85 H -5.838704 1.644826 -3.104318 0
M  V30 86 H -5.650177 3.028569 -4.208146 0
M  V30 87 H -2.084764 1.215808 -4.456412 0
M  V30 88 H -2.445375 2.368503 -3.174164 0
M  V30 89 H -2.658764 2.832763 -4.935850 0
M  V30 90 H -3.832392 0.764560 -6.138349 0
M  V30 91 H -4.186626 2.504332 -6.036830 0
M  V30 92 H -5.560444 1.289211 -5.740429 0
M  V30 93 H -4.842997 -0.404509 -4.357693 0
M  V30 94 H -3.099135 -0.270479 -3.957834 0
M  V30 95 H -4.339181 0.097950 -2.664089 0
M  V30 END ATOM
M  V30 BEGIN BOND
M  V30 1 1 1 2
M  V30 2 1 2 3
M  V30 3 1 3 4
M  V30 4 1 4 5
M  V30 5 1 5 6
M  V30 6 1 6 7
M  V30 7 1 7 8
M  V30 8 1 8 9
M  V30 9 1 9 10
M  V30 10 1 10 11
M  V30 11 1 11 12
M  V30 12 1 12 13
M  V30 13 1 13 14
M  V30 14 1 14 15
M  V30 15 1 15 16
M  V30 16 1 17 16 CFG=3
M  V30 17 1 17 18
M  V30 18 2 18 19
M  V30 19 1 18 20
M  V30 20 1 20 21
M  V30 21 1 21 22
M  V30 22 1 17 23
M  V30 23 1 23 24
M  V30 24 1 24 25
M  V30 25 1 25 26
M  V30 26 1 26 27
M  V30 27 1 27 28
M  V30 28 2 28 29
M  V30 29 1 28 30
M  V30 30 1 28 31
M  V30 31 1 31 32
M  V30 32 1 32 33
M  V30 33 1 33 34
M  V30 34 1 34 35
M  V30 35 1 34 36
M  V30 36 1 34 37
M  V30 37 1 26 17
M  V30 38 1 1 38
M  V30 39 1 1 39
M  V30 40 1 1 40
M  V30 41 1 2 41
M  V30 42 1 2 42
M  V30 43 1 3 43
M  V30 44 1 3 44
M  V30 45 1 4 45
M  V30 46 1 4 46
M  V30 47 1 5 47
M  V30 48 1 5 48
M  V30 49 1 6 49
M  V30 50 1 6 50
M  V30 51 1 7 51
M  V30 52 1 7 52
M  V30 53 1 8 53
M  V30 54 1 8 54
M  V30 55 1 9 55
M  V30 56 1 9 56
M  V30 57 1 10 57
M  V30 58 1 10 58
M  V30 59 1 11 59
M  V30 60 1 11 60
M  V30 61 1 12 61
M  V30 62 1 12 62
M  V30 63 1 13 63
M  V30 64 1 13 64
M  V30 65 1 14 65
M  V30 66 1 14 66
M  V30 67 1 15 67
M  V30 68 1 15 68
M  V30 69 1 16 69
M  V30 70 1 16 70
M  V30 71 1 21 71
M  V30 72 1 21 72
M  V30 73 1 22 73
M  V30 74 1 22 74
M  V30 75 1 22 75
M  V30 76 1 23 76
M  V30 77 1 23 77
M  V30 78 1 24 78
M  V30 79 1 24 79
M  V30 80 1 25 80
M  V30 81 1 25 81
M  V30 82 1 26 82 CFG=1
M  V30 83 1 32 83
M  V30 84 1 32 84
M  V30 85 1 33 85
M  V30 86 1 33 86
M  V30 87 1 35 87
M  V30 88 1 35 88
M  V30 89 1 35 89
M  V30 90 1 36 90
M  V30 91 1 36 91
M  V30 92 1 36 92
M  V30 93 1 37 93
M  V30 94 1 37 94
M  V30 95 1 37 95
M  V30 END BOND
M  V30 END CTAB
M  END
>  <Dataset>  (673) 
ChEMBL_Kinases

>  <Ligand_Instance>  (673) 
nan

>  <PDB_ID>  (673) 
nan

>  <Standardized_SMILES>  (673) 
CCCCCCCCCCCCCCCC[C@@]1(C(=O)OCC)CCC[C@H]1OP(=O)([O-])OCC[N+](C)(C)C

>  <Name>  (673) 
nan

>  <Pocket>  (673) 
nan

>  <ATP_Site>  (673) 
nan

>  <Peripheral>  (673) 
nan

>  <Num_H_Atoms_ProtBoundConf>  (673) 
nan

>  <Num_Resolved_Atoms>  (673) 
nan

>  <Num_Not_Resolved_Atoms>  (673) 
nan

$$$$
CHEMBL2349077
     RDKit          3D

  0  0  0  0  0  0  0  0  0  0999 V3000
M  V30 BEGIN CTAB
M  V30 COUNTS 107 107 0 0 0
M  V30 BEGIN ATOM
M  V30 1 C -0.511735 -9.500056 1.887729 0
M  V30 2 C -0.467141 -8.029276 2.142777 0
M  V30 3 C 0.952234 -7.491380 2.282180 0
M  V30 4 C 0.886105 -6.003992 2.535025 0
M  V30 5 C 2.252798 -5.394918 2.700665 0
M  V30 6 C 3.151606 -5.564823 1.510362 0
M  V30 7 C 4.505173 -4.942253 1.724939 0
M  V30 8 C 4.485526 -3.467679 1.974376 0
M  V30 9 C 3.878683 -2.798009 0.738431 0
M  V30 10 C 3.827769 -1.305824 0.895901 0
M  V30 11 C 3.259225 -0.615456 -0.322496 0
M  V30 12 C 3.236285 0.880349 -0.104217 0
M  V30 13 C 2.667672 1.575109 -1.367288 0
M  V30 14 C 2.667170 3.055371 -1.176466 0
M  V30 15 C 2.291464 3.961209 -2.248119 0
M  V30 16 C 0.994569 4.086344 -2.912127 0
M  V30 17 C 0.518348 2.853578 -3.608242 0
M  V30 18 C -0.740589 3.096948 -4.399304 0
M  V30 19 C -1.938308 3.594833 -3.790900 0
M  V30 20 C -2.798079 3.079311 -2.772869 0
M  V30 21 C -3.575278 1.855125 -2.768045 0 CFG=1
M  V30 22 C -4.394376 1.811479 -1.460756 0
M  V30 23 O -4.859004 2.130928 -0.338711 0
M  V30 24 O -5.214026 0.691588 -1.345976 0
M  V30 25 C -6.043341 0.476669 -0.213926 0
M  V30 26 C -6.747415 -0.858186 -0.500448 0
M  V30 27 C -4.530709 1.559779 -3.852484 0
M  V30 28 C -4.087174 0.289141 -4.546712 0
M  V30 29 C -2.709650 -0.016648 -3.995814 0
M  V30 30 C -2.757408 0.577453 -2.632081 0 CFG=1
M  V30 31 O -1.603392 0.687334 -1.932528 0
M  V30 32 P -1.593119 -0.238638 -0.516832 0
M  V30 33 O -0.403351 -1.120343 -0.385271 0
M  V30 34 O -2.990790 -1.226578 -0.418490 0 CHG=-1 VAL=1
M  V30 35 O -1.682828 0.781716 0.819314 0
M  V30 36 C -0.912642 0.371288 1.871455 0
M  V30 37 C -1.000331 1.173308 3.119820 0
M  V30 38 N -0.634639 2.543294 3.031276 0 CHG=1 VAL=4
M  V30 39 C -1.836108 3.346450 2.957241 0
M  V30 40 C 0.303122 2.866814 1.983867 0
M  V30 41 C 0.039098 2.910131 4.287701 0
M  V30 42 H -1.377591 -9.935229 2.445758 0
M  V30 43 H -0.712488 -9.757469 0.824723 0
M  V30 44 H 0.380753 -10.044921 2.269194 0
M  V30 45 H -0.972324 -7.833600 3.126568 0
M  V30 46 H -0.971058 -7.524446 1.297440 0
M  V30 47 H 1.532251 -8.049210 3.033387 0
M  V30 48 H 1.425322 -7.704749 1.283229 0
M  V30 49 H 0.256899 -5.796857 3.430264 0
M  V30 50 H 0.415094 -5.538411 1.638493 0
M  V30 51 H 2.195502 -4.331922 2.994918 0
M  V30 52 H 2.691951 -5.908200 3.608589 0
M  V30 53 H 3.351627 -6.672576 1.430995 0
M  V30 54 H 2.663716 -5.271907 0.580778 0
M  V30 55 H 5.069255 -5.517344 2.484720 0
M  V30 56 H 5.066007 -5.085872 0.759335 0
M  V30 57 H 3.915509 -3.204795 2.899254 0
M  V30 58 H 5.527364 -3.122184 2.013136 0
M  V30 59 H 4.446432 -3.120041 -0.135267 0
M  V30 60 H 2.861992 -3.245599 0.668969 0
M  V30 61 H 3.091861 -1.102275 1.724016 0
M  V30 62 H 4.792191 -0.881589 1.234961 0
M  V30 63 H 2.293243 -1.053593 -0.558976 0
M  V30 64 H 4.019391 -0.801463 -1.137856 0
M  V30 65 H 2.607386 1.164797 0.749045 0
M  V30 66 H 4.267124 1.218449 0.100357 0
M  V30 67 H 3.276592 1.207174 -2.207532 0
M  V30 68 H 1.652361 1.136641 -1.434666 0
M  V30 69 H 2.176313 3.314965 -0.180754 0
M  V30 70 H 3.762404 3.305566 -0.921435 0
M  V30 71 H 2.693626 5.030576 -2.028685 0
M  V30 72 H 3.023372 3.685320 -3.126213 0
M  V30 73 H 1.123886 4.873827 -3.726909 0
M  V30 74 H 0.186656 4.494351 -2.223133 0
M  V30 75 H 1.322877 2.605688 -4.364508 0
M  V30 76 H 0.470642 2.025909 -2.943497 0
M  V30 77 H -0.391457 3.936393 -5.117985 0
M  V30 78 H -0.801477 2.253975 -5.133107 0
M  V30 79 H -2.583813 4.004284 -4.676045 0
M  V30 80 H -1.623829 4.654453 -3.389896 0
M  V30 81 H -3.558760 3.923317 -2.553822 0
M  V30 82 H -2.235874 3.115417 -1.770591 0
M  V30 83 H -5.413261 0.301800 0.680564 0
M  V30 84 H -6.806110 1.273123 -0.086740 0
M  V30 85 H -7.104935 -0.805463 -1.566557 0
M  V30 86 H -7.560536 -1.064500 0.208106 0
M  V30 87 H -5.978315 -1.662672 -0.486267 0
M  V30 88 H -5.582624 1.373591 -3.511185 0
M  V30 89 H -4.642879 2.347497 -4.618365 0
M  V30 90 H -4.074669 0.403759 -5.650034 0
M  V30 91 H -4.750834 -0.562908 -4.236987 0
M  V30 92 H -1.891398 0.288653 -4.642287 0
M  V30 93 H -2.640134 -1.139602 -3.968085 0
M  V30 94 H -3.380236 -0.190356 -2.031302 0
M  V30 95 H -1.189986 -0.685579 2.121930 0
M  V30 96 H 0.178954 0.292971 1.585333 0
M  V30 97 H -2.025377 1.081078 3.579918 0
M  V30 98 H -0.339065 0.661042 3.875077 0
M  V30 99 H -2.608679 2.850108 2.301537 0
M  V30 100 H -1.624072 4.331364 2.529980 0
M  V30 101 H -2.338710 3.413666 3.960814 0
M  V30 102 H 1.333795 2.558047 2.217435 0
M  V30 103 H -0.034509 2.413208 1.044658 0
M  V30 104 H 0.344393 3.970090 1.813620 0
M  V30 105 H -0.195089 3.954430 4.499826 0
M  V30 106 H 1.140172 2.795642 4.165028 0
M  V30 107 H -0.245190 2.243089 5.116486 0
M  V30 END ATOM
M  V30 BEGIN BOND
M  V30 1 1 1 2
M  V30 2 1 2 3
M  V30 3 1 3 4
M  V30 4 1 4 5
M  V30 5 1 5 6
M  V30 6 1 6 7
M  V30 7 1 7 8
M  V30 8 1 8 9
M  V30 9 1 9 10
M  V30 10 1 10 11
M  V30 11 1 11 12
M  V30 12 1 12 13
M  V30 13 1 13 14
M  V30 14 1 14 15
M  V30 15 1 15 16
M  V30 16 1 16 17
M  V30 17 1 17 18
M  V30 18 1 18 19
M  V30 19 1 19 20
M  V30 20 1 21 20 CFG=3
M  V30 21 1 21 22
M  V30 22 2 22 23
M  V30 23 1 22 24
M  V30 24 1 24 25
M  V30 25 1 25 26
M  V30 26 1 21 27
M  V30 27 1 27 28
M  V30 28 1 28 29
M  V30 29 1 29 30
M  V30 30 1 30 31
M  V30 31 1 31 32
M  V30 32 2 32 33
M  V30 33 1 32 34
M  V30 34 1 32 35
M  V30 35 1 35 36
M  V30 36 1 36 37
M  V30 37 1 37 38
M  V30 38 1 38 39
M  V30 39 1 38 40
M  V30 40 1 38 41
M  V30 41 1 30 21
M  V30 42 1 1 42
M  V30 43 1 1 43
M  V30 44 1 1 44
M  V30 45 1 2 45
M  V30 46 1 2 46
M  V30 47 1 3 47
M  V30 48 1 3 48
M  V30 49 1 4 49
M  V30 50 1 4 50
M  V30 51 1 5 51
M  V30 52 1 5 52
M  V30 53 1 6 53
M  V30 54 1 6 54
M  V30 55 1 7 55
M  V30 56 1 7 56
M  V30 57 1 8 57
M  V30 58 1 8 58
M  V30 59 1 9 59
M  V30 60 1 9 60
M  V30 61 1 10 61
M  V30 62 1 10 62
M  V30 63 1 11 63
M  V30 64 1 11 64
M  V30 65 1 12 65
M  V30 66 1 12 66
M  V30 67 1 13 67
M  V30 68 1 13 68
M  V30 69 1 14 69
M  V30 70 1 14 70
M  V30 71 1 15 71
M  V30 72 1 15 72
M  V30 73 1 16 73
M  V30 74 1 16 74
M  V30 75 1 17 75
M  V30 76 1 17 76
M  V30 77 1 18 77
M  V30 78 1 18 78
M  V30 79 1 19 79
M  V30 80 1 19 80
M  V30 81 1 20 81
M  V30 82 1 20 82
M  V30 83 1 25 83
M  V30 84 1 25 84
M  V30 85 1 26 85
M  V30 86 1 26 86
M  V30 87 1 26 87
M  V30 88 1 27 88
M  V30 89 1 27 89
M  V30 90 1 28 90
M  V30 91 1 28 91
M  V30 92 1 29 92
M  V30 93 1 29 93
M  V30 94 1 30 94 CFG=1
M  V30 95 1 36 95
M  V30 96 1 36 96
M  V30 97 1 37 97
M  V30 98 1 37 98
M  V30 99 1 39 99
M  V30 100 1 39 100
M  V30 101 1 39 101
M  V30 102 1 40 102
M  V30 103 1 40 103
M  V30 104 1 40 104
M  V30 105 1 41 105
M  V30 106 1 41 106
M  V30 107 1 41 107
M  V30 END BOND
M  V30 END CTAB
M  END
>  <Dataset>  (674) 
ChEMBL_Kinases

>  <Ligand_Instance>  (674) 
nan

>  <PDB_ID>  (674) 
nan

>  <Standardized_SMILES>  (674) 
CCCCCCCCCCCCCCCCCCCC[C@@]1(C(=O)OCC)CCC[C@H]1OP(=O)([O-])OCC[N+](C)(C)C

>  <Name>  (674) 
nan

>  <Pocket>  (674) 
nan

>  <ATP_Site>  (674) 
nan

>  <Peripheral>  (674) 
nan

>  <Num_H_Atoms_ProtBoundConf>  (674) 
nan

>  <Num_Resolved_Atoms>  (674) 
nan

>  <Num_Not_Resolved_Atoms>  (674) 
nan

$$$$
CHEMBL2349078
     RDKit          3D

  0  0  0  0  0  0  0  0  0  0999 V3000
M  V30 BEGIN CTAB
M  V30 COUNTS 113 113 0 0 0
M  V30 BEGIN ATOM
M  V30 1 C -0.848655 -7.115487 3.552347 0
M  V30 2 C -0.802873 -6.804782 2.057095 0
M  V30 3 C 0.329920 -7.597292 1.466743 0
M  V30 4 C 0.466870 -7.361907 -0.028771 0
M  V30 5 C 0.729702 -5.908423 -0.326603 0
M  V30 6 C 2.012033 -5.417670 0.331394 0
M  V30 7 C 2.158413 -3.953010 -0.039627 0
M  V30 8 C 3.382107 -3.317916 0.535623 0
M  V30 9 C 3.528844 -1.847096 0.167956 0
M  V30 10 C 3.612499 -1.639430 -1.313281 0
M  V30 11 C 3.763922 -0.184050 -1.712527 0
M  V30 12 C 2.572412 0.635890 -1.219596 0
M  V30 13 C 2.703238 2.079300 -1.593693 0
M  V30 14 C 2.785523 2.299370 -3.103052 0
M  V30 15 C 3.006723 3.728831 -3.415813 0
M  V30 16 C 2.029945 4.769773 -3.111890 0
M  V30 17 C 0.772350 4.905423 -3.847805 0
M  V30 18 C -0.304092 3.944259 -3.931554 0
M  V30 19 C -0.931551 3.618463 -2.593941 0
M  V30 20 C -2.189260 2.799497 -2.785695 0
M  V30 21 C -2.069317 1.512076 -3.452960 0
M  V30 22 C -1.323285 0.393425 -2.786699 0
M  V30 23 C -1.900919 -0.127496 -1.532329 0 CFG=1
M  V30 24 C -3.326902 -0.619427 -1.764166 0
M  V30 25 O -4.300336 -0.119404 -1.144702 0
M  V30 26 O -3.500500 -1.643677 -2.689766 0
M  V30 27 C -4.761619 -2.187010 -2.996094 0
M  V30 28 C -5.623311 -1.070373 -3.534517 0
M  V30 29 C -1.178720 -1.515386 -1.305436 0
M  V30 30 C -1.689599 -1.896227 0.042378 0
M  V30 31 C -1.810106 -0.600662 0.792769 0
M  V30 32 C -1.751428 0.540740 -0.243058 0 CFG=1
M  V30 33 O -0.654507 1.321241 -0.015507 0
M  V30 34 P -0.970404 2.659676 0.960213 0
M  V30 35 O -2.450216 2.950258 0.909183 0
M  V30 36 O -0.133429 4.034395 0.514595 0 CHG=-1 VAL=1
M  V30 37 O -0.605416 2.349282 2.581136 0
M  V30 38 C -1.255320 3.201376 3.442027 0
M  V30 39 C -0.986463 2.962245 4.897977 0
M  V30 40 N -1.361105 1.659624 5.361529 0 CHG=1 VAL=4
M  V30 41 C -2.428254 1.700880 6.347992 0
M  V30 42 C -1.768506 0.757610 4.314948 0
M  V30 43 C -0.201358 1.069973 6.008428 0
M  V30 44 H -0.508292 -8.129686 3.781687 0
M  V30 45 H -1.894344 -6.899549 3.874322 0
M  V30 46 H -0.227840 -6.320306 4.042335 0
M  V30 47 H -0.652101 -5.702754 1.904097 0
M  V30 48 H -1.787021 -7.030471 1.624063 0
M  V30 49 H 0.085953 -8.665878 1.639285 0
M  V30 50 H 1.255071 -7.314448 1.973923 0
M  V30 51 H 1.238754 -8.019981 -0.424849 0
M  V30 52 H -0.480588 -7.627749 -0.540354 0
M  V30 53 H 0.907641 -5.836004 -1.424657 0
M  V30 54 H -0.110757 -5.285672 -0.014895 0
M  V30 55 H 1.883608 -5.449397 1.439425 0
M  V30 56 H 2.878879 -6.010229 0.025811 0
M  V30 57 H 1.233916 -3.422765 0.264363 0
M  V30 58 H 2.197908 -3.916689 -1.152659 0
M  V30 59 H 3.339666 -3.413904 1.633011 0
M  V30 60 H 4.279874 -3.866727 0.205088 0
M  V30 61 H 2.661787 -1.310656 0.597551 0
M  V30 62 H 4.479349 -1.513852 0.658701 0
M  V30 63 H 2.693438 -2.041337 -1.776987 0
M  V30 64 H 4.476723 -2.210382 -1.685307 0
M  V30 65 H 4.715576 0.248927 -1.353025 0
M  V30 66 H 3.724258 -0.164406 -2.816045 0
M  V30 67 H 2.665866 0.607136 -0.091405 0
M  V30 68 H 1.632279 0.177669 -1.492940 0
M  V30 69 H 3.676551 2.420981 -1.126558 0
M  V30 70 H 1.929391 2.663633 -1.100865 0
M  V30 71 H 3.737626 1.761377 -3.404746 0
M  V30 72 H 1.962594 1.823159 -3.624771 0
M  V30 73 H 3.214218 3.754442 -4.547218 0
M  V30 74 H 4.004361 3.993637 -2.914495 0
M  V30 75 H 2.547050 5.808044 -3.148937 0
M  V30 76 H 1.757509 4.753647 -1.978814 0
M  V30 77 H 1.044252 5.274321 -4.927326 0
M  V30 78 H 0.305525 5.935051 -3.494227 0
M  V30 79 H 0.067482 2.998242 -4.386700 0
M  V30 80 H -1.110376 4.384230 -4.602952 0
M  V30 81 H -1.187450 4.573287 -2.102876 0
M  V30 82 H -0.205720 3.039693 -2.029874 0
M  V30 83 H -2.690511 2.770266 -1.793344 0
M  V30 84 H -2.896637 3.445375 -3.401224 0
M  V30 85 H -3.106945 1.107561 -3.723252 0
M  V30 86 H -1.621205 1.660926 -4.483260 0
M  V30 87 H -0.252839 0.668775 -2.663319 0
M  V30 88 H -1.278376 -0.429700 -3.571453 0
M  V30 89 H -5.224535 -2.710640 -2.146650 0
M  V30 90 H -4.599212 -2.933056 -3.798586 0
M  V30 91 H -4.971322 -0.398031 -4.128478 0
M  V30 92 H -6.039615 -0.538492 -2.653478 0
M  V30 93 H -6.461710 -1.493238 -4.124109 0
M  V30 94 H -0.104830 -1.386787 -1.324840 0
M  V30 95 H -1.567112 -2.234073 -2.055635 0
M  V30 96 H -0.979747 -2.568576 0.577265 0
M  V30 97 H -2.691812 -2.411565 -0.046285 0
M  V30 98 H -2.805492 -0.580808 1.250258 0
M  V30 99 H -0.984035 -0.517456 1.509669 0
M  V30 100 H -2.648742 1.189735 -0.022619 0
M  V30 101 H -2.351585 3.265381 3.300040 0
M  V30 102 H -0.869065 4.234019 3.233040 0
M  V30 103 H 0.079202 3.200650 5.114783 0
M  V30 104 H -1.591648 3.708811 5.455911 0
M  V30 105 H -3.064603 0.772178 6.296460 0
M  V30 106 H -3.101413 2.562651 6.217873 0
M  V30 107 H -2.059715 1.745502 7.386790 0
M  V30 108 H -0.931622 0.229032 3.816162 0
M  V30 109 H -2.390338 -0.031347 4.793119 0
M  V30 110 H -2.456749 1.243290 3.578912 0
M  V30 111 H -0.230796 -0.037470 5.979458 0
M  V30 112 H -0.113134 1.349444 7.075464 0
M  V30 113 H 0.742882 1.348968 5.497828 0
M  V30 END ATOM
M  V30 BEGIN BOND
M  V30 1 1 1 2
M  V30 2 1 2 3
M  V30 3 1 3 4
M  V30 4 1 4 5
M  V30 5 1 5 6
M  V30 6 1 6 7
M  V30 7 1 7 8
M  V30 8 1 8 9
M  V30 9 1 9 10
M  V30 10 1 10 11
M  V30 11 1 11 12
M  V30 12 1 12 13
M  V30 13 1 13 14
M  V30 14 1 14 15
M  V30 15 1 15 16
M  V30 16 1 16 17
M  V30 17 1 17 18
M  V30 18 1 18 19
M  V30 19 1 19 20
M  V30 20 1 20 21
M  V30 21 1 21 22
M  V30 22 1 23 22 CFG=3
M  V30 23 1 23 24
M  V30 24 2 24 25
M  V30 25 1 24 26
M  V30 26 1 26 27
M  V30 27 1 27 28
M  V30 28 1 23 29
M  V30 29 1 29 30
M  V30 30 1 30 31
M  V30 31 1 31 32
M  V30 32 1 32 33
M  V30 33 1 33 34
M  V30 34 2 34 35
M  V30 35 1 34 36
M  V30 36 1 34 37
M  V30 37 1 37 38
M  V30 38 1 38 39
M  V30 39 1 39 40
M  V30 40 1 40 41
M  V30 41 1 40 42
M  V30 42 1 40 43
M  V30 43 1 32 23
M  V30 44 1 1 44
M  V30 45 1 1 45
M  V30 46 1 1 46
M  V30 47 1 2 47
M  V30 48 1 2 48
M  V30 49 1 3 49
M  V30 50 1 3 50
M  V30 51 1 4 51
M  V30 52 1 4 52
M  V30 53 1 5 53
M  V30 54 1 5 54
M  V30 55 1 6 55
M  V30 56 1 6 56
M  V30 57 1 7 57
M  V30 58 1 7 58
M  V30 59 1 8 59
M  V30 60 1 8 60
M  V30 61 1 9 61
M  V30 62 1 9 62
M  V30 63 1 10 63
M  V30 64 1 10 64
M  V30 65 1 11 65
M  V30 66 1 11 66
M  V30 67 1 12 67
M  V30 68 1 12 68
M  V30 69 1 13 69
M  V30 70 1 13 70
M  V30 71 1 14 71
M  V30 72 1 14 72
M  V30 73 1 15 73
M  V30 74 1 15 74
M  V30 75 1 16 75
M  V30 76 1 16 76
M  V30 77 1 17 77
M  V30 78 1 17 78
M  V30 79 1 18 79
M  V30 80 1 18 80
M  V30 81 1 19 81
M  V30 82 1 19 82
M  V30 83 1 20 83
M  V30 84 1 20 84
M  V30 85 1 21 85
M  V30 86 1 21 86
M  V30 87 1 22 87
M  V30 88 1 22 88
M  V30 89 1 27 89
M  V30 90 1 27 90
M  V30 91 1 28 91
M  V30 92 1 28 92
M  V30 93 1 28 93
M  V30 94 1 29 94
M  V30 95 1 29 95
M  V30 96 1 30 96
M  V30 97 1 30 97
M  V30 98 1 31 98
M  V30 99 1 31 99
M  V30 100 1 32 100 CFG=1
M  V30 101 1 38 101
M  V30 102 1 38 102
M  V30 103 1 39 103
M  V30 104 1 39 104
M  V30 105 1 41 105
M  V30 106 1 41 106
M  V30 107 1 41 107
M  V30 108 1 42 108
M  V30 109 1 42 109
M  V30 110 1 42 110
M  V30 111 1 43 111
M  V30 112 1 43 112
M  V30 113 1 43 113
M  V30 END BOND
M  V30 END CTAB
M  END
>  <Dataset>  (675) 
ChEMBL_Kinases

>  <Ligand_Instance>  (675) 
nan

>  <PDB_ID>  (675) 
nan

>  <Standardized_SMILES>  (675) 
CCCCCCCCCCCCCCCCCCCCCC[C@@]1(C(=O)OCC)CCC[C@H]1OP(=O)([O-])OCC[N+](C)(C)C

>  <Name>  (675) 
nan

>  <Pocket>  (675) 
nan

>  <ATP_Site>  (675) 
nan

>  <Peripheral>  (675) 
nan

>  <Num_H_Atoms_ProtBoundConf>  (675) 
nan

>  <Num_Resolved_Atoms>  (675) 
nan

>  <Num_Not_Resolved_Atoms>  (675) 
nan

$$$$
CHEMBL2349079
     RDKit          3D

  0  0  0  0  0  0  0  0  0  0999 V3000
M  V30 BEGIN CTAB
M  V30 COUNTS 86 86 0 0 0
M  V30 BEGIN ATOM
M  V30 1 C 3.259180 -2.556414 3.372258 0
M  V30 2 C 2.468725 -3.203419 4.466152 0
M  V30 3 C 2.051065 -4.620543 4.098123 0
M  V30 4 C 1.171471 -4.549662 2.806631 0
M  V30 5 C 0.793929 -5.937398 2.495124 0
M  V30 6 C -0.099488 -6.283704 1.394756 0
M  V30 7 C 0.159394 -5.967193 -0.007630 0
M  V30 8 C 0.194644 -4.485958 -0.397556 0
M  V30 9 C 0.447689 -4.349478 -1.859116 0
M  V30 10 C 0.605056 -3.036771 -2.480037 0
M  V30 11 C -0.438958 -1.995272 -2.484043 0
M  V30 12 C -0.848520 -1.417452 -1.182472 0
M  V30 13 C -1.909856 -0.323608 -1.383632 0
M  V30 14 C -2.371458 0.317192 -0.143074 0 CFG=1
M  V30 15 C -3.391752 1.405781 -0.427262 0
M  V30 16 O -4.152535 2.152048 -1.090338 0
M  V30 17 O -3.908641 2.134437 0.634485 0
M  V30 18 C -4.843435 3.153872 0.508599 0
M  V30 19 C -5.102025 3.647169 1.940984 0
M  V30 20 C -3.203100 -0.699622 0.619906 0
M  V30 21 C -3.380255 -0.074735 1.979486 0
M  V30 22 C -2.189244 0.778862 2.155282 0
M  V30 23 C -1.388842 0.758523 0.837045 0 CFG=2
M  V30 24 O -0.788942 1.944877 0.787020 0
M  V30 25 P 0.740418 2.322629 0.913644 0
M  V30 26 O 1.563367 1.071775 1.254567 0
M  V30 27 O 0.972643 3.351600 2.253937 0 CHG=-1 VAL=1
M  V30 28 O 1.557872 3.057163 -0.355099 0
M  V30 29 C 1.955791 2.110330 -1.284555 0
M  V30 30 C 2.698850 2.685840 -2.444012 0
M  V30 31 N 1.985539 3.648099 -3.221174 0 CHG=1 VAL=4
M  V30 32 C 1.754024 3.215995 -4.586288 0
M  V30 33 C 2.790385 4.868921 -3.311773 0
M  V30 34 C 0.717629 4.031461 -2.671289 0
M  V30 35 H 2.599006 -2.132903 2.575724 0
M  V30 36 H 3.880975 -3.362048 2.894478 0
M  V30 37 H 3.967545 -1.787564 3.767424 0
M  V30 38 H 3.066268 -3.194243 5.378895 0
M  V30 39 H 1.562609 -2.583991 4.695412 0
M  V30 40 H 2.947608 -5.210978 3.906776 0
M  V30 41 H 1.459300 -5.047255 4.921040 0
M  V30 42 H 0.394648 -3.831497 3.027706 0
M  V30 43 H 1.935979 -4.194877 2.041620 0
M  V30 44 H 1.752141 -6.542865 2.477966 0
M  V30 45 H 0.294086 -6.340003 3.445651 0
M  V30 46 H -0.344938 -7.391840 1.525579 0
M  V30 47 H -1.127649 -5.814427 1.670670 0
M  V30 48 H 1.170150 -6.378947 -0.277271 0
M  V30 49 H -0.619008 -6.474892 -0.641992 0
M  V30 50 H 0.912854 -3.896627 0.160863 0
M  V30 51 H -0.823009 -4.155444 -0.066007 0
M  V30 52 H 1.415341 -4.914868 -2.045097 0
M  V30 53 H -0.301887 -4.996943 -2.431825 0
M  V30 54 H 1.058165 -3.124171 -3.528374 0
M  V30 55 H 1.485463 -2.541076 -1.898686 0
M  V30 56 H -1.340254 -2.475606 -3.011802 0
M  V30 57 H -0.119444 -1.201139 -3.216931 0
M  V30 58 H -1.250410 -2.097107 -0.437770 0
M  V30 59 H 0.028924 -0.842918 -0.813035 0
M  V30 60 H -2.715386 -0.851870 -1.937899 0
M  V30 61 H -1.463224 0.355076 -2.140505 0
M  V30 62 H -5.810758 2.706228 0.173525 0
M  V30 63 H -4.535174 4.018742 -0.111743 0
M  V30 64 H -4.147946 4.097475 2.324650 0
M  V30 65 H -5.921053 4.361342 1.999924 0
M  V30 66 H -5.296038 2.782074 2.607237 0
M  V30 67 H -2.764864 -1.695760 0.679098 0
M  V30 68 H -4.244252 -0.739595 0.173772 0
M  V30 69 H -3.349867 -0.929364 2.716105 0
M  V30 70 H -4.359561 0.399561 2.101098 0
M  V30 71 H -2.468478 1.819614 2.447131 0
M  V30 72 H -1.564722 0.417394 2.999849 0
M  V30 73 H -0.649083 -0.052480 0.995081 0
M  V30 74 H 1.122528 1.488724 -1.657684 0
M  V30 75 H 2.651760 1.414237 -0.770585 0
M  V30 76 H 3.706860 3.064340 -2.161311 0
M  V30 77 H 2.921870 1.818478 -3.129339 0
M  V30 78 H 0.993501 3.908683 -5.002123 0
M  V30 79 H 1.303530 2.194633 -4.635620 0
M  V30 80 H 2.651085 3.330970 -5.225640 0
M  V30 81 H 2.684839 5.396802 -2.345143 0
M  V30 82 H 2.325763 5.495934 -4.101816 0
M  V30 83 H 3.827903 4.643086 -3.581583 0
M  V30 84 H 0.833357 4.728354 -1.819239 0
M  V30 85 H 0.158348 3.114234 -2.425881 0
M  V30 86 H 0.121456 4.563973 -3.433642 0
M  V30 END ATOM
M  V30 BEGIN BOND
M  V30 1 1 1 2
M  V30 2 1 2 3
M  V30 3 1 3 4
M  V30 4 1 4 5
M  V30 5 1 5 6
M  V30 6 1 6 7
M  V30 7 1 7 8
M  V30 8 1 8 9
M  V30 9 1 9 10
M  V30 10 1 10 11
M  V30 11 1 11 12
M  V30 12 1 12 13
M  V30 13 1 14 13 CFG=3
M  V30 14 1 14 15
M  V30 15 2 15 16
M  V30 16 1 15 17
M  V30 17 1 17 18
M  V30 18 1 18 19
M  V30 19 1 14 20
M  V30 20 1 20 21
M  V30 21 1 21 22
M  V30 22 1 22 23
M  V30 23 1 23 24
M  V30 24 1 24 25
M  V30 25 2 25 26
M  V30 26 1 25 27
M  V30 27 1 25 28
M  V30 28 1 28 29
M  V30 29 1 29 30
M  V30 30 1 30 31
M  V30 31 1 31 32
M  V30 32 1 31 33
M  V30 33 1 31 34
M  V30 34 1 23 14
M  V30 35 1 1 35
M  V30 36 1 1 36
M  V30 37 1 1 37
M  V30 38 1 2 38
M  V30 39 1 2 39
M  V30 40 1 3 40
M  V30 41 1 3 41
M  V30 42 1 4 42
M  V30 43 1 4 43
M  V30 44 1 5 44
M  V30 45 1 5 45
M  V30 46 1 6 46
M  V30 47 1 6 47
M  V30 48 1 7 48
M  V30 49 1 7 49
M  V30 50 1 8 50
M  V30 51 1 8 51
M  V30 52 1 9 52
M  V30 53 1 9 53
M  V30 54 1 10 54
M  V30 55 1 10 55
M  V30 56 1 11 56
M  V30 57 1 11 57
M  V30 58 1 12 58
M  V30 59 1 12 59
M  V30 60 1 13 60
M  V30 61 1 13 61
M  V30 62 1 18 62
M  V30 63 1 18 63
M  V30 64 1 19 64
M  V30 65 1 19 65
M  V30 66 1 19 66
M  V30 67 1 20 67
M  V30 68 1 20 68
M  V30 69 1 21 69
M  V30 70 1 21 70
M  V30 71 1 22 71
M  V30 72 1 22 72
M  V30 73 1 23 73 CFG=1
M  V30 74 1 29 74
M  V30 75 1 29 75
M  V30 76 1 30 76
M  V30 77 1 30 77
M  V30 78 1 32 78
M  V30 79 1 32 79
M  V30 80 1 32 80
M  V30 81 1 33 81
M  V30 82 1 33 82
M  V30 83 1 33 83
M  V30 84 1 34 84
M  V30 85 1 34 85
M  V30 86 1 34 86
M  V30 END BOND
M  V30 END CTAB
M  END
>  <Dataset>  (676) 
ChEMBL_Kinases

>  <Ligand_Instance>  (676) 
nan

>  <PDB_ID>  (676) 
nan

>  <Standardized_SMILES>  (676) 
CCCCCCCCCCCCC[C@@]1(C(=O)OCC)CCC[C@@H]1OP(=O)([O-])OCC[N+](C)(C)C

>  <Name>  (676) 
nan

>  <Pocket>  (676) 
nan

>  <ATP_Site>  (676) 
nan

>  <Peripheral>  (676) 
nan

>  <Num_H_Atoms_ProtBoundConf>  (676) 
nan

>  <Num_Resolved_Atoms>  (676) 
nan

>  <Num_Not_Resolved_Atoms>  (676) 
nan

$$$$
CHEMBL2349080
     RDKit          3D

  0  0  0  0  0  0  0  0  0  0999 V3000
M  V30 BEGIN CTAB
M  V30 COUNTS 95 95 0 0 0
M  V30 BEGIN ATOM
M  V30 1 C 0.904417 -1.701939 5.469978 0
M  V30 2 C 1.851233 -2.357482 4.430884 0
M  V30 3 C 2.628987 -3.434478 5.080716 0
M  V30 4 C 3.573318 -4.242685 4.306735 0
M  V30 5 C 4.766169 -3.729390 3.654792 0
M  V30 6 C 4.655312 -2.684600 2.577983 0
M  V30 7 C 6.056397 -2.440738 2.069341 0
M  V30 8 C 6.272390 -1.533570 0.950784 0
M  V30 9 C 5.889530 -0.116873 0.954656 0
M  V30 10 C 4.444036 0.241385 1.024588 0
M  V30 11 C 4.334027 1.772713 0.989703 0
M  V30 12 C 2.911492 2.223008 1.042473 0
M  V30 13 C 2.096305 1.710837 -0.124316 0
M  V30 14 C 0.687139 2.232338 0.042958 0
M  V30 15 C -0.249510 1.829917 -1.011808 0
M  V30 16 C -0.568771 0.438438 -1.304697 0
M  V30 17 C -1.198262 -0.481544 -0.377579 0 CFG=1
M  V30 18 C -1.378154 -1.817195 -1.114336 0
M  V30 19 O -1.048360 -3.033782 -1.053570 0
M  V30 20 O -2.170099 -1.606901 -2.214390 0
M  V30 21 C -2.575834 -2.565075 -3.152990 0
M  V30 22 C -3.378047 -3.696178 -2.544628 0
M  V30 23 C -0.317462 -0.858921 0.781237 0
M  V30 24 C -1.272418 -1.454017 1.809317 0
M  V30 25 C -2.624917 -0.836216 1.532955 0
M  V30 26 C -2.533731 -0.125854 0.191412 0 CFG=2
M  V30 27 O -3.618879 -0.590077 -0.551529 0
M  V30 28 P -4.770769 0.595446 -0.812310 0
M  V30 29 O -6.149441 -0.021085 -0.559568 0
M  V30 30 O -4.629537 1.834109 0.356140 0 CHG=-1 VAL=1
M  V30 31 O -4.689692 1.290403 -2.349739 0
M  V30 32 C -5.977722 1.448197 -2.818516 0
M  V30 33 C -6.026878 2.101953 -4.177615 0
M  V30 34 N -5.347999 1.394595 -5.212985 0 CHG=1 VAL=4
M  V30 35 C -3.914620 1.615997 -5.167094 0
M  V30 36 C -5.811422 1.965914 -6.487601 0
M  V30 37 C -5.664488 -0.012014 -5.291704 0
M  V30 38 H -0.088152 -1.614853 5.023060 0
M  V30 39 H 0.800242 -2.362251 6.360507 0
M  V30 40 H 1.273659 -0.718456 5.784708 0
M  V30 41 H 2.417852 -1.521463 4.027969 0
M  V30 42 H 1.202153 -2.829889 3.637740 0
M  V30 43 H 1.845538 -4.169800 5.484171 0
M  V30 44 H 3.090578 -3.071646 6.058948 0
M  V30 45 H 3.922851 -5.149245 4.937611 0
M  V30 46 H 2.964138 -4.806477 3.510224 0
M  V30 47 H 5.526028 -3.337501 4.409880 0
M  V30 48 H 5.325557 -4.612452 3.195797 0
M  V30 49 H 4.356337 -1.752055 3.132426 0
M  V30 50 H 4.012106 -2.968067 1.761228 0
M  V30 51 H 6.723568 -2.122887 2.930512 0
M  V30 52 H 6.505730 -3.446165 1.783176 0
M  V30 53 H 5.801395 -1.971050 -0.015008 0
M  V30 54 H 7.388007 -1.652005 0.672598 0
M  V30 55 H 6.291667 0.319103 -0.025501 0
M  V30 56 H 6.490996 0.472168 1.719512 0
M  V30 57 H 3.865051 -0.070193 1.871134 0
M  V30 58 H 3.978955 -0.090193 0.052653 0
M  V30 59 H 4.896631 2.181260 0.131909 0
M  V30 60 H 4.812825 2.109390 1.944172 0
M  V30 61 H 2.479175 1.917845 2.016255 0
M  V30 62 H 2.893726 3.317105 1.014202 0
M  V30 63 H 2.080834 0.613485 -0.201651 0
M  V30 64 H 2.497707 2.177912 -1.070775 0
M  V30 65 H 0.826756 3.372745 -0.110322 0
M  V30 66 H 0.400557 2.170853 1.082526 0
M  V30 67 H -1.182308 2.497798 -0.963506 0
M  V30 68 H 0.207939 2.239530 -1.982161 0
M  V30 69 H -1.233860 0.468081 -2.242057 0
M  V30 70 H 0.381966 -0.013500 -1.766127 0
M  V30 71 H -3.288222 -2.031831 -3.848740 0
M  V30 72 H -1.734247 -2.939082 -3.775361 0
M  V30 73 H -4.005299 -3.275528 -1.742953 0
M  V30 74 H -2.743057 -4.550828 -2.238729 0
M  V30 75 H -4.082385 -4.077819 -3.331349 0
M  V30 76 H 0.382512 -1.705141 0.510380 0
M  V30 77 H 0.317061 -0.093854 1.200705 0
M  V30 78 H -0.866407 -1.175352 2.801737 0
M  V30 79 H -1.283155 -2.560803 1.756060 0
M  V30 80 H -3.347991 -1.675743 1.531470 0
M  V30 81 H -2.827470 -0.135865 2.368301 0
M  V30 82 H -2.718568 0.926780 0.391293 0
M  V30 83 H -6.493226 2.138664 -2.119132 0
M  V30 84 H -6.520623 0.502873 -2.770435 0
M  V30 85 H -7.066401 2.300212 -4.475312 0
M  V30 86 H -5.539908 3.103041 -4.096504 0
M  V30 87 H -3.514975 2.007920 -6.124780 0
M  V30 88 H -3.382686 0.678233 -4.864320 0
M  V30 89 H -3.721236 2.401573 -4.396656 0
M  V30 90 H -6.837578 1.563881 -6.693994 0
M  V30 91 H -5.778022 3.065399 -6.431910 0
M  V30 92 H -5.167011 1.583696 -7.304593 0
M  V30 93 H -5.683555 -0.528091 -4.328988 0
M  V30 94 H -4.953716 -0.460198 -6.030496 0
M  V30 95 H -6.678318 -0.161881 -5.756263 0
M  V30 END ATOM
M  V30 BEGIN BOND
M  V30 1 1 1 2
M  V30 2 1 2 3
M  V30 3 1 3 4
M  V30 4 1 4 5
M  V30 5 1 5 6
M  V30 6 1 6 7
M  V30 7 1 7 8
M  V30 8 1 8 9
M  V30 9 1 9 10
M  V30 10 1 10 11
M  V30 11 1 11 12
M  V30 12 1 12 13
M  V30 13 1 13 14
M  V30 14 1 14 15
M  V30 15 1 15 16
M  V30 16 1 17 16 CFG=3
M  V30 17 1 17 18
M  V30 18 2 18 19
M  V30 19 1 18 20
M  V30 20 1 20 21
M  V30 21 1 21 22
M  V30 22 1 17 23
M  V30 23 1 23 24
M  V30 24 1 24 25
M  V30 25 1 25 26
M  V30 26 1 26 27
M  V30 27 1 27 28
M  V30 28 2 28 29
M  V30 29 1 28 30
M  V30 30 1 28 31
M  V30 31 1 31 32
M  V30 32 1 32 33
M  V30 33 1 33 34
M  V30 34 1 34 35
M  V30 35 1 34 36
M  V30 36 1 34 37
M  V30 37 1 26 17
M  V30 38 1 1 38
M  V30 39 1 1 39
M  V30 40 1 1 40
M  V30 41 1 2 41
M  V30 42 1 2 42
M  V30 43 1 3 43
M  V30 44 1 3 44
M  V30 45 1 4 45
M  V30 46 1 4 46
M  V30 47 1 5 47
M  V30 48 1 5 48
M  V30 49 1 6 49
M  V30 50 1 6 50
M  V30 51 1 7 51
M  V30 52 1 7 52
M  V30 53 1 8 53
M  V30 54 1 8 54
M  V30 55 1 9 55
M  V30 56 1 9 56
M  V30 57 1 10 57
M  V30 58 1 10 58
M  V30 59 1 11 59
M  V30 60 1 11 60
M  V30 61 1 12 61
M  V30 62 1 12 62
M  V30 63 1 13 63
M  V30 64 1 13 64
M  V30 65 1 14 65
M  V30 66 1 14 66
M  V30 67 1 15 67
M  V30 68 1 15 68
M  V30 69 1 16 69
M  V30 70 1 16 70
M  V30 71 1 21 71
M  V30 72 1 21 72
M  V30 73 1 22 73
M  V30 74 1 22 74
M  V30 75 1 22 75
M  V30 76 1 23 76
M  V30 77 1 23 77
M  V30 78 1 24 78
M  V30 79 1 24 79
M  V30 80 1 25 80
M  V30 81 1 25 81
M  V30 82 1 26 82 CFG=1
M  V30 83 1 32 83
M  V30 84 1 32 84
M  V30 85 1 33 85
M  V30 86 1 33 86
M  V30 87 1 35 87
M  V30 88 1 35 88
M  V30 89 1 35 89
M  V30 90 1 36 90
M  V30 91 1 36 91
M  V30 92 1 36 92
M  V30 93 1 37 93
M  V30 94 1 37 94
M  V30 95 1 37 95
M  V30 END BOND
M  V30 END CTAB
M  END
>  <Dataset>  (677) 
ChEMBL_Kinases

>  <Ligand_Instance>  (677) 
nan

>  <PDB_ID>  (677) 
nan

>  <Standardized_SMILES>  (677) 
CCCCCCCCCCCCCCCC[C@@]1(C(=O)OCC)CCC[C@@H]1OP(=O)([O-])OCC[N+](C)(C)C

>  <Name>  (677) 
nan

>  <Pocket>  (677) 
nan

>  <ATP_Site>  (677) 
nan

>  <Peripheral>  (677) 
nan

>  <Num_H_Atoms_ProtBoundConf>  (677) 
nan

>  <Num_Resolved_Atoms>  (677) 
nan

>  <Num_Not_Resolved_Atoms>  (677) 
nan

$$$$
CHEMBL2348979
     RDKit          3D

  0  0  0  0  0  0  0  0  0  0999 V3000
M  V30 BEGIN CTAB
M  V30 COUNTS 37 40 0 0 0
M  V30 BEGIN ATOM
M  V30 1 C 1.268058 -1.677417 3.771453 0
M  V30 2 C 1.641727 -0.739467 2.677548 0
M  V30 3 C 2.986035 -0.619484 2.384812 0
M  V30 4 C 3.297597 0.258403 1.365440 0
M  V30 5 N 4.529941 0.568532 0.873061 0
M  V30 6 N 4.375929 1.450820 -0.096373 0
M  V30 7 C 3.075498 1.709903 -0.233112 0
M  V30 8 C 2.372878 2.592889 -1.138666 0
M  V30 9 C 1.737869 2.398773 -2.291976 0
M  V30 10 C 1.140146 3.430548 -2.967618 0
M  V30 11 C 1.245994 4.707272 -2.355323 0
M  V30 12 S 2.220662 4.376668 -0.797270 0
M  V30 13 N 2.391406 0.971233 0.674339 0
M  V30 14 N 1.110174 0.814088 1.001237 0
M  V30 15 C 0.695966 -0.004985 1.966876 0
M  V30 16 S -1.032801 -0.201606 2.390722 0
M  V30 17 C -1.736390 -1.528265 1.418334 0
M  V30 18 C -2.266609 -1.073460 0.209051 0
M  V30 19 C -2.857451 -1.981018 -0.675157 0
M  V30 20 C -2.915422 -3.319793 -0.352503 0
M  V30 21 C -2.385055 -3.742125 0.846440 0
M  V30 22 C -2.407464 -5.172051 1.270036 0
M  V30 23 F -2.859465 -5.965439 0.236395 0
M  V30 24 F -1.120584 -5.541664 1.549778 0
M  V30 25 F -3.243486 -5.313213 2.355181 0
M  V30 26 C -1.798339 -2.870101 1.734036 0
M  V30 27 H 1.482490 -2.731780 3.451811 0
M  V30 28 H 1.814756 -1.454563 4.721288 0
M  V30 29 H 0.192021 -1.650322 4.005028 0
M  V30 30 H 3.779783 -1.157164 2.893112 0
M  V30 31 H 1.714927 1.386611 -2.672956 0
M  V30 32 H 0.610694 3.343823 -3.903869 0
M  V30 33 H 0.812971 5.642582 -2.781382 0
M  V30 34 H -2.274009 -0.056527 -0.138883 0
M  V30 35 H -3.277832 -1.663998 -1.619657 0
M  V30 36 H -3.368715 -4.043543 -1.021859 0
M  V30 37 H -1.356253 -3.100585 2.693598 0
M  V30 END ATOM
M  V30 BEGIN BOND
M  V30 1 1 1 2
M  V30 2 2 2 3
M  V30 3 1 3 4
M  V30 4 2 4 5
M  V30 5 1 5 6
M  V30 6 2 6 7
M  V30 7 1 7 8
M  V30 8 2 8 9
M  V30 9 1 9 10
M  V30 10 2 10 11
M  V30 11 1 11 12
M  V30 12 1 7 13
M  V30 13 1 13 14
M  V30 14 2 14 15
M  V30 15 1 15 16
M  V30 16 1 16 17
M  V30 17 2 17 18
M  V30 18 1 18 19
M  V30 19 2 19 20
M  V30 20 1 20 21
M  V30 21 1 21 22
M  V30 22 1 22 23
M  V30 23 1 22 24
M  V30 24 1 22 25
M  V30 25 2 21 26
M  V30 26 1 15 2
M  V30 27 1 26 17
M  V30 28 1 13 4
M  V30 29 1 12 8
M  V30 30 1 1 27
M  V30 31 1 1 28
M  V30 32 1 1 29
M  V30 33 1 3 30
M  V30 34 1 9 31
M  V30 35 1 10 32
M  V30 36 1 11 33
M  V30 37 1 18 34
M  V30 38 1 19 35
M  V30 39 1 20 36
M  V30 40 1 26 37
M  V30 END BOND
M  V30 END CTAB
M  END
>  <Dataset>  (678) 
ChEMBL_Kinases

>  <Ligand_Instance>  (678) 
nan

>  <PDB_ID>  (678) 
nan

>  <Standardized_SMILES>  (678) 
Cc1cc2nnc(-c3cccs3)n2nc1Sc1cccc(C(F)(F)F)c1

>  <Name>  (678) 
nan

>  <Pocket>  (678) 
nan

>  <ATP_Site>  (678) 
nan

>  <Peripheral>  (678) 
nan

>  <Num_H_Atoms_ProtBoundConf>  (678) 
nan

>  <Num_Resolved_Atoms>  (678) 
nan

>  <Num_Not_Resolved_Atoms>  (678) 
nan

$$$$
CHEMBL238125
     RDKit          3D

  0  0  0  0  0  0  0  0  0  0999 V3000
M  V30 BEGIN CTAB
M  V30 COUNTS 35 38 0 0 0
M  V30 BEGIN ATOM
M  V30 1 F 0.659344 -4.234114 2.703379 0
M  V30 2 C 1.795468 -4.115342 1.971337 0
M  V30 3 C 2.768225 -5.083614 2.060175 0
M  V30 4 C 3.940340 -4.966164 1.308532 0
M  V30 5 C 4.068037 -3.857260 0.493422 0
M  V30 6 Cl 5.578307 -3.810818 -0.405218 0
M  V30 7 C 3.104255 -2.880329 0.393108 0
M  V30 8 C 1.956034 -3.015972 1.143421 0
M  V30 9 C 0.896734 -2.013080 1.080703 0
M  V30 10 N 0.996511 -0.924815 0.319693 0
M  V30 11 C 0.027896 0.000446 0.257129 0
M  V30 12 N 0.212965 1.107328 -0.581276 0
M  V30 13 C -0.464576 2.324221 -0.807265 0
M  V30 14 C -0.839074 3.115779 0.275320 0
M  V30 15 C -1.523633 4.274368 -0.034970 0
M  V30 16 N -1.853072 4.697706 -1.261759 0
M  V30 17 C -1.505920 3.959252 -2.317702 0
M  V30 18 C -0.821993 2.794004 -2.073264 0
M  V30 19 C -1.109540 -0.220392 1.030748 0
M  V30 20 N -2.112659 0.660346 1.002744 0
M  V30 21 C -3.253531 0.538800 1.702211 0
M  V30 22 C -3.363166 -0.587099 2.495081 0
M  V30 23 N -2.355412 -1.489759 2.534527 0
M  V30 24 C -1.236621 -1.330139 1.821627 0
M  V30 25 N -0.223237 -2.182327 1.812123 0
M  V30 26 H 2.612899 -5.946219 2.726155 0
M  V30 27 H 4.670971 -5.759962 1.415044 0
M  V30 28 H 3.265208 -2.040355 -0.268043 0
M  V30 29 H 1.022195 1.128812 -1.234012 0
M  V30 30 H -0.624961 2.903189 1.319514 0
M  V30 31 H -1.827625 4.916532 0.783672 0
M  V30 32 H -1.761307 4.286233 -3.314411 0
M  V30 33 H -0.542491 2.202580 -2.945810 0
M  V30 34 H -3.968758 1.341910 1.570853 0
M  V30 35 H -4.293650 -0.665198 3.052501 0
M  V30 END ATOM
M  V30 BEGIN BOND
M  V30 1 1 1 2
M  V30 2 2 2 3
M  V30 3 1 3 4
M  V30 4 2 4 5
M  V30 5 1 5 6
M  V30 6 1 5 7
M  V30 7 2 7 8
M  V30 8 1 8 9
M  V30 9 2 9 10
M  V30 10 1 10 11
M  V30 11 1 11 12
M  V30 12 1 12 13
M  V30 13 2 13 14
M  V30 14 1 14 15
M  V30 15 2 15 16
M  V30 16 1 16 17
M  V30 17 2 17 18
M  V30 18 2 11 19
M  V30 19 1 19 20
M  V30 20 2 20 21
M  V30 21 1 21 22
M  V30 22 2 22 23
M  V30 23 1 23 24
M  V30 24 2 24 25
M  V30 25 1 8 2
M  V30 26 1 25 9
M  V30 27 1 18 13
M  V30 28 1 24 19
M  V30 29 1 3 26
M  V30 30 1 4 27
M  V30 31 1 7 28
M  V30 32 1 12 29
M  V30 33 1 14 30
M  V30 34 1 15 31
M  V30 35 1 17 32
M  V30 36 1 18 33
M  V30 37 1 21 34
M  V30 38 1 22 35
M  V30 END BOND
M  V30 END CTAB
M  END
>  <Dataset>  (679) 
ChEMBL_Kinases

>  <Ligand_Instance>  (679) 
nan

>  <PDB_ID>  (679) 
nan

>  <Standardized_SMILES>  (679) 
Fc1ccc(Cl)cc1-c1nc(Nc2ccncc2)c2nccnc2n1

>  <Name>  (679) 
nan

>  <Pocket>  (679) 
nan

>  <ATP_Site>  (679) 
nan

>  <Peripheral>  (679) 
nan

>  <Num_H_Atoms_ProtBoundConf>  (679) 
nan

>  <Num_Resolved_Atoms>  (679) 
nan

>  <Num_Not_Resolved_Atoms>  (679) 
nan

$$$$
CHEMBL2381249
     RDKit          3D

  0  0  0  0  0  0  0  0  0  0999 V3000
M  V30 BEGIN CTAB
M  V30 COUNTS 51 55 0 0 0
M  V30 BEGIN ATOM
M  V30 1 O 2.321902 -2.505873 1.964700 0
M  V30 2 C 1.260563 -1.925984 1.643362 0
M  V30 3 N 1.344234 -1.081991 0.540113 0
M  V30 4 C 2.126659 -0.518808 -0.487626 0
M  V30 5 C 2.173365 -1.117451 -1.730111 0
M  V30 6 C 2.931596 -0.591437 -2.770479 0
M  V30 7 C 3.617074 0.562475 -2.447052 0
M  V30 8 C 3.607465 1.204541 -1.222154 0
M  V30 9 C 2.831808 0.633498 -0.216036 0
M  V30 10 N 2.898694 1.342415 1.013162 0
M  V30 11 C 3.496419 0.766718 2.176368 0
M  V30 12 C 2.670773 0.928639 3.436789 0
M  V30 13 N 2.151080 2.262823 3.569890 0
M  V30 14 C 2.685884 3.172284 2.595603 0
M  V30 15 C 2.381338 2.691058 1.219662 0
M  V30 16 C 0.000214 -2.114684 2.375098 0
M  V30 17 C 0.107780 -2.886071 3.511774 0
M  V30 18 S -1.720202 -2.859889 4.070334 0
M  V30 19 C -2.204275 -1.859707 2.708195 0
M  V30 20 N -3.480665 -1.272025 2.228351 0
M  V30 21 C -4.290196 -2.098429 1.402130 0
M  V30 22 N -5.320398 -2.896375 1.731082 0
M  V30 23 N -5.826194 -3.515882 0.687931 0
M  V30 24 C -5.139645 -3.150700 -0.411635 0
M  V30 25 C -5.184946 -3.447925 -1.765046 0
M  V30 26 C -4.289261 -2.874074 -2.665631 0
M  V30 27 C -3.319418 -1.984823 -2.244932 0
M  V30 28 C -3.292084 -1.702364 -0.892535 0
M  V30 29 C -4.172230 -2.256796 0.042936 0
M  V30 30 N -1.175698 -1.612116 1.995393 0
M  V30 31 H 0.438073 -0.588524 0.275292 0
M  V30 32 H 1.613535 -2.016552 -1.916757 0
M  V30 33 H 2.988737 -1.035927 -3.753425 0
M  V30 34 H 4.215060 0.986883 -3.251834 0
M  V30 35 H 4.203661 2.120279 -1.102834 0
M  V30 36 H 3.860152 -0.251681 2.077428 0
M  V30 37 H 4.428939 1.381968 2.376026 0
M  V30 38 H 1.839135 0.213901 3.516636 0
M  V30 39 H 3.325593 0.771002 4.343268 0
M  V30 40 H 1.116422 2.283620 3.518993 0
M  V30 41 H 3.779967 3.317612 2.693272 0
M  V30 42 H 2.142197 4.143499 2.751959 0
M  V30 43 H 1.305227 2.672700 0.992941 0
M  V30 44 H 2.895206 3.306044 0.436334 0
M  V30 45 H 0.872495 -3.380285 4.014118 0
M  V30 46 H -3.902109 -0.337122 2.394490 0
M  V30 47 H -6.609816 -4.190022 0.585238 0
M  V30 48 H -5.941389 -4.143543 -2.102371 0
M  V30 49 H -4.361317 -3.136520 -3.715743 0
M  V30 50 H -2.614446 -1.526432 -2.916414 0
M  V30 51 H -2.539253 -1.008653 -0.551592 0
M  V30 END ATOM
M  V30 BEGIN BOND
M  V30 1 2 1 2
M  V30 2 1 2 3
M  V30 3 1 3 4
M  V30 4 2 4 5
M  V30 5 1 5 6
M  V30 6 2 6 7
M  V30 7 1 7 8
M  V30 8 2 8 9
M  V30 9 1 9 10
M  V30 10 1 10 11
M  V30 11 1 11 12
M  V30 12 1 12 13
M  V30 13 1 13 14
M  V30 14 1 14 15
M  V30 15 1 2 16
M  V30 16 2 16 17
M  V30 17 1 17 18
M  V30 18 1 18 19
M  V30 19 1 19 20
M  V30 20 1 20 21
M  V30 21 2 21 22
M  V30 22 1 22 23
M  V30 23 1 23 24
M  V30 24 2 24 25
M  V30 25 1 25 26
M  V30 26 2 26 27
M  V30 27 1 27 28
M  V30 28 2 28 29
M  V30 29 2 19 30
M  V30 30 1 9 4
M  V30 31 1 15 10
M  V30 32 1 30 16
M  V30 33 1 29 21
M  V30 34 1 29 24
M  V30 35 1 3 31
M  V30 36 1 5 32
M  V30 37 1 6 33
M  V30 38 1 7 34
M  V30 39 1 8 35
M  V30 40 1 11 36
M  V30 41 1 11 37
M  V30 42 1 12 38
M  V30 43 1 12 39
M  V30 44 1 13 40
M  V30 45 1 14 41
M  V30 46 1 14 42
M  V30 47 1 15 43
M  V30 48 1 15 44
M  V30 49 1 17 45
M  V30 50 1 20 46
M  V30 51 1 23 47
M  V30 52 1 25 48
M  V30 53 1 26 49
M  V30 54 1 27 50
M  V30 55 1 28 51
M  V30 END BOND
M  V30 END CTAB
M  END
>  <Dataset>  (680) 
ChEMBL_Kinases

>  <Ligand_Instance>  (680) 
nan

>  <PDB_ID>  (680) 
nan

>  <Standardized_SMILES>  (680) 
O=C(Nc1ccccc1N1CCNCC1)c1csc(Nc2n[nH]c3ccccc23)n1

>  <Name>  (680) 
nan

>  <Pocket>  (680) 
nan

>  <ATP_Site>  (680) 
nan

>  <Peripheral>  (680) 
nan

>  <Num_H_Atoms_ProtBoundConf>  (680) 
nan

>  <Num_Resolved_Atoms>  (680) 
nan

>  <Num_Not_Resolved_Atoms>  (680) 
nan

$$$$
CHEMBL2381248
     RDKit          3D

  0  0  0  0  0  0  0  0  0  0999 V3000
M  V30 BEGIN CTAB
M  V30 COUNTS 55 59 0 0 0
M  V30 BEGIN ATOM
M  V30 1 C 8.205199 -0.633412 2.086368 0
M  V30 2 O 7.819809 -1.202344 0.847764 0
M  V30 3 C 6.568310 -0.864787 0.352126 0
M  V30 4 C 6.132446 -1.392208 -0.860693 0
M  V30 5 C 4.874801 -1.035747 -1.331535 0
M  V30 6 C 4.018346 -0.191872 -0.682578 0
M  V30 7 C 4.455198 0.319516 0.505328 0
M  V30 8 C 5.713200 -0.001070 1.033850 0
M  V30 9 C 3.471586 1.200503 1.114541 0
M  V30 10 O 3.406607 1.883708 2.164754 0
M  V30 11 N 2.399805 1.188505 0.208004 0
M  V30 12 C 1.051078 1.863511 0.195840 0
M  V30 13 N 0.094603 1.452619 0.617474 0
M  V30 14 C -1.130203 1.948510 0.663197 0
M  V30 15 C -2.317826 1.323397 1.239556 0
M  V30 16 O -3.467547 1.827251 1.258964 0
M  V30 17 N -2.285383 0.043927 1.853387 0
M  V30 18 C -3.297516 -0.729840 2.460071 0
M  V30 19 C -3.687226 -0.726202 3.770483 0
M  V30 20 C -4.705913 -1.548508 4.240987 0
M  V30 21 C -5.315905 -2.377394 3.326904 0
M  V30 22 C -4.950502 -2.411905 1.987692 0
M  V30 23 C -3.935896 -1.582912 1.554755 0
M  V30 24 N -3.645304 -1.704220 0.148934 0
M  V30 25 C -3.709140 -0.737684 -0.925861 0
M  V30 26 C -4.408782 -1.447774 -2.092830 0
M  V30 27 N -3.469067 -2.384809 -2.680269 0
M  V30 28 C -2.569209 -2.935150 -1.686001 0
M  V30 29 C -3.210132 -2.991361 -0.316895 0
M  V30 30 C -1.239476 3.202417 0.082493 0
M  V30 31 S 0.519618 3.538310 -0.490106 0
M  V30 32 C 2.654467 0.354134 -0.940468 0
M  V30 33 H 9.130317 -1.031687 2.502040 0
M  V30 34 H 7.387267 -0.897324 2.819861 0
M  V30 35 H 8.176379 0.491843 2.067749 0
M  V30 36 H 6.739728 -2.073443 -1.453943 0
M  V30 37 H 4.571104 -1.477615 -2.295726 0
M  V30 38 H 6.057950 0.414453 1.990003 0
M  V30 39 H -1.376850 -0.497798 1.908925 0
M  V30 40 H -3.136611 -0.032631 4.402942 0
M  V30 41 H -4.980678 -1.511537 5.288059 0
M  V30 42 H -6.115117 -3.009437 3.742214 0
M  V30 43 H -5.496454 -3.100518 1.356912 0
M  V30 44 H -2.686951 -0.414916 -1.189067 0
M  V30 45 H -4.387971 0.115569 -0.684348 0
M  V30 46 H -5.239305 -2.040608 -1.629311 0
M  V30 47 H -4.729274 -0.749611 -2.869118 0
M  V30 48 H -4.021317 -3.122434 -3.178206 0
M  V30 49 H -2.324243 -3.972099 -1.986455 0
M  V30 50 H -1.624696 -2.360369 -1.668082 0
M  V30 51 H -2.399088 -3.380239 0.366159 0
M  V30 52 H -4.027214 -3.732384 -0.323467 0
M  V30 53 H -2.138117 3.845304 -0.019193 0
M  V30 54 H 2.576033 0.869157 -1.903753 0
M  V30 55 H 1.950146 -0.519721 -0.843185 0
M  V30 END ATOM
M  V30 BEGIN BOND
M  V30 1 1 1 2
M  V30 2 1 2 3
M  V30 3 2 3 4
M  V30 4 1 4 5
M  V30 5 2 5 6
M  V30 6 1 6 7
M  V30 7 2 7 8
M  V30 8 1 7 9
M  V30 9 2 9 10
M  V30 10 1 9 11
M  V30 11 1 11 12
M  V30 12 2 12 13
M  V30 13 1 13 14
M  V30 14 1 14 15
M  V30 15 2 15 16
M  V30 16 1 15 17
M  V30 17 1 17 18
M  V30 18 2 18 19
M  V30 19 1 19 20
M  V30 20 2 20 21
M  V30 21 1 21 22
M  V30 22 2 22 23
M  V30 23 1 23 24
M  V30 24 1 24 25
M  V30 25 1 25 26
M  V30 26 1 26 27
M  V30 27 1 27 28
M  V30 28 1 28 29
M  V30 29 2 14 30
M  V30 30 1 30 31
M  V30 31 1 11 32
M  V30 32 1 8 3
M  V30 33 1 31 12
M  V30 34 1 32 6
M  V30 35 1 23 18
M  V30 36 1 29 24
M  V30 37 1 1 33
M  V30 38 1 1 34
M  V30 39 1 1 35
M  V30 40 1 4 36
M  V30 41 1 5 37
M  V30 42 1 8 38
M  V30 43 1 17 39
M  V30 44 1 19 40
M  V30 45 1 20 41
M  V30 46 1 21 42
M  V30 47 1 22 43
M  V30 48 1 25 44
M  V30 49 1 25 45
M  V30 50 1 26 46
M  V30 51 1 26 47
M  V30 52 1 27 48
M  V30 53 1 28 49
M  V30 54 1 28 50
M  V30 55 1 29 51
M  V30 56 1 29 52
M  V30 57 1 30 53
M  V30 58 1 32 54
M  V30 59 1 32 55
M  V30 END BOND
M  V30 END CTAB
M  END
>  <Dataset>  (681) 
ChEMBL_Kinases

>  <Ligand_Instance>  (681) 
nan

>  <PDB_ID>  (681) 
nan

>  <Standardized_SMILES>  (681) 
COc1ccc2c(c1)C(=O)N(c1nc(C(=O)Nc3ccccc3N3CCNCC3)cs1)C2

>  <Name>  (681) 
nan

>  <Pocket>  (681) 
nan

>  <ATP_Site>  (681) 
nan

>  <Peripheral>  (681) 
nan

>  <Num_H_Atoms_ProtBoundConf>  (681) 
nan

>  <Num_Resolved_Atoms>  (681) 
nan

>  <Num_Not_Resolved_Atoms>  (681) 
nan

$$$$
CHEMBL2381247
     RDKit          3D

  0  0  0  0  0  0  0  0  0  0999 V3000
M  V30 BEGIN CTAB
M  V30 COUNTS 48 52 0 0 0
M  V30 BEGIN ATOM
M  V30 1 O 2.716457 -2.391067 0.341691 0
M  V30 2 C 1.531220 -2.000090 0.453920 0
M  V30 3 N 1.199224 -0.885170 -0.362396 0
M  V30 4 C 1.735837 0.007266 -1.314969 0
M  V30 5 C 1.587008 -0.491700 -2.610716 0
M  V30 6 C 2.049439 0.251961 -3.681935 0
M  V30 7 C 2.645586 1.469137 -3.429423 0
M  V30 8 C 2.776513 1.931930 -2.137867 0
M  V30 9 C 2.327430 1.216436 -1.055383 0
M  V30 10 N 2.488087 1.721114 0.249269 0
M  V30 11 C 3.012604 3.033110 0.543320 0
M  V30 12 C 1.951375 3.794900 1.362249 0
M  V30 13 N 1.848966 3.203748 2.688933 0
M  V30 14 C 2.459380 1.889183 2.716363 0
M  V30 15 C 2.189635 1.060829 1.499501 0
M  V30 16 C 0.551491 -2.612842 1.335853 0
M  V30 17 C 1.011108 -3.698763 2.080084 0
M  V30 18 S -0.524483 -4.155188 3.037428 0
M  V30 19 C -1.499110 -2.749699 2.215763 0
M  V30 20 N -2.865078 -2.403009 2.432735 0
M  V30 21 N -3.308711 -1.314092 3.051477 0
M  V30 22 N -4.648467 -1.369840 3.042028 0
M  V30 23 C -5.032546 -2.497853 2.414834 0
M  V30 24 C -6.266525 -3.041366 2.129741 0
M  V30 25 C -6.396724 -4.247594 1.454483 0
M  V30 26 C -5.235186 -4.893238 1.072959 0
M  V30 27 C -3.981639 -4.374069 1.344062 0
M  V30 28 C -3.888422 -3.174342 2.016273 0
M  V30 29 N -0.712856 -2.208997 1.466736 0
M  V30 30 H 0.193942 -0.538994 -0.298476 0
M  V30 31 H 1.130648 -1.434847 -2.875886 0
M  V30 32 H 1.948868 -0.107286 -4.696610 0
M  V30 33 H 2.992960 2.015613 -4.310431 0
M  V30 34 H 3.261551 2.889141 -2.108708 0
M  V30 35 H 3.205690 3.675805 -0.312268 0
M  V30 36 H 3.887090 2.940929 1.228156 0
M  V30 37 H 0.953582 3.741444 0.886253 0
M  V30 38 H 2.235321 4.866751 1.395993 0
M  V30 39 H 2.429564 3.805826 3.321964 0
M  V30 40 H 3.540876 1.895273 2.920937 0
M  V30 41 H 2.000378 1.340712 3.573252 0
M  V30 42 H 2.934723 0.210041 1.557464 0
M  V30 43 H 1.155673 0.651261 1.487936 0
M  V30 44 H 1.956055 -4.204505 2.154186 0
M  V30 45 H -7.197972 -2.553179 2.419091 0
M  V30 46 H -7.316827 -4.741794 1.191961 0
M  V30 47 H -5.240577 -5.846109 0.537939 0
M  V30 48 H -3.049134 -4.843990 1.064960 0
M  V30 END ATOM
M  V30 BEGIN BOND
M  V30 1 2 1 2
M  V30 2 1 2 3
M  V30 3 1 3 4
M  V30 4 2 4 5
M  V30 5 1 5 6
M  V30 6 2 6 7
M  V30 7 1 7 8
M  V30 8 2 8 9
M  V30 9 1 9 10
M  V30 10 1 10 11
M  V30 11 1 11 12
M  V30 12 1 12 13
M  V30 13 1 13 14
M  V30 14 1 14 15
M  V30 15 1 2 16
M  V30 16 2 16 17
M  V30 17 1 17 18
M  V30 18 1 18 19
M  V30 19 1 19 20
M  V30 20 1 20 21
M  V30 21 2 21 22
M  V30 22 1 22 23
M  V30 23 2 23 24
M  V30 24 1 24 25
M  V30 25 2 25 26
M  V30 26 1 26 27
M  V30 27 2 27 28
M  V30 28 2 19 29
M  V30 29 1 9 4
M  V30 30 1 15 10
M  V30 31 1 29 16
M  V30 32 1 28 20
M  V30 33 1 28 23
M  V30 34 1 3 30
M  V30 35 1 5 31
M  V30 36 1 6 32
M  V30 37 1 7 33
M  V30 38 1 8 34
M  V30 39 1 11 35
M  V30 40 1 11 36
M  V30 41 1 12 37
M  V30 42 1 12 38
M  V30 43 1 13 39
M  V30 44 1 14 40
M  V30 45 1 14 41
M  V30 46 1 15 42
M  V30 47 1 15 43
M  V30 48 1 17 44
M  V30 49 1 24 45
M  V30 50 1 25 46
M  V30 51 1 26 47
M  V30 52 1 27 48
M  V30 END BOND
M  V30 END CTAB
M  END
>  <Dataset>  (682) 
ChEMBL_Kinases

>  <Ligand_Instance>  (682) 
nan

>  <PDB_ID>  (682) 
nan

>  <Standardized_SMILES>  (682) 
O=C(Nc1ccccc1N1CCNCC1)c1csc(-n2nnc3ccccc32)n1

>  <Name>  (682) 
nan

>  <Pocket>  (682) 
nan

>  <ATP_Site>  (682) 
nan

>  <Peripheral>  (682) 
nan

>  <Num_H_Atoms_ProtBoundConf>  (682) 
nan

>  <Num_Resolved_Atoms>  (682) 
nan

>  <Num_Not_Resolved_Atoms>  (682) 
nan

$$$$
CHEMBL2381246
     RDKit          3D

  0  0  0  0  0  0  0  0  0  0999 V3000
M  V30 BEGIN CTAB
M  V30 COUNTS 49 53 0 0 0
M  V30 BEGIN ATOM
M  V30 1 O 0.802729 -1.291139 -0.234089 0
M  V30 2 C -0.064758 -0.383206 -0.211847 0
M  V30 3 N 0.452919 0.786337 -0.798142 0
M  V30 4 C 1.788400 0.760005 -1.291586 0
M  V30 5 C 1.956842 0.378885 -2.611180 0
M  V30 6 C 3.220794 0.326854 -3.168404 0
M  V30 7 C 4.306560 0.665426 -2.371508 0
M  V30 8 C 4.108686 1.043737 -1.052321 0
M  V30 9 C 2.848423 1.101925 -0.475728 0
M  V30 10 N 2.660200 1.491915 0.879443 0
M  V30 11 C 1.857771 2.645154 1.241584 0
M  V30 12 C 2.192355 3.154489 2.612427 0
M  V30 13 N 3.567516 3.072773 2.976090 0
M  V30 14 C 4.218964 1.833474 2.701416 0
M  V30 15 C 3.179270 0.882621 2.098473 0
M  V30 16 C -1.442641 -0.428007 0.321364 0
M  V30 17 C -2.354589 0.605182 0.318399 0
M  V30 18 S -3.827359 -0.232619 1.152804 0
M  V30 19 C -2.900080 -1.790398 1.325648 0
M  V30 20 N -3.641673 -2.867123 1.965065 0
M  V30 21 N -4.046732 -2.880723 3.213252 0
M  V30 22 C -4.707231 -4.029901 3.485162 0
M  V30 23 C -4.695175 -4.762347 2.301324 0
M  V30 24 C -5.174041 -5.991475 1.878880 0
M  V30 25 C -4.971520 -6.414013 0.583018 0
M  V30 26 C -4.291004 -5.653668 -0.360029 0
M  V30 27 C -3.816344 -4.429768 0.067413 0
M  V30 28 C -4.014021 -3.989892 1.375223 0
M  V30 29 N -1.851776 -1.553856 0.852195 0
M  V30 30 H -0.136443 1.669584 -0.872233 0
M  V30 31 H 1.094568 0.117262 -3.219909 0
M  V30 32 H 3.304012 0.025045 -4.198158 0
M  V30 33 H 5.281059 0.613715 -2.839701 0
M  V30 34 H 4.985082 1.300434 -0.464317 0
M  V30 35 H 0.770953 2.450288 1.209517 0
M  V30 36 H 2.165791 3.466621 0.533446 0
M  V30 37 H 1.605335 2.641735 3.402023 0
M  V30 38 H 1.896810 4.223126 2.674376 0
M  V30 39 H 4.128436 3.924141 2.899684 0
M  V30 40 H 5.053296 1.913977 1.976475 0
M  V30 41 H 4.540281 1.347458 3.644335 0
M  V30 42 H 2.411429 0.617828 2.823076 0
M  V30 43 H 3.761431 -0.050305 1.852211 0
M  V30 44 H -2.029409 1.669493 -0.160253 0
M  V30 45 H -5.175787 -4.390963 4.388672 0
M  V30 46 H -5.704863 -6.593131 2.601086 0
M  V30 47 H -5.338881 -7.370037 0.238453 0
M  V30 48 H -4.106357 -5.935184 -1.379214 0
M  V30 49 H -3.276332 -3.799180 -0.638316 0
M  V30 END ATOM
M  V30 BEGIN BOND
M  V30 1 2 1 2
M  V30 2 1 2 3
M  V30 3 1 3 4
M  V30 4 2 4 5
M  V30 5 1 5 6
M  V30 6 2 6 7
M  V30 7 1 7 8
M  V30 8 2 8 9
M  V30 9 1 9 10
M  V30 10 1 10 11
M  V30 11 1 11 12
M  V30 12 1 12 13
M  V30 13 1 13 14
M  V30 14 1 14 15
M  V30 15 1 2 16
M  V30 16 2 16 17
M  V30 17 1 17 18
M  V30 18 1 18 19
M  V30 19 1 19 20
M  V30 20 1 20 21
M  V30 21 2 21 22
M  V30 22 1 22 23
M  V30 23 2 23 24
M  V30 24 1 24 25
M  V30 25 2 25 26
M  V30 26 1 26 27
M  V30 27 2 27 28
M  V30 28 2 19 29
M  V30 29 1 9 4
M  V30 30 1 15 10
M  V30 31 1 29 16
M  V30 32 1 28 20
M  V30 33 1 28 23
M  V30 34 1 3 30
M  V30 35 1 5 31
M  V30 36 1 6 32
M  V30 37 1 7 33
M  V30 38 1 8 34
M  V30 39 1 11 35
M  V30 40 1 11 36
M  V30 41 1 12 37
M  V30 42 1 12 38
M  V30 43 1 13 39
M  V30 44 1 14 40
M  V30 45 1 14 41
M  V30 46 1 15 42
M  V30 47 1 15 43
M  V30 48 1 17 44
M  V30 49 1 22 45
M  V30 50 1 24 46
M  V30 51 1 25 47
M  V30 52 1 26 48
M  V30 53 1 27 49
M  V30 END BOND
M  V30 END CTAB
M  END
>  <Dataset>  (683) 
ChEMBL_Kinases

>  <Ligand_Instance>  (683) 
nan

>  <PDB_ID>  (683) 
nan

>  <Standardized_SMILES>  (683) 
O=C(Nc1ccccc1N1CCNCC1)c1csc(-n2ncc3ccccc32)n1

>  <Name>  (683) 
nan

>  <Pocket>  (683) 
nan

>  <ATP_Site>  (683) 
nan

>  <Peripheral>  (683) 
nan

>  <Num_H_Atoms_ProtBoundConf>  (683) 
nan

>  <Num_Resolved_Atoms>  (683) 
nan

>  <Num_Not_Resolved_Atoms>  (683) 
nan

$$$$
CHEMBL2381245
     RDKit          3D

  0  0  0  0  0  0  0  0  0  0999 V3000
M  V30 BEGIN CTAB
M  V30 COUNTS 43 46 0 0 0
M  V30 BEGIN ATOM
M  V30 1 O 1.108625 -1.841010 1.576253 0
M  V30 2 C 0.128115 -1.847845 0.788426 0
M  V30 3 N 0.568114 -1.818331 -0.560681 0
M  V30 4 C 2.009588 -1.789421 -0.616898 0
M  V30 5 C 2.718532 -2.974926 -0.662140 0
M  V30 6 C 4.111978 -2.887377 -0.715615 0
M  V30 7 C 4.694463 -1.620031 -0.719923 0
M  V30 8 C 3.974962 -0.443082 -0.674392 0
M  V30 9 C 2.588439 -0.533564 -0.621231 0
M  V30 10 N 1.799568 0.653523 -0.572842 0
M  V30 11 C 0.805342 1.011262 -1.576893 0
M  V30 12 C 0.618650 2.519586 -1.587825 0
M  V30 13 N 1.815170 3.244098 -1.255975 0
M  V30 14 C 2.284758 2.983866 0.078533 0
M  V30 15 C 1.981816 1.573961 0.533742 0
M  V30 16 C -1.288293 -1.880819 1.137449 0
M  V30 17 C -2.320968 -1.886138 0.198808 0
M  V30 18 S -3.828527 -1.933523 1.350683 0
M  V30 19 C -2.754470 -1.935758 2.821344 0
M  V30 20 N -3.299044 -1.967804 4.187716 0
M  V30 21 C -3.504263 -2.958158 5.065952 0
M  V30 22 C -4.049296 -2.366791 6.201988 0
M  V30 23 C -4.158401 -0.992010 5.962801 0
M  V30 24 N -3.679210 -0.838977 4.714080 0
M  V30 25 N -1.656521 -1.907830 2.401392 0
M  V30 26 H -0.132153 -1.819593 -1.356314 0
M  V30 27 H 2.238524 -3.935723 -0.657363 0
M  V30 28 H 4.742970 -3.782512 -0.753538 0
M  V30 29 H 5.786417 -1.617380 -0.762798 0
M  V30 30 H 4.477814 0.514697 -0.680111 0
M  V30 31 H 1.064372 0.640839 -2.588989 0
M  V30 32 H -0.170598 0.585653 -1.204734 0
M  V30 33 H 0.308553 2.841550 -2.605704 0
M  V30 34 H -0.157525 2.816136 -0.836474 0
M  V30 35 H 2.548874 3.230739 -1.986448 0
M  V30 36 H 3.357150 3.219494 0.187554 0
M  V30 37 H 1.756344 3.727525 0.743680 0
M  V30 38 H 2.726295 1.182106 1.261666 0
M  V30 39 H 0.978438 1.614125 1.044107 0
M  V30 40 H -2.116932 -1.864333 -0.936572 0
M  V30 41 H -3.244003 -3.979154 4.797783 0
M  V30 42 H -4.300310 -2.989195 7.057472 0
M  V30 43 H -4.558395 -0.327255 6.710821 0
M  V30 END ATOM
M  V30 BEGIN BOND
M  V30 1 2 1 2
M  V30 2 1 2 3
M  V30 3 1 3 4
M  V30 4 2 4 5
M  V30 5 1 5 6
M  V30 6 2 6 7
M  V30 7 1 7 8
M  V30 8 2 8 9
M  V30 9 1 9 10
M  V30 10 1 10 11
M  V30 11 1 11 12
M  V30 12 1 12 13
M  V30 13 1 13 14
M  V30 14 1 14 15
M  V30 15 1 2 16
M  V30 16 2 16 17
M  V30 17 1 17 18
M  V30 18 1 18 19
M  V30 19 1 19 20
M  V30 20 1 20 21
M  V30 21 2 21 22
M  V30 22 1 22 23
M  V30 23 2 23 24
M  V30 24 2 19 25
M  V30 25 1 9 4
M  V30 26 1 15 10
M  V30 27 1 25 16
M  V30 28 1 24 20
M  V30 29 1 3 26
M  V30 30 1 5 27
M  V30 31 1 6 28
M  V30 32 1 7 29
M  V30 33 1 8 30
M  V30 34 1 11 31
M  V30 35 1 11 32
M  V30 36 1 12 33
M  V30 37 1 12 34
M  V30 38 1 13 35
M  V30 39 1 14 36
M  V30 40 1 14 37
M  V30 41 1 15 38
M  V30 42 1 15 39
M  V30 43 1 17 40
M  V30 44 1 21 41
M  V30 45 1 22 42
M  V30 46 1 23 43
M  V30 END BOND
M  V30 END CTAB
M  END
>  <Dataset>  (684) 
ChEMBL_Kinases

>  <Ligand_Instance>  (684) 
nan

>  <PDB_ID>  (684) 
nan

>  <Standardized_SMILES>  (684) 
O=C(Nc1ccccc1N1CCNCC1)c1csc(-n2cccn2)n1

>  <Name>  (684) 
nan

>  <Pocket>  (684) 
nan

>  <ATP_Site>  (684) 
nan

>  <Peripheral>  (684) 
nan

>  <Num_H_Atoms_ProtBoundConf>  (684) 
nan

>  <Num_Resolved_Atoms>  (684) 
nan

>  <Num_Not_Resolved_Atoms>  (684) 
nan

$$$$
CHEMBL2381244
     RDKit          3D

  0  0  0  0  0  0  0  0  0  0999 V3000
M  V30 BEGIN CTAB
M  V30 COUNTS 43 46 0 0 0
M  V30 BEGIN ATOM
M  V30 1 O -0.395566 -2.084438 -1.755036 0
M  V30 2 C -0.430331 -2.027155 -0.511771 0
M  V30 3 N 0.787866 -1.908945 0.207379 0
M  V30 4 C 2.160597 -1.831638 -0.147523 0
M  V30 5 C 3.009461 -2.908143 -0.303370 0
M  V30 6 C 4.334238 -2.736093 -0.646805 0
M  V30 7 C 4.853585 -1.474216 -0.846083 0
M  V30 8 C 3.980819 -0.409239 -0.683638 0
M  V30 9 C 2.642835 -0.553907 -0.338338 0
M  V30 10 N 1.947423 0.690332 -0.232790 0
M  V30 11 C 0.818743 1.284705 -0.923755 0
M  V30 12 C -0.094930 1.996193 0.048749 0
M  V30 13 N 0.637331 3.044564 0.732425 0
M  V30 14 C 2.073602 2.939733 0.566139 0
M  V30 15 C 2.526359 1.514679 0.811356 0
M  V30 16 C -1.678449 -2.076933 0.237743 0
M  V30 17 C -2.828227 -2.194325 -0.545092 0
M  V30 18 S -4.219736 -2.229286 0.707148 0
M  V30 19 C -2.929237 -2.072898 2.092726 0
M  V30 20 N -3.129834 -2.015506 3.555088 0
M  V30 21 C -2.868778 -0.920242 4.278218 0
M  V30 22 C -3.191090 -1.303916 5.558688 0
M  V30 23 N -3.622818 -2.595463 5.528943 0
M  V30 24 C -3.586451 -3.050650 4.266041 0
M  V30 25 N -1.915774 -2.030497 1.528063 0
M  V30 26 H 0.749033 -1.861476 1.249954 0
M  V30 27 H 2.592736 -3.894672 -0.144904 0
M  V30 28 H 4.998778 -3.599451 -0.767806 0
M  V30 29 H 5.883890 -1.361396 -1.112206 0
M  V30 30 H 4.455163 0.563589 -0.855994 0
M  V30 31 H 1.257956 2.022830 -1.655639 0
M  V30 32 H 0.234213 0.593982 -1.529251 0
M  V30 33 H -0.950406 2.386837 -0.539698 0
M  V30 34 H -0.492812 1.243446 0.739732 0
M  V30 35 H 0.363762 3.937751 0.221287 0
M  V30 36 H 2.349852 3.257918 -0.464975 0
M  V30 37 H 2.509035 3.636193 1.323841 0
M  V30 38 H 3.623897 1.451341 0.848268 0
M  V30 39 H 2.062973 1.168977 1.777070 0
M  V30 40 H -3.068435 -2.263733 -1.630701 0
M  V30 41 H -2.498489 0.015570 3.918675 0
M  V30 42 H -3.122884 -0.701160 6.457709 0
M  V30 43 H -3.854934 -4.022645 3.868925 0
M  V30 END ATOM
M  V30 BEGIN BOND
M  V30 1 2 1 2
M  V30 2 1 2 3
M  V30 3 1 3 4
M  V30 4 2 4 5
M  V30 5 1 5 6
M  V30 6 2 6 7
M  V30 7 1 7 8
M  V30 8 2 8 9
M  V30 9 1 9 10
M  V30 10 1 10 11
M  V30 11 1 11 12
M  V30 12 1 12 13
M  V30 13 1 13 14
M  V30 14 1 14 15
M  V30 15 1 2 16
M  V30 16 2 16 17
M  V30 17 1 17 18
M  V30 18 1 18 19
M  V30 19 1 19 20
M  V30 20 1 20 21
M  V30 21 2 21 22
M  V30 22 1 22 23
M  V30 23 2 23 24
M  V30 24 2 19 25
M  V30 25 1 9 4
M  V30 26 1 15 10
M  V30 27 1 25 16
M  V30 28 1 24 20
M  V30 29 1 3 26
M  V30 30 1 5 27
M  V30 31 1 6 28
M  V30 32 1 7 29
M  V30 33 1 8 30
M  V30 34 1 11 31
M  V30 35 1 11 32
M  V30 36 1 12 33
M  V30 37 1 12 34
M  V30 38 1 13 35
M  V30 39 1 14 36
M  V30 40 1 14 37
M  V30 41 1 15 38
M  V30 42 1 15 39
M  V30 43 1 17 40
M  V30 44 1 21 41
M  V30 45 1 22 42
M  V30 46 1 24 43
M  V30 END BOND
M  V30 END CTAB
M  END
>  <Dataset>  (685) 
ChEMBL_Kinases

>  <Ligand_Instance>  (685) 
nan

>  <PDB_ID>  (685) 
nan

>  <Standardized_SMILES>  (685) 
O=C(Nc1ccccc1N1CCNCC1)c1csc(-n2ccnc2)n1

>  <Name>  (685) 
nan

>  <Pocket>  (685) 
nan

>  <ATP_Site>  (685) 
nan

>  <Peripheral>  (685) 
nan

>  <Num_H_Atoms_ProtBoundConf>  (685) 
nan

>  <Num_Resolved_Atoms>  (685) 
nan

>  <Num_Not_Resolved_Atoms>  (685) 
nan

$$$$
CHEMBL2381243
     RDKit          3D

  0  0  0  0  0  0  0  0  0  0999 V3000
M  V30 BEGIN CTAB
M  V30 COUNTS 51 55 0 0 0
M  V30 BEGIN ATOM
M  V30 1 C -0.954252 -2.126587 9.206116 0
M  V30 2 C -0.069086 -1.785606 8.056445 0
M  V30 3 N 0.656239 -2.590381 7.329451 0
M  V30 4 C 1.362257 -2.019879 6.350610 0
M  V30 5 C 1.352069 -0.595551 6.077519 0
M  V30 6 S 0.239570 -0.036910 7.328006 0
M  V30 7 C 2.255937 -0.407120 4.919712 0
M  V30 8 N 2.034577 -1.645852 4.208978 0
M  V30 9 C 1.662936 -1.882535 2.796137 0
M  V30 10 N 1.446881 -1.360794 1.809316 0
M  V30 11 C 1.114846 -1.920504 0.661767 0
M  V30 12 C 0.864824 -1.166764 -0.556578 0
M  V30 13 O 0.547285 -1.738524 -1.652978 0
M  V30 14 N 0.932133 0.236405 -0.701212 0
M  V30 15 C 0.746570 1.209493 -1.692423 0
M  V30 16 C 1.567283 2.340505 -1.657758 0
M  V30 17 C 1.503270 3.385179 -2.552644 0
M  V30 18 C 0.546100 3.236555 -3.514504 0
M  V30 19 C -0.322351 2.165995 -3.649568 0
M  V30 20 C -0.170661 1.154967 -2.682067 0
M  V30 21 N -1.136471 0.135605 -2.907235 0
M  V30 22 C -2.263514 -0.321828 -2.075917 0
M  V30 23 C -2.732795 -1.639962 -2.619321 0
M  V30 24 N -3.243817 -1.439960 -3.955412 0
M  V30 25 C -2.396090 -0.600673 -4.769185 0
M  V30 26 C -0.969260 -0.538703 -4.206972 0
M  V30 27 C 1.017324 -3.304399 0.655496 0
M  V30 28 S 1.449747 -3.702347 2.454546 0
M  V30 29 C 2.303032 -2.543364 5.314358 0
M  V30 30 H -1.609098 -1.281193 9.486965 0
M  V30 31 H -1.582492 -2.954463 8.877211 0
M  V30 32 H -0.349770 -2.354065 10.128846 0
M  V30 33 H 1.954928 0.478847 4.325397 0
M  V30 34 H 3.296914 -0.346102 5.280089 0
M  V30 35 H 1.196656 0.651464 0.248120 0
M  V30 36 H 2.314637 2.400979 -0.866400 0
M  V30 37 H 2.171291 4.224943 -2.461966 0
M  V30 38 H 0.488775 4.072504 -4.237003 0
M  V30 39 H -1.038509 2.174693 -4.459905 0
M  V30 40 H -3.099873 0.426962 -2.145202 0
M  V30 41 H -1.910718 -0.400275 -1.041683 0
M  V30 42 H -1.898619 -2.350773 -2.706804 0
M  V30 43 H -3.520510 -2.011852 -1.926101 0
M  V30 44 H -3.459544 -2.322515 -4.466147 0
M  V30 45 H -2.394643 -0.988897 -5.793014 0
M  V30 46 H -2.816811 0.444053 -4.835464 0
M  V30 47 H -0.407634 0.069703 -4.932520 0
M  V30 48 H -0.634711 -1.578608 -4.107822 0
M  V30 49 H 0.733038 -3.998157 -0.272282 0
M  V30 50 H 3.357620 -2.383364 5.625584 0
M  V30 51 H 2.112193 -3.597052 5.030077 0
M  V30 END ATOM
M  V30 BEGIN BOND
M  V30 1 1 1 2
M  V30 2 2 2 3
M  V30 3 1 3 4
M  V30 4 2 4 5
M  V30 5 1 5 6
M  V30 6 1 5 7
M  V30 7 1 7 8
M  V30 8 1 8 9
M  V30 9 2 9 10
M  V30 10 1 10 11
M  V30 11 1 11 12
M  V30 12 2 12 13
M  V30 13 1 12 14
M  V30 14 1 14 15
M  V30 15 2 15 16
M  V30 16 1 16 17
M  V30 17 2 17 18
M  V30 18 1 18 19
M  V30 19 2 19 20
M  V30 20 1 20 21
M  V30 21 1 21 22
M  V30 22 1 22 23
M  V30 23 1 23 24
M  V30 24 1 24 25
M  V30 25 1 25 26
M  V30 26 2 11 27
M  V30 27 1 27 28
M  V30 28 1 8 29
M  V30 29 1 6 2
M  V30 30 1 28 9
M  V30 31 1 29 4
M  V30 32 1 20 15
M  V30 33 1 26 21
M  V30 34 1 1 30
M  V30 35 1 1 31
M  V30 36 1 1 32
M  V30 37 1 7 33
M  V30 38 1 7 34
M  V30 39 1 14 35
M  V30 40 1 16 36
M  V30 41 1 17 37
M  V30 42 1 18 38
M  V30 43 1 19 39
M  V30 44 1 22 40
M  V30 45 1 22 41
M  V30 46 1 23 42
M  V30 47 1 23 43
M  V30 48 1 24 44
M  V30 49 1 25 45
M  V30 50 1 25 46
M  V30 51 1 26 47
M  V30 52 1 26 48
M  V30 53 1 27 49
M  V30 54 1 29 50
M  V30 55 1 29 51
M  V30 END BOND
M  V30 END CTAB
M  END
>  <Dataset>  (686) 
ChEMBL_Kinases

>  <Ligand_Instance>  (686) 
nan

>  <PDB_ID>  (686) 
nan

>  <Standardized_SMILES>  (686) 
Cc1nc2c(s1)CN(c1nc(C(=O)Nc3ccccc3N3CCNCC3)cs1)C2

>  <Name>  (686) 
nan

>  <Pocket>  (686) 
nan

>  <ATP_Site>  (686) 
nan

>  <Peripheral>  (686) 
nan

>  <Num_H_Atoms_ProtBoundConf>  (686) 
nan

>  <Num_Resolved_Atoms>  (686) 
nan

>  <Num_Not_Resolved_Atoms>  (686) 
nan

$$$$
CHEMBL2381242
     RDKit          3D

  0  0  0  0  0  0  0  0  0  0999 V3000
M  V30 BEGIN CTAB
M  V30 COUNTS 49 53 0 0 0
M  V30 BEGIN ATOM
M  V30 1 O 2.428362 -1.744145 1.983943 0
M  V30 2 C 1.309073 -1.613585 1.438336 0
M  V30 3 N 1.439407 -1.448689 0.044925 0
M  V30 4 C 2.769833 -1.455815 -0.503241 0
M  V30 5 C 3.421400 -2.584266 -0.937749 0
M  V30 6 C 4.713892 -2.476129 -1.453501 0
M  V30 7 C 5.342722 -1.237621 -1.529511 0
M  V30 8 C 4.650883 -0.127536 -1.081109 0
M  V30 9 C 3.356812 -0.208443 -0.560685 0
M  V30 10 N 2.795860 1.027549 -0.147657 0
M  V30 11 C 1.586558 1.597185 -0.690568 0
M  V30 12 C 0.564858 1.812607 0.376290 0
M  V30 13 N 1.084438 1.878705 1.697147 0
M  V30 14 C 2.407949 2.383801 1.841737 0
M  V30 15 C 3.423070 1.841756 0.892520 0
M  V30 16 C 0.045547 -1.632287 2.165510 0
M  V30 17 C -0.003962 -1.800293 3.555415 0
M  V30 18 S -1.857993 -1.735543 3.873784 0
M  V30 19 C -2.185001 -1.493276 2.050829 0
M  V30 20 N -3.542628 -1.371825 1.681135 0
M  V30 21 C -4.742501 -1.402284 2.493694 0
M  V30 22 C -5.674506 -2.149620 1.578274 0
M  V30 23 C -6.815126 -2.918768 1.490701 0
M  V30 24 N -7.008473 -3.229030 0.196856 0
M  V30 25 N -6.050671 -2.696114 -0.532768 0
M  V30 26 C -5.200156 -2.019027 0.268774 0
M  V30 27 C -3.951534 -1.184127 0.314462 0
M  V30 28 N -1.109388 -1.492856 1.557341 0
M  V30 29 H 0.553970 -1.327034 -0.535949 0
M  V30 30 H 2.872864 -3.497967 -0.847218 0
M  V30 31 H 5.177194 -3.403826 -1.780936 0
M  V30 32 H 6.327995 -1.211985 -1.931002 0
M  V30 33 H 5.214485 0.798101 -1.176453 0
M  V30 34 H 1.881355 2.541327 -1.226396 0
M  V30 35 H 1.138000 0.945256 -1.474556 0
M  V30 36 H -0.006006 2.730611 0.083676 0
M  V30 37 H -0.204497 0.986718 0.345390 0
M  V30 38 H 0.792470 1.160155 2.361860 0
M  V30 39 H 2.752717 2.091449 2.873308 0
M  V30 40 H 2.430008 3.507974 1.871072 0
M  V30 41 H 4.199681 1.199034 1.394349 0
M  V30 42 H 3.911081 2.681690 0.385078 0
M  V30 43 H 0.987738 -1.937424 4.220053 0
M  V30 44 H -4.590993 -1.920481 3.444911 0
M  V30 45 H -5.144663 -0.359548 2.633080 0
M  V30 46 H -7.376572 -3.163984 2.396053 0
M  V30 47 H -5.999191 -2.807771 -1.569316 0
M  V30 48 H -3.215487 -1.510452 -0.438646 0
M  V30 49 H -4.307973 -0.129620 0.152356 0
M  V30 END ATOM
M  V30 BEGIN BOND
M  V30 1 2 1 2
M  V30 2 1 2 3
M  V30 3 1 3 4
M  V30 4 2 4 5
M  V30 5 1 5 6
M  V30 6 2 6 7
M  V30 7 1 7 8
M  V30 8 2 8 9
M  V30 9 1 9 10
M  V30 10 1 10 11
M  V30 11 1 11 12
M  V30 12 1 12 13
M  V30 13 1 13 14
M  V30 14 1 14 15
M  V30 15 1 2 16
M  V30 16 2 16 17
M  V30 17 1 17 18
M  V30 18 1 18 19
M  V30 19 1 19 20
M  V30 20 1 20 21
M  V30 21 1 21 22
M  V30 22 1 22 23
M  V30 23 2 23 24
M  V30 24 1 24 25
M  V30 25 1 25 26
M  V30 26 1 26 27
M  V30 27 2 19 28
M  V30 28 1 9 4
M  V30 29 1 15 10
M  V30 30 1 28 16
M  V30 31 1 27 20
M  V30 32 2 26 22
M  V30 33 1 3 29
M  V30 34 1 5 30
M  V30 35 1 6 31
M  V30 36 1 7 32
M  V30 37 1 8 33
M  V30 38 1 11 34
M  V30 39 1 11 35
M  V30 40 1 12 36
M  V30 41 1 12 37
M  V30 42 1 13 38
M  V30 43 1 14 39
M  V30 44 1 14 40
M  V30 45 1 15 41
M  V30 46 1 15 42
M  V30 47 1 17 43
M  V30 48 1 21 44
M  V30 49 1 21 45
M  V30 50 1 23 46
M  V30 51 1 25 47
M  V30 52 1 27 48
M  V30 53 1 27 49
M  V30 END BOND
M  V30 END CTAB
M  END
>  <Dataset>  (687) 
ChEMBL_Kinases

>  <Ligand_Instance>  (687) 
nan

>  <PDB_ID>  (687) 
nan

>  <Standardized_SMILES>  (687) 
O=C(Nc1ccccc1N1CCNCC1)c1csc(N2Cc3cn[nH]c3C2)n1

>  <Name>  (687) 
nan

>  <Pocket>  (687) 
nan

>  <ATP_Site>  (687) 
nan

>  <Peripheral>  (687) 
nan

>  <Num_H_Atoms_ProtBoundConf>  (687) 
nan

>  <Num_Resolved_Atoms>  (687) 
nan

>  <Num_Not_Resolved_Atoms>  (687) 
nan

$$$$
CHEMBL2381241
     RDKit          3D

  0  0  0  0  0  0  0  0  0  0999 V3000
M  V30 BEGIN CTAB
M  V30 COUNTS 53 57 0 0 0
M  V30 BEGIN ATOM
M  V30 1 C 3.637034 -1.226769 -3.936871 0
M  V30 2 C 3.036073 0.029713 -3.444059 0
M  V30 3 N 2.006707 0.580980 -4.107949 0
M  V30 4 C 1.469106 1.727164 -3.639336 0
M  V30 5 C 2.020322 2.274700 -2.482182 0
M  V30 6 C 3.088569 1.705357 -1.791058 0
M  V30 7 N 3.562509 0.581192 -2.312831 0
M  V30 8 C 3.262235 2.684048 -0.653254 0
M  V30 9 N 1.867629 3.032736 -0.337451 0
M  V30 10 C 1.186093 2.838330 0.970429 0
M  V30 11 N 0.990499 1.603621 1.145321 0
M  V30 12 C 0.393797 1.150342 2.221641 0
M  V30 13 C 0.196632 -0.317482 2.402196 0
M  V30 14 O 0.637508 -1.151462 1.543550 0
M  V30 15 N -0.460325 -0.968393 3.474512 0
M  V30 16 C -0.278415 -2.333158 3.018355 0
M  V30 17 C 0.888425 -2.933489 3.513510 0
M  V30 18 C 1.186801 -4.248544 3.139016 0
M  V30 19 C 0.261753 -4.814644 2.295329 0
M  V30 20 C -0.889404 -4.264359 1.789054 0
M  V30 21 C -1.146350 -2.974548 2.179678 0
M  V30 22 N -2.297254 -2.265003 1.745373 0
M  V30 23 C -3.228564 -1.878347 2.815349 0
M  V30 24 C -4.423729 -2.822475 2.617644 0
M  V30 25 N -4.708147 -2.960246 1.210414 0
M  V30 26 C -4.271926 -1.800077 0.460190 0
M  V30 27 C -2.751816 -1.831080 0.428113 0
M  V30 28 C -0.022055 2.078875 3.176457 0
M  V30 29 S 0.555223 3.693335 2.327916 0
M  V30 30 C 1.675846 3.510080 -1.686876 0
M  V30 31 H 2.866865 -2.013308 -4.183960 0
M  V30 32 H 4.287136 -1.690260 -3.153585 0
M  V30 33 H 4.259441 -1.083213 -4.862396 0
M  V30 34 H 0.629209 2.249924 -4.111355 0
M  V30 35 H 3.724021 2.070850 0.160149 0
M  V30 36 H 3.859239 3.519276 -1.004107 0
M  V30 37 H -0.850472 -0.328453 4.218274 0
M  V30 38 H 1.573026 -2.425581 4.173960 0
M  V30 39 H 2.058782 -4.786097 3.471745 0
M  V30 40 H 0.503923 -5.848060 2.005755 0
M  V30 41 H -1.526303 -4.809681 1.140763 0
M  V30 42 H -2.816445 -2.020088 3.818076 0
M  V30 43 H -3.600480 -0.844582 2.620273 0
M  V30 44 H -5.307680 -2.519827 3.173984 0
M  V30 45 H -4.059734 -3.830878 2.972159 0
M  V30 46 H -5.723032 -3.134051 1.042808 0
M  V30 47 H -4.653597 -0.853171 0.879843 0
M  V30 48 H -4.626375 -1.844374 -0.597248 0
M  V30 49 H -2.470782 -2.518422 -0.367387 0
M  V30 50 H -2.390695 -0.794201 0.262182 0
M  V30 51 H -0.564851 1.701097 4.156675 0
M  V30 52 H 2.347912 4.343347 -1.909720 0
M  V30 53 H 0.622180 3.745374 -1.921465 0
M  V30 END ATOM
M  V30 BEGIN BOND
M  V30 1 1 1 2
M  V30 2 2 2 3
M  V30 3 1 3 4
M  V30 4 2 4 5
M  V30 5 1 5 6
M  V30 6 2 6 7
M  V30 7 1 6 8
M  V30 8 1 8 9
M  V30 9 1 9 10
M  V30 10 2 10 11
M  V30 11 1 11 12
M  V30 12 1 12 13
M  V30 13 2 13 14
M  V30 14 1 13 15
M  V30 15 1 15 16
M  V30 16 2 16 17
M  V30 17 1 17 18
M  V30 18 2 18 19
M  V30 19 1 19 20
M  V30 20 2 20 21
M  V30 21 1 21 22
M  V30 22 1 22 23
M  V30 23 1 23 24
M  V30 24 1 24 25
M  V30 25 1 25 26
M  V30 26 1 26 27
M  V30 27 2 12 28
M  V30 28 1 28 29
M  V30 29 1 9 30
M  V30 30 1 7 2
M  V30 31 1 29 10
M  V30 32 1 30 5
M  V30 33 1 21 16
M  V30 34 1 27 22
M  V30 35 1 1 31
M  V30 36 1 1 32
M  V30 37 1 1 33
M  V30 38 1 4 34
M  V30 39 1 8 35
M  V30 40 1 8 36
M  V30 41 1 15 37
M  V30 42 1 17 38
M  V30 43 1 18 39
M  V30 44 1 19 40
M  V30 45 1 20 41
M  V30 46 1 23 42
M  V30 47 1 23 43
M  V30 48 1 24 44
M  V30 49 1 24 45
M  V30 50 1 25 46
M  V30 51 1 26 47
M  V30 52 1 26 48
M  V30 53 1 27 49
M  V30 54 1 27 50
M  V30 55 1 28 51
M  V30 56 1 30 52
M  V30 57 1 30 53
M  V30 END BOND
M  V30 END CTAB
M  END
>  <Dataset>  (688) 
ChEMBL_Kinases

>  <Ligand_Instance>  (688) 
nan

>  <PDB_ID>  (688) 
nan

>  <Standardized_SMILES>  (688) 
Cc1ncc2c(n1)CN(c1nc(C(=O)Nc3ccccc3N3CCNCC3)cs1)C2

>  <Name>  (688) 
nan

>  <Pocket>  (688) 
nan

>  <ATP_Site>  (688) 
nan

>  <Peripheral>  (688) 
nan

>  <Num_H_Atoms_ProtBoundConf>  (688) 
nan

>  <Num_Resolved_Atoms>  (688) 
nan

>  <Num_Not_Resolved_Atoms>  (688) 
nan

$$$$
CHEMBL2381240
     RDKit          3D

  0  0  0  0  0  0  0  0  0  0999 V3000
M  V30 BEGIN CTAB
M  V30 COUNTS 51 55 0 0 0
M  V30 BEGIN ATOM
M  V30 1 O -0.335810 2.263940 -0.175282 0
M  V30 2 C -0.362963 1.008632 -0.093566 0
M  V30 3 N 0.774065 0.392684 -0.676446 0
M  V30 4 C 1.753122 1.247874 -1.253008 0
M  V30 5 C 1.547147 1.460314 -2.599676 0
M  V30 6 C 2.425786 2.280377 -3.289234 0
M  V30 7 C 3.456359 2.828351 -2.556260 0
M  V30 8 C 3.639157 2.599533 -1.211213 0
M  V30 9 C 2.775650 1.788214 -0.511392 0
M  V30 10 N 2.974620 1.561963 0.874451 0
M  V30 11 C 4.033211 2.281191 1.550756 0
M  V30 12 C 3.575088 2.539030 2.993283 0
M  V30 13 N 3.700264 1.274793 3.701890 0
M  V30 14 C 3.330789 0.186443 2.801428 0
M  V30 15 C 2.290067 0.700311 1.791118 0
M  V30 16 C -1.466610 0.295443 0.541929 0
M  V30 17 C -2.546648 1.064037 1.074187 0
M  V30 18 S -3.585889 -0.376774 1.720531 0
M  V30 19 C -2.411193 -1.627511 1.167210 0
M  V30 20 N -2.772718 -2.984955 1.445244 0
M  V30 21 C -3.948951 -3.515928 2.105749 0
M  V30 22 C -4.320370 -4.643241 1.184551 0
M  V30 23 C -5.546132 -5.243327 0.884269 0
M  V30 24 C -5.516664 -6.270362 -0.023839 0
M  V30 25 N -4.386221 -6.727805 -0.635195 0
M  V30 26 C -3.240741 -6.124409 -0.317110 0
M  V30 27 C -3.133888 -5.075301 0.584975 0
M  V30 28 C -2.062543 -4.212616 1.143976 0
M  V30 29 N -1.450399 -1.042326 0.615539 0
M  V30 30 H 0.814041 -0.671167 -0.656567 0
M  V30 31 H 0.738694 1.028974 -3.172184 0
M  V30 32 H 2.307355 2.478131 -4.344739 0
M  V30 33 H 4.127041 3.469018 -3.136430 0
M  V30 34 H 4.493629 3.104205 -0.809010 0
M  V30 35 H 4.218277 3.298532 1.146830 0
M  V30 36 H 5.006730 1.745331 1.532088 0
M  V30 37 H 2.535019 2.911547 2.931014 0
M  V30 38 H 4.269907 3.296173 3.449915 0
M  V30 39 H 3.203971 1.237167 4.599977 0
M  V30 40 H 4.220781 -0.041874 2.181394 0
M  V30 41 H 2.987414 -0.693207 3.351820 0
M  V30 42 H 1.826823 -0.189730 1.374723 0
M  V30 43 H 1.512613 1.241280 2.393266 0
M  V30 44 H -2.691684 2.056699 1.090823 0
M  V30 45 H -3.742826 -3.895756 3.126829 0
M  V30 46 H -4.708265 -2.710857 2.113924 0
M  V30 47 H -6.455748 -4.916262 1.339924 0
M  V30 48 H -6.420462 -6.801923 -0.323372 0
M  V30 49 H -2.266938 -6.391625 -0.731882 0
M  V30 50 H -1.312673 -3.945458 0.373745 0
M  V30 51 H -1.603582 -4.664478 2.053706 0
M  V30 END ATOM
M  V30 BEGIN BOND
M  V30 1 2 1 2
M  V30 2 1 2 3
M  V30 3 1 3 4
M  V30 4 2 4 5
M  V30 5 1 5 6
M  V30 6 2 6 7
M  V30 7 1 7 8
M  V30 8 2 8 9
M  V30 9 1 9 10
M  V30 10 1 10 11
M  V30 11 1 11 12
M  V30 12 1 12 13
M  V30 13 1 13 14
M  V30 14 1 14 15
M  V30 15 1 2 16
M  V30 16 2 16 17
M  V30 17 1 17 18
M  V30 18 1 18 19
M  V30 19 1 19 20
M  V30 20 1 20 21
M  V30 21 1 21 22
M  V30 22 2 22 23
M  V30 23 1 23 24
M  V30 24 2 24 25
M  V30 25 1 25 26
M  V30 26 2 26 27
M  V30 27 1 27 28
M  V30 28 2 19 29
M  V30 29 1 9 4
M  V30 30 1 15 10
M  V30 31 1 29 16
M  V30 32 1 28 20
M  V30 33 1 27 22
M  V30 34 1 3 30
M  V30 35 1 5 31
M  V30 36 1 6 32
M  V30 37 1 7 33
M  V30 38 1 8 34
M  V30 39 1 11 35
M  V30 40 1 11 36
M  V30 41 1 12 37
M  V30 42 1 12 38
M  V30 43 1 13 39
M  V30 44 1 14 40
M  V30 45 1 14 41
M  V30 46 1 15 42
M  V30 47 1 15 43
M  V30 48 1 17 44
M  V30 49 1 21 45
M  V30 50 1 21 46
M  V30 51 1 23 47
M  V30 52 1 24 48
M  V30 53 1 26 49
M  V30 54 1 28 50
M  V30 55 1 28 51
M  V30 END BOND
M  V30 END CTAB
M  END
>  <Dataset>  (689) 
ChEMBL_Kinases

>  <Ligand_Instance>  (689) 
nan

>  <PDB_ID>  (689) 
nan

>  <Standardized_SMILES>  (689) 
O=C(Nc1ccccc1N1CCNCC1)c1csc(N2Cc3ccncc3C2)n1

>  <Name>  (689) 
nan

>  <Pocket>  (689) 
nan

>  <ATP_Site>  (689) 
nan

>  <Peripheral>  (689) 
nan

>  <Num_H_Atoms_ProtBoundConf>  (689) 
nan

>  <Num_Resolved_Atoms>  (689) 
nan

>  <Num_Not_Resolved_Atoms>  (689) 
nan

$$$$
CHEMBL2381239
     RDKit          3D

  0  0  0  0  0  0  0  0  0  0999 V3000
M  V30 BEGIN CTAB
M  V30 COUNTS 55 59 0 0 0
M  V30 BEGIN ATOM
M  V30 1 O 2.399122 -1.882964 3.039639 0
M  V30 2 C 1.423546 -1.672940 2.272539 0
M  V30 3 N 1.760995 -1.057672 1.035419 0
M  V30 4 C 3.069677 -0.681829 0.627630 0
M  V30 5 C 3.876549 -1.576370 -0.056846 0
M  V30 6 C 5.135222 -1.188618 -0.444425 0
M  V30 7 C 5.669208 0.054190 -0.197366 0
M  V30 8 C 4.823017 0.922847 0.494148 0
M  V30 9 C 3.534622 0.584623 0.913282 0
M  V30 10 N 2.782809 1.572750 1.616323 0
M  V30 11 C 2.188937 1.764735 2.901031 0
M  V30 12 C 0.746327 2.212933 2.826079 0
M  V30 13 N 0.583348 3.339829 1.928476 0
M  V30 14 C 1.853787 3.776148 1.380465 0
M  V30 15 C 2.605630 2.680285 0.685141 0
M  V30 16 C 0.068637 -2.050696 2.669573 0
M  V30 17 C -0.084001 -2.629601 3.905478 0
M  V30 18 S -1.948264 -2.907248 3.913280 0
M  V30 19 C -2.090212 -2.151823 2.188492 0
M  V30 20 N -3.447723 -2.077273 1.580254 0
M  V30 21 C -3.407124 -1.472475 0.241237 0
M  V30 22 C -2.505152 -2.375861 -0.589078 0
M  V30 23 C -3.338607 -2.817137 -1.717648 0
M  V30 24 C -3.019144 -3.637599 -2.779037 0
M  V30 25 C -3.916201 -3.952832 -3.753383 0
M  V30 26 C -5.192364 -3.425256 -3.665407 0
M  V30 27 C -5.533347 -2.594607 -2.600251 0
M  V30 28 C -4.593635 -2.295306 -1.626716 0
M  V30 29 C -4.723695 -1.450036 -0.422288 0
M  V30 30 N -1.035880 -1.879667 1.928545 0
M  V30 31 H 0.998593 -0.859349 0.361922 0
M  V30 32 H 3.537619 -2.586671 -0.298281 0
M  V30 33 H 5.778714 -1.897339 -0.988630 0
M  V30 34 H 6.654172 0.387442 -0.489378 0
M  V30 35 H 5.223853 1.911395 0.700831 0
M  V30 36 H 2.239671 0.824357 3.482314 0
M  V30 37 H 2.771536 2.538441 3.473332 0
M  V30 38 H 0.131543 1.387526 2.444678 0
M  V30 39 H 0.451114 2.519878 3.843305 0
M  V30 40 H -0.170107 3.231653 1.232269 0
M  V30 41 H 1.609879 4.574258 0.634139 0
M  V30 42 H 2.461908 4.219463 2.199189 0
M  V30 43 H 1.976403 2.281802 -0.137168 0
M  V30 44 H 3.574877 3.063195 0.364821 0
M  V30 45 H 0.542665 -2.891083 4.691683 0
M  V30 46 H -4.273014 -2.433997 2.109350 0
M  V30 47 H -2.889334 -0.506358 0.319294 0
M  V30 48 H -2.125312 -3.247125 -0.033720 0
M  V30 49 H -1.617471 -1.851216 -0.988139 0
M  V30 50 H -2.029831 -4.067918 -2.879289 0
M  V30 51 H -3.651627 -4.597648 -4.579580 0
M  V30 52 H -5.879589 -3.709899 -4.477554 0
M  V30 53 H -6.552764 -2.237384 -2.626748 0
M  V30 54 H -4.926814 -0.390776 -0.759355 0
M  V30 55 H -5.577687 -1.734113 0.213379 0
M  V30 END ATOM
M  V30 BEGIN BOND
M  V30 1 2 1 2
M  V30 2 1 2 3
M  V30 3 1 3 4
M  V30 4 2 4 5
M  V30 5 1 5 6
M  V30 6 2 6 7
M  V30 7 1 7 8
M  V30 8 2 8 9
M  V30 9 1 9 10
M  V30 10 1 10 11
M  V30 11 1 11 12
M  V30 12 1 12 13
M  V30 13 1 13 14
M  V30 14 1 14 15
M  V30 15 1 2 16
M  V30 16 2 16 17
M  V30 17 1 17 18
M  V30 18 1 18 19
M  V30 19 1 19 20
M  V30 20 1 20 21
M  V30 21 1 21 22
M  V30 22 1 22 23
M  V30 23 2 23 24
M  V30 24 1 24 25
M  V30 25 2 25 26
M  V30 26 1 26 27
M  V30 27 2 27 28
M  V30 28 1 28 29
M  V30 29 2 19 30
M  V30 30 1 9 4
M  V30 31 1 15 10
M  V30 32 1 30 16
M  V30 33 1 29 21
M  V30 34 1 28 23
M  V30 35 1 3 31
M  V30 36 1 5 32
M  V30 37 1 6 33
M  V30 38 1 7 34
M  V30 39 1 8 35
M  V30 40 1 11 36
M  V30 41 1 11 37
M  V30 42 1 12 38
M  V30 43 1 12 39
M  V30 44 1 13 40
M  V30 45 1 14 41
M  V30 46 1 14 42
M  V30 47 1 15 43
M  V30 48 1 15 44
M  V30 49 1 17 45
M  V30 50 1 20 46
M  V30 51 1 21 47
M  V30 52 1 22 48
M  V30 53 1 22 49
M  V30 54 1 24 50
M  V30 55 1 25 51
M  V30 56 1 26 52
M  V30 57 1 27 53
M  V30 58 1 29 54
M  V30 59 1 29 55
M  V30 END BOND
M  V30 END CTAB
M  END
>  <Dataset>  (690) 
ChEMBL_Kinases

>  <Ligand_Instance>  (690) 
nan

>  <PDB_ID>  (690) 
nan

>  <Standardized_SMILES>  (690) 
O=C(Nc1ccccc1N1CCNCC1)c1csc(NC2Cc3ccccc3C2)n1

>  <Name>  (690) 
nan

>  <Pocket>  (690) 
nan

>  <ATP_Site>  (690) 
nan

>  <Peripheral>  (690) 
nan

>  <Num_H_Atoms_ProtBoundConf>  (690) 
nan

>  <Num_Resolved_Atoms>  (690) 
nan

>  <Num_Not_Resolved_Atoms>  (690) 
nan

$$$$
CHEMBL2381238
     RDKit          3D

  0  0  0  0  0  0  0  0  0  0999 V3000
M  V30 BEGIN CTAB
M  V30 COUNTS 52 56 0 0 0
M  V30 BEGIN ATOM
M  V30 1 O 3.441078 -2.182757 0.423955 0
M  V30 2 C 2.188836 -2.032702 0.485040 0
M  V30 3 N 1.674808 -0.963514 -0.284423 0
M  V30 4 C 2.062015 0.070160 -1.155896 0
M  V30 5 C 2.020719 -0.380387 -2.458272 0
M  V30 6 C 2.358668 0.447491 -3.537401 0
M  V30 7 C 2.735667 1.750189 -3.196305 0
M  V30 8 C 2.766017 2.169121 -1.876091 0
M  V30 9 C 2.433662 1.347732 -0.831997 0
M  V30 10 N 2.465563 1.774798 0.493574 0
M  V30 11 C 2.934343 3.086476 0.877680 0
M  V30 12 C 1.774240 3.839314 1.477315 0
M  V30 13 N 1.367151 3.174597 2.689406 0
M  V30 14 C 1.998275 1.913403 2.890812 0
M  V30 15 C 2.053569 1.028731 1.661463 0
M  V30 16 C 1.327783 -2.881110 1.280977 0
M  V30 17 C 1.963431 -3.891930 2.036153 0
M  V30 18 S 0.483335 -4.703553 2.894090 0
M  V30 19 C -0.664834 -3.517358 2.055953 0
M  V30 20 N -2.135248 -3.432714 2.184871 0
M  V30 21 C -3.191559 -2.571586 2.696730 0
M  V30 22 C -4.072002 -2.520474 1.485611 0
M  V30 23 C -4.942950 -1.669487 0.826123 0
M  V30 24 C -5.599758 -2.001588 -0.331851 0
M  V30 25 C -5.400353 -3.249159 -0.894382 0
M  V30 26 C -4.559639 -4.177111 -0.329497 0
M  V30 27 C -3.940913 -3.754647 0.835281 0
M  V30 28 C -2.975288 -4.513167 1.694258 0
M  V30 29 N 0.006342 -2.843379 1.414833 0
M  V30 30 H 0.617621 -0.844186 -0.244144 0
M  V30 31 H 1.743111 -1.374474 -2.829937 0
M  V30 32 H 2.352327 0.171678 -4.575472 0
M  V30 33 H 3.004015 2.423953 -4.026478 0
M  V30 34 H 3.072220 3.197396 -1.774789 0
M  V30 35 H 3.448284 3.654250 0.094886 0
M  V30 36 H 3.690943 2.926540 1.704856 0
M  V30 37 H 0.922639 3.895545 0.785981 0
M  V30 38 H 2.115552 4.866081 1.724418 0
M  V30 39 H 0.377281 3.251982 2.935213 0
M  V30 40 H 3.008136 2.006933 3.364972 0
M  V30 41 H 1.397390 1.359999 3.656566 0
M  V30 42 H 2.919013 0.338194 1.875420 0
M  V30 43 H 1.084895 0.543167 1.593294 0
M  V30 44 H 3.066115 -4.189005 2.139563 0
M  V30 45 H -2.823732 -1.527660 2.838487 0
M  V30 46 H -3.679412 -2.951139 3.588788 0
M  V30 47 H -5.062977 -0.691609 1.318443 0
M  V30 48 H -6.259787 -1.280505 -0.781032 0
M  V30 49 H -5.905469 -3.545051 -1.813142 0
M  V30 50 H -4.365653 -5.152260 -0.714310 0
M  V30 51 H -2.417748 -5.262378 1.095652 0
M  V30 52 H -3.513382 -5.029379 2.518443 0
M  V30 END ATOM
M  V30 BEGIN BOND
M  V30 1 2 1 2
M  V30 2 1 2 3
M  V30 3 1 3 4
M  V30 4 2 4 5
M  V30 5 1 5 6
M  V30 6 2 6 7
M  V30 7 1 7 8
M  V30 8 2 8 9
M  V30 9 1 9 10
M  V30 10 1 10 11
M  V30 11 1 11 12
M  V30 12 1 12 13
M  V30 13 1 13 14
M  V30 14 1 14 15
M  V30 15 1 2 16
M  V30 16 2 16 17
M  V30 17 1 17 18
M  V30 18 1 18 19
M  V30 19 1 19 20
M  V30 20 1 20 21
M  V30 21 1 21 22
M  V30 22 2 22 23
M  V30 23 1 23 24
M  V30 24 2 24 25
M  V30 25 1 25 26
M  V30 26 2 26 27
M  V30 27 1 27 28
M  V30 28 2 19 29
M  V30 29 1 9 4
M  V30 30 1 15 10
M  V30 31 1 29 16
M  V30 32 1 28 20
M  V30 33 1 27 22
M  V30 34 1 3 30
M  V30 35 1 5 31
M  V30 36 1 6 32
M  V30 37 1 7 33
M  V30 38 1 8 34
M  V30 39 1 11 35
M  V30 40 1 11 36
M  V30 41 1 12 37
M  V30 42 1 12 38
M  V30 43 1 13 39
M  V30 44 1 14 40
M  V30 45 1 14 41
M  V30 46 1 15 42
M  V30 47 1 15 43
M  V30 48 1 17 44
M  V30 49 1 21 45
M  V30 50 1 21 46
M  V30 51 1 23 47
M  V30 52 1 24 48
M  V30 53 1 25 49
M  V30 54 1 26 50
M  V30 55 1 28 51
M  V30 56 1 28 52
M  V30 END BOND
M  V30 END CTAB
M  END
>  <Dataset>  (691) 
ChEMBL_Kinases

>  <Ligand_Instance>  (691) 
nan

>  <PDB_ID>  (691) 
nan

>  <Standardized_SMILES>  (691) 
O=C(Nc1ccccc1N1CCNCC1)c1csc(N2Cc3ccccc3C2)n1

>  <Name>  (691) 
nan

>  <Pocket>  (691) 
nan

>  <ATP_Site>  (691) 
nan

>  <Peripheral>  (691) 
nan

>  <Num_H_Atoms_ProtBoundConf>  (691) 
nan

>  <Num_Resolved_Atoms>  (691) 
nan

>  <Num_Not_Resolved_Atoms>  (691) 
nan

$$$$
CHEMBL2381237
     RDKit          3D

  0  0  0  0  0  0  0  0  0  0999 V3000
M  V30 BEGIN CTAB
M  V30 COUNTS 52 56 0 0 0
M  V30 BEGIN ATOM
M  V30 1 O 2.934631 -2.140876 2.035375 0
M  V30 2 C 1.799662 -2.015787 1.575169 0
M  V30 3 N 1.680228 -1.162777 0.456499 0
M  V30 4 C 2.361119 -0.321959 -0.434306 0
M  V30 5 C 2.844779 -1.001946 -1.533193 0
M  V30 6 C 3.535972 -0.361475 -2.568969 0
M  V30 7 C 3.694139 0.996958 -2.404902 0
M  V30 8 C 3.215649 1.683143 -1.312542 0
M  V30 9 C 2.539773 1.034041 -0.305117 0
M  V30 10 N 2.089373 1.749042 0.827821 0
M  V30 11 C 1.992667 3.184445 0.676315 0
M  V30 12 C 0.810933 3.683892 1.513734 0
M  V30 13 N 1.101687 3.564770 2.929168 0
M  V30 14 C 1.922754 2.410274 3.196783 0
M  V30 15 C 1.728087 1.300565 2.157050 0
M  V30 16 C 0.593297 -2.655303 2.070633 0
M  V30 17 C 0.745613 -3.477889 3.231404 0
M  V30 18 S -1.016479 -4.104096 3.547560 0
M  V30 19 C -1.594868 -3.127569 2.047436 0
M  V30 20 N -2.990637 -3.075382 1.563467 0
M  V30 21 C -4.007490 -2.040615 1.719511 0
M  V30 22 C -4.618208 -1.732491 0.381835 0
M  V30 23 C -4.092792 -2.511569 -0.714075 0
M  V30 24 S -4.022567 -2.103378 -2.429985 0
M  V30 25 C -3.212850 -3.698621 -2.966885 0
M  V30 26 C -3.077622 -4.392428 -1.755185 0
M  V30 27 C -3.528520 -3.776850 -0.615741 0
M  V30 28 C -3.554005 -4.182613 0.808637 0
M  V30 29 N -0.648600 -2.657709 1.696681 0
M  V30 30 H 0.707580 -1.033394 0.039371 0
M  V30 31 H 2.739893 -2.086242 -1.704322 0
M  V30 32 H 3.929936 -0.855021 -3.441244 0
M  V30 33 H 4.221919 1.545232 -3.177906 0
M  V30 34 H 3.392116 2.751403 -1.276492 0
M  V30 35 H 1.744606 3.506322 -0.354796 0
M  V30 36 H 2.937728 3.631616 1.067267 0
M  V30 37 H -0.041301 3.012348 1.285047 0
M  V30 38 H 0.613682 4.725525 1.251296 0
M  V30 39 H 1.668627 4.407834 3.213463 0
M  V30 40 H 2.996482 2.610741 3.285213 0
M  V30 41 H 1.554577 1.960125 4.153657 0
M  V30 42 H 0.712139 0.936260 2.268229 0
M  V30 43 H 2.531765 0.565286 2.433744 0
M  V30 44 H 1.776698 -3.703159 3.844595 0
M  V30 45 H -3.420804 -1.136127 2.059000 0
M  V30 46 H -4.702036 -2.274559 2.519576 0
M  V30 47 H -4.497226 -0.642869 0.142053 0
M  V30 48 H -5.720651 -1.874783 0.444280 0
M  V30 49 H -2.879645 -4.113939 -3.934168 0
M  V30 50 H -2.636196 -5.377126 -1.706247 0
M  V30 51 H -2.914668 -5.063827 1.031895 0
M  V30 52 H -4.576608 -4.453985 1.145999 0
M  V30 END ATOM
M  V30 BEGIN BOND
M  V30 1 2 1 2
M  V30 2 1 2 3
M  V30 3 1 3 4
M  V30 4 2 4 5
M  V30 5 1 5 6
M  V30 6 2 6 7
M  V30 7 1 7 8
M  V30 8 2 8 9
M  V30 9 1 9 10
M  V30 10 1 10 11
M  V30 11 1 11 12
M  V30 12 1 12 13
M  V30 13 1 13 14
M  V30 14 1 14 15
M  V30 15 1 2 16
M  V30 16 2 16 17
M  V30 17 1 17 18
M  V30 18 1 18 19
M  V30 19 1 19 20
M  V30 20 1 20 21
M  V30 21 1 21 22
M  V30 22 1 22 23
M  V30 23 1 23 24
M  V30 24 1 24 25
M  V30 25 2 25 26
M  V30 26 1 26 27
M  V30 27 1 27 28
M  V30 28 2 19 29
M  V30 29 1 9 4
M  V30 30 1 15 10
M  V30 31 1 29 16
M  V30 32 1 28 20
M  V30 33 2 27 23
M  V30 34 1 3 30
M  V30 35 1 5 31
M  V30 36 1 6 32
M  V30 37 1 7 33
M  V30 38 1 8 34
M  V30 39 1 11 35
M  V30 40 1 11 36
M  V30 41 1 12 37
M  V30 42 1 12 38
M  V30 43 1 13 39
M  V30 44 1 14 40
M  V30 45 1 14 41
M  V30 46 1 15 42
M  V30 47 1 15 43
M  V30 48 1 17 44
M  V30 49 1 21 45
M  V30 50 1 21 46
M  V30 51 1 22 47
M  V30 52 1 22 48
M  V30 53 1 25 49
M  V30 54 1 26 50
M  V30 55 1 28 51
M  V30 56 1 28 52
M  V30 END BOND
M  V30 END CTAB
M  END
>  <Dataset>  (692) 
ChEMBL_Kinases

>  <Ligand_Instance>  (692) 
nan

>  <PDB_ID>  (692) 
nan

>  <Standardized_SMILES>  (692) 
O=C(Nc1ccccc1N1CCNCC1)c1csc(N2CCc3sccc3C2)n1

>  <Name>  (692) 
nan

>  <Pocket>  (692) 
nan

>  <ATP_Site>  (692) 
nan

>  <Peripheral>  (692) 
nan

>  <Num_H_Atoms_ProtBoundConf>  (692) 
nan

>  <Num_Resolved_Atoms>  (692) 
nan

>  <Num_Not_Resolved_Atoms>  (692) 
nan

$$$$
CHEMBL2381236
     RDKit          3D

  0  0  0  0  0  0  0  0  0  0999 V3000
M  V30 BEGIN CTAB
M  V30 COUNTS 63 67 0 0 0
M  V30 BEGIN ATOM
M  V30 1 C 5.186901 3.885866 5.219031 0
M  V30 2 O 5.470511 3.187070 4.029233 0
M  V30 3 C 4.597998 3.030054 2.978502 0
M  V30 4 C 3.317746 3.591010 3.048135 0
M  V30 5 C 2.440334 3.421027 1.967599 0
M  V30 6 C 2.924361 2.697241 0.899993 0
M  V30 7 C 4.174183 2.137867 0.808595 0
M  V30 8 C 5.042727 2.304102 1.874071 0
M  V30 9 O 6.323790 1.779667 1.881029 0
M  V30 10 C 6.749735 1.047653 0.750632 0
M  V30 11 C 1.878625 2.586445 -0.182785 0
M  V30 12 N 0.649714 2.295618 0.577863 0
M  V30 13 C 0.065690 1.006762 0.690511 0
M  V30 14 N -1.029991 0.417676 0.469376 0
M  V30 15 C -1.160683 -0.864209 0.730608 0
M  V30 16 C -2.467595 -1.440233 0.444404 0
M  V30 17 O -3.471496 -0.844442 -0.018262 0
M  V30 18 N -2.777965 -2.809868 0.665863 0
M  V30 19 C -3.960221 -3.516929 0.454188 0
M  V30 20 C -4.731512 -3.501734 1.614711 0
M  V30 21 C -5.960867 -4.126495 1.691683 0
M  V30 22 C -6.404030 -4.773316 0.567279 0
M  V30 23 C -5.608763 -4.760438 -0.552013 0
M  V30 24 C -4.381261 -4.154270 -0.677406 0
M  V30 25 N -3.584859 -4.153269 -1.844662 0
M  V30 26 C -4.219128 -4.883133 -2.922151 0
M  V30 27 C -3.408408 -5.085638 -4.143837 0
M  V30 28 N -2.035649 -5.360523 -3.682043 0
M  V30 29 C -1.571235 -4.057841 -3.252494 0
M  V30 30 C -2.313650 -3.547603 -2.047933 0
M  V30 31 C -0.086110 -1.617212 1.262760 0
M  V30 32 S 1.210492 -0.273982 1.371126 0
M  V30 33 C 0.043107 3.458523 1.240845 0
M  V30 34 C 1.110171 4.050825 2.126557 0
M  V30 35 H 6.181776 4.210601 5.625068 0
M  V30 36 H 4.749887 3.200078 5.978984 0
M  V30 37 H 4.552814 4.769078 5.091927 0
M  V30 38 H 3.009721 4.147844 3.924273 0
M  V30 39 H 4.444877 1.599074 -0.063124 0
M  V30 40 H 7.006462 1.731442 -0.086192 0
M  V30 41 H 5.978609 0.347081 0.363359 0
M  V30 42 H 7.686611 0.480896 0.951435 0
M  V30 43 H 1.699957 3.557870 -0.680803 0
M  V30 44 H 2.115508 1.816187 -0.917586 0
M  V30 45 H -2.044011 -3.464484 1.075487 0
M  V30 46 H -4.477426 -3.016577 2.572130 0
M  V30 47 H -6.600377 -4.151846 2.550148 0
M  V30 48 H -7.356891 -5.281992 0.561044 0
M  V30 49 H -6.016002 -5.294780 -1.421597 0
M  V30 50 H -4.406040 -5.913747 -2.494354 0
M  V30 51 H -5.246954 -4.504619 -3.123941 0
M  V30 52 H -3.739163 -5.997755 -4.636362 0
M  V30 53 H -3.411602 -4.214855 -4.827378 0
M  V30 54 H -2.111693 -5.958817 -2.816266 0
M  V30 55 H -1.727011 -3.390855 -4.125729 0
M  V30 56 H -0.486269 -4.029924 -3.043175 0
M  V30 57 H -1.679992 -3.822519 -1.178351 0
M  V30 58 H -2.376150 -2.446612 -2.225655 0
M  V30 59 H -0.201971 -2.741350 1.491200 0
M  V30 60 H -0.301484 4.185419 0.468227 0
M  V30 61 H -0.843356 3.107425 1.765710 0
M  V30 62 H 0.762222 3.861063 3.173475 0
M  V30 63 H 1.169819 5.157837 2.027331 0
M  V30 END ATOM
M  V30 BEGIN BOND
M  V30 1 1 1 2
M  V30 2 1 2 3
M  V30 3 2 3 4
M  V30 4 1 4 5
M  V30 5 2 5 6
M  V30 6 1 6 7
M  V30 7 2 7 8
M  V30 8 1 8 9
M  V30 9 1 9 10
M  V30 10 1 6 11
M  V30 11 1 11 12
M  V30 12 1 12 13
M  V30 13 2 13 14
M  V30 14 1 14 15
M  V30 15 1 15 16
M  V30 16 2 16 17
M  V30 17 1 16 18
M  V30 18 1 18 19
M  V30 19 2 19 20
M  V30 20 1 20 21
M  V30 21 2 21 22
M  V30 22 1 22 23
M  V30 23 2 23 24
M  V30 24 1 24 25
M  V30 25 1 25 26
M  V30 26 1 26 27
M  V30 27 1 27 28
M  V30 28 1 28 29
M  V30 29 1 29 30
M  V30 30 2 15 31
M  V30 31 1 31 32
M  V30 32 1 12 33
M  V30 33 1 33 34
M  V30 34 1 8 3
M  V30 35 1 32 13
M  V30 36 1 34 5
M  V30 37 1 24 19
M  V30 38 1 30 25
M  V30 39 1 1 35
M  V30 40 1 1 36
M  V30 41 1 1 37
M  V30 42 1 4 38
M  V30 43 1 7 39
M  V30 44 1 10 40
M  V30 45 1 10 41
M  V30 46 1 10 42
M  V30 47 1 11 43
M  V30 48 1 11 44
M  V30 49 1 18 45
M  V30 50 1 20 46
M  V30 51 1 21 47
M  V30 52 1 22 48
M  V30 53 1 23 49
M  V30 54 1 26 50
M  V30 55 1 26 51
M  V30 56 1 27 52
M  V30 57 1 27 53
M  V30 58 1 28 54
M  V30 59 1 29 55
M  V30 60 1 29 56
M  V30 61 1 30 57
M  V30 62 1 30 58
M  V30 63 1 31 59
M  V30 64 1 33 60
M  V30 65 1 33 61
M  V30 66 1 34 62
M  V30 67 1 34 63
M  V30 END BOND
M  V30 END CTAB
M  END
>  <Dataset>  (693) 
ChEMBL_Kinases

>  <Ligand_Instance>  (693) 
nan

>  <PDB_ID>  (693) 
nan

>  <Standardized_SMILES>  (693) 
COc1cc2c(cc1OC)CN(c1nc(C(=O)Nc3ccccc3N3CCNCC3)cs1)CC2

>  <Name>  (693) 
nan

>  <Pocket>  (693) 
nan

>  <ATP_Site>  (693) 
nan

>  <Peripheral>  (693) 
nan

>  <Num_H_Atoms_ProtBoundConf>  (693) 
nan

>  <Num_Resolved_Atoms>  (693) 
nan

>  <Num_Not_Resolved_Atoms>  (693) 
nan

$$$$
CHEMBL2376660
     RDKit          3D

  0  0  0  0  0  0  0  0  0  0999 V3000
M  V30 BEGIN CTAB
M  V30 COUNTS 42 45 0 0 0
M  V30 BEGIN ATOM
M  V30 1 N 1.102810 -2.486889 0.561436 0
M  V30 2 C 1.039780 -1.110540 0.828818 0
M  V30 3 O 2.005076 -1.206590 1.621514 0
M  V30 4 C 0.440667 0.168529 0.620314 0
M  V30 5 C 1.108394 1.244080 1.103618 0
M  V30 6 N 2.373762 1.459379 1.676018 0
M  V30 7 C 3.723122 1.489667 1.248564 0
M  V30 8 C 4.145709 2.799560 1.604596 0
M  V30 9 C 5.413925 3.329437 1.372417 0
M  V30 10 C 6.338944 2.525944 0.748203 0
M  V30 11 I 8.306710 3.094109 0.287186 0
M  V30 12 C 5.989429 1.250836 0.380435 0
M  V30 13 C 4.727154 0.796394 0.639104 0
M  V30 14 F 4.339343 -0.436160 0.273895 0
M  V30 15 C 0.360682 2.435789 1.007618 0
M  V30 16 C -0.929202 2.513311 0.469413 0
M  V30 17 F -1.552740 3.718171 0.428421 0
M  V30 18 C -1.487504 1.314373 0.004636 0
M  V30 19 C -0.800456 0.086494 0.071065 0
M  V30 20 O -1.598765 -0.840385 -0.444515 0
M  V30 21 C -2.196349 -1.977398 -0.098016 0
M  V30 22 C -3.373329 -1.642721 0.595087 0
M  V30 23 C -4.262058 -2.598495 1.112029 0
M  V30 24 C -3.999109 -3.950612 0.950288 0
M  V30 25 O -4.543911 -5.101810 1.264677 0
M  V30 26 C -3.808663 -6.093750 0.827326 0
M  V30 27 O -4.187425 -7.254527 1.043853 0
M  V30 28 N -2.713205 -5.625862 0.185963 0
M  V30 29 C -2.835919 -4.291866 0.265073 0
M  V30 30 C -1.981108 -3.333234 -0.232161 0
M  V30 31 H 1.686639 -2.998812 -0.149484 0
M  V30 32 H 0.579091 -3.249070 1.031490 0
M  V30 33 H 2.154475 1.611041 2.697369 0
M  V30 34 H 3.593689 3.610582 2.103736 0
M  V30 35 H 5.812359 4.300483 1.607321 0
M  V30 36 H 6.624079 0.532581 -0.111451 0
M  V30 37 H 0.769648 3.397537 1.364009 0
M  V30 38 H -2.494601 1.521180 -0.390859 0
M  V30 39 H -3.786249 -0.657776 0.842828 0
M  V30 40 H -5.174880 -2.421588 1.650138 0
M  V30 41 H -1.974830 -6.209368 -0.251491 0
M  V30 42 H -1.070293 -3.504572 -0.778766 0
M  V30 END ATOM
M  V30 BEGIN BOND
M  V30 1 1 1 2
M  V30 2 2 2 3
M  V30 3 1 2 4
M  V30 4 2 4 5
M  V30 5 1 5 6
M  V30 6 1 6 7
M  V30 7 2 7 8
M  V30 8 1 8 9
M  V30 9 2 9 10
M  V30 10 1 10 11
M  V30 11 1 10 12
M  V30 12 2 12 13
M  V30 13 1 13 14
M  V30 14 1 5 15
M  V30 15 2 15 16
M  V30 16 1 16 17
M  V30 17 1 16 18
M  V30 18 2 18 19
M  V30 19 1 19 20
M  V30 20 1 20 21
M  V30 21 2 21 22
M  V30 22 1 22 23
M  V30 23 2 23 24
M  V30 24 1 24 25
M  V30 25 1 25 26
M  V30 26 2 26 27
M  V30 27 1 26 28
M  V30 28 1 28 29
M  V30 29 2 29 30
M  V30 30 1 19 4
M  V30 31 1 30 21
M  V30 32 1 13 7
M  V30 33 1 29 24
M  V30 34 1 1 31
M  V30 35 1 1 32
M  V30 36 1 6 33
M  V30 37 1 8 34
M  V30 38 1 9 35
M  V30 39 1 12 36
M  V30 40 1 15 37
M  V30 41 1 18 38
M  V30 42 1 22 39
M  V30 43 1 23 40
M  V30 44 1 28 41
M  V30 45 1 30 42
M  V30 END BOND
M  V30 END CTAB
M  END
>  <Dataset>  (694) 
ChEMBL_Kinases

>  <Ligand_Instance>  (694) 
nan

>  <PDB_ID>  (694) 
nan

>  <Standardized_SMILES>  (694) 
NC(=O)c1c(Nc2ccc(I)cc2F)cc(F)cc1Oc1ccc2oc(=O)[nH]c2c1

>  <Name>  (694) 
nan

>  <Pocket>  (694) 
nan

>  <ATP_Site>  (694) 
nan

>  <Peripheral>  (694) 
nan

>  <Num_H_Atoms_ProtBoundConf>  (694) 
nan

>  <Num_Resolved_Atoms>  (694) 
nan

>  <Num_Not_Resolved_Atoms>  (694) 
nan

$$$$
CHEMBL2381164
     RDKit          3D

  0  0  0  0  0  0  0  0  0  0999 V3000
M  V30 BEGIN CTAB
M  V30 COUNTS 73 76 0 0 0
M  V30 BEGIN ATOM
M  V30 1 C 2.186093 -1.622872 3.296073 0
M  V30 2 C 1.654719 -2.253015 1.990995 0
M  V30 3 C 0.384904 -2.938067 2.373621 0
M  V30 4 C 2.666392 -3.286434 1.575271 0
M  V30 5 C 3.993649 -2.570390 1.466328 0
M  V30 6 C 3.776037 -1.365104 0.580795 0 CFG=2
M  V30 7 C 5.075550 -0.600100 0.539697 0
M  V30 8 C 5.331332 -0.203510 -0.895225 0
M  V30 9 O 6.472337 0.217043 -1.287753 0
M  V30 10 O 4.274633 -0.316489 -1.758836 0
M  V30 11 C 4.339982 -0.003357 -3.121280 0 CFG=1
M  V30 12 C 3.911511 -1.162326 -3.957223 0
M  V30 13 O 3.999988 -0.760560 -5.308782 0
M  V30 14 C 3.459504 1.238780 -3.316381 0
M  V30 15 C 2.092707 1.050552 -2.775723 0
M  V30 16 O 1.033049 1.658674 -2.955224 0
M  V30 17 O 1.982034 0.001310 -1.901192 0
M  V30 18 C 0.803658 -0.379709 -1.238269 0 CFG=2
M  V30 19 C 0.128383 0.726364 -0.496108 0
M  V30 20 C -0.196281 0.489146 0.921356 0 CFG=1
M  V30 21 C -1.546579 -0.102064 1.209992 0
M  V30 22 C -2.659501 0.805509 0.712299 0
M  V30 23 C -3.984683 0.102674 1.042849 0
M  V30 24 C -5.166296 0.912960 0.591367 0
M  V30 25 C -6.416076 0.163653 0.934433 0
M  V30 26 C -6.641578 -0.878819 0.052983 0
M  V30 27 Br -5.535930 -1.325319 -1.442585 0
M  V30 28 C -7.741858 -1.716923 0.191367 0
M  V30 29 C -8.625843 -1.506263 1.225868 0
M  V30 30 Br -10.168328 -2.621648 1.490122 0
M  V30 31 C -8.400995 -0.467756 2.103551 0
M  V30 32 O -9.223394 -0.168654 3.173943 0
M  V30 33 C -7.311658 0.356391 1.960393 0
M  V30 34 Br -6.866444 1.835337 3.097648 0
M  V30 35 O 0.731142 -0.171144 1.669551 0
M  V30 36 C 1.512237 -1.105426 1.037412 0 CFG=2
M  V30 37 C 1.024116 -1.536473 -0.295702 0
M  V30 38 O 2.780299 -0.525863 0.941905 0
M  V30 39 H 2.260875 -2.424018 4.036423 0
M  V30 40 H 1.451295 -0.876472 3.646337 0
M  V30 41 H 3.122439 -1.054098 3.114867 0
M  V30 42 H 0.674864 -3.746795 3.082440 0
M  V30 43 H -0.154672 -3.429249 1.548862 0
M  V30 44 H -0.286867 -2.269666 2.982932 0
M  V30 45 H 2.402212 -3.687006 0.581649 0
M  V30 46 H 2.720194 -4.030669 2.379718 0
M  V30 47 H 4.494607 -2.373361 2.410284 0
M  V30 48 H 4.655837 -3.273195 0.882244 0
M  V30 49 H 3.658323 -1.776929 -0.470021 0
M  V30 50 H 4.959759 0.347464 1.145519 0
M  V30 51 H 5.913124 -1.198603 0.949961 0
M  V30 52 H 5.393297 0.303443 -3.317109 0
M  V30 53 H 4.658569 -1.971034 -3.851107 0
M  V30 54 H 2.926939 -1.547239 -3.691697 0
M  V30 55 H 3.073547 -0.602846 -5.654097 0
M  V30 56 H 3.983432 2.068985 -2.808172 0
M  V30 57 H 3.452857 1.503064 -4.393364 0
M  V30 58 H 0.127889 -0.750956 -2.032192 0
M  V30 59 H -0.777568 1.042287 -1.032167 0
M  V30 60 H 0.810289 1.627068 -0.638372 0
M  V30 61 H -0.250654 1.520410 1.391527 0
M  V30 62 H -1.641687 -0.072182 2.342936 0
M  V30 63 H -1.691098 -1.135947 0.872974 0
M  V30 64 H -2.638090 0.939537 -0.383839 0
M  V30 65 H -2.621425 1.796880 1.193528 0
M  V30 66 H -3.973656 -0.924265 0.631757 0
M  V30 67 H -4.008619 0.024184 2.170211 0
M  V30 68 H -5.130792 1.179887 -0.462397 0
M  V30 69 H -5.207726 1.871542 1.162443 0
M  V30 70 H -7.972295 -2.555079 -0.472015 0
M  V30 71 H -10.107227 -0.655505 3.250642 0
M  V30 72 H 1.752103 -2.226419 -0.770497 0
M  V30 73 H 0.081850 -2.118950 -0.266616 0
M  V30 END ATOM
M  V30 BEGIN BOND
M  V30 1 1 1 2
M  V30 2 1 2 3
M  V30 3 1 2 4
M  V30 4 1 4 5
M  V30 5 1 5 6
M  V30 6 1 6 7
M  V30 7 1 7 8
M  V30 8 2 8 9
M  V30 9 1 8 10
M  V30 10 1 10 11
M  V30 11 1 11 12
M  V30 12 1 12 13
M  V30 13 1 11 14
M  V30 14 1 14 15
M  V30 15 2 15 16
M  V30 16 1 15 17
M  V30 17 1 17 18
M  V30 18 1 18 19
M  V30 19 1 19 20
M  V30 20 1 20 21
M  V30 21 1 21 22
M  V30 22 1 22 23
M  V30 23 1 23 24
M  V30 24 1 24 25
M  V30 25 2 25 26
M  V30 26 1 26 27
M  V30 27 1 26 28
M  V30 28 2 28 29
M  V30 29 1 29 30
M  V30 30 1 29 31
M  V30 31 1 31 32
M  V30 32 2 31 33
M  V30 33 1 33 34
M  V30 34 1 20 35
M  V30 35 1 36 35 CFG=1
M  V30 36 1 36 37
M  V30 37 1 36 38
M  V30 38 1 36 2
M  V30 39 1 38 6
M  V30 40 1 37 18
M  V30 41 1 33 25
M  V30 42 1 1 39
M  V30 43 1 1 40
M  V30 44 1 1 41
M  V30 45 1 3 42
M  V30 46 1 3 43
M  V30 47 1 3 44
M  V30 48 1 4 45
M  V30 49 1 4 46
M  V30 50 1 5 47
M  V30 51 1 5 48
M  V30 52 1 6 49 CFG=3
M  V30 53 1 7 50
M  V30 54 1 7 51
M  V30 55 1 11 52 CFG=3
M  V30 56 1 12 53
M  V30 57 1 12 54
M  V30 58 1 13 55
M  V30 59 1 14 56
M  V30 60 1 14 57
M  V30 61 1 18 58 CFG=3
M  V30 62 1 19 59
M  V30 63 1 19 60
M  V30 64 1 20 61 CFG=1
M  V30 65 1 21 62
M  V30 66 1 21 63
M  V30 67 1 22 64
M  V30 68 1 22 65
M  V30 69 1 23 66
M  V30 70 1 23 67
M  V30 71 1 24 68
M  V30 72 1 24 69
M  V30 73 1 28 70
M  V30 74 1 32 71
M  V30 75 1 37 72
M  V30 76 1 37 73
M  V30 END BOND
M  V30 END CTAB
M  END
>  <Dataset>  (695) 
ChEMBL_Kinases

>  <Ligand_Instance>  (695) 
nan

>  <PDB_ID>  (695) 
nan

>  <Standardized_SMILES>  (695) 
CC1(C)CC[C@@H]2CC(=O)O[C@@H](CO)CC(=O)O[C@@H]3C[C@@H](CCCCc4c(Br)cc(Br)c(O)c4Br)O[C@@]1(C3)O2

>  <Name>  (695) 
nan

>  <Pocket>  (695) 
nan

>  <ATP_Site>  (695) 
nan

>  <Peripheral>  (695) 
nan

>  <Num_H_Atoms_ProtBoundConf>  (695) 
nan

>  <Num_Resolved_Atoms>  (695) 
nan

>  <Num_Not_Resolved_Atoms>  (695) 
nan

$$$$
CHEMBL2381165
     RDKit          3D

  0  0  0  0  0  0  0  0  0  0999 V3000
M  V30 BEGIN CTAB
M  V30 COUNTS 73 76 0 0 0
M  V30 BEGIN ATOM
M  V30 1 C -2.966816 -1.036411 3.413281 0
M  V30 2 C -2.279387 0.147516 2.764378 0
M  V30 3 C -3.308712 1.281940 2.670814 0
M  V30 4 C -1.165802 0.697166 3.623939 0
M  V30 5 C 0.134656 0.076400 3.191678 0
M  V30 6 C -0.059655 -1.278242 2.558455 0 CFG=2
M  V30 7 C 1.289037 -1.793133 2.128660 0
M  V30 8 C 1.229471 -2.799257 1.050854 0
M  V30 9 O 2.305337 -3.333526 0.651952 0
M  V30 10 O 0.070254 -3.212889 0.430017 0
M  V30 11 C -0.049339 -4.155610 -0.587482 0 CFG=1
M  V30 12 C -0.971728 -5.309181 -0.284427 0
M  V30 13 O -0.964756 -6.139152 -1.414483 0
M  V30 14 C -0.527754 -3.529199 -1.895273 0
M  V30 15 C -1.820380 -2.891171 -1.605058 0
M  V30 16 O -2.943002 -3.427614 -1.648424 0
M  V30 17 O -1.675796 -1.579215 -1.261172 0
M  V30 18 C -2.676265 -0.670285 -0.918455 0 CFG=2
M  V30 19 C -2.005975 0.685574 -1.233238 0
M  V30 20 C -0.717301 0.571132 -0.426023 0 CFG=1
M  V30 21 C 0.363867 1.480643 -0.972828 0
M  V30 22 C -0.006816 2.908226 -0.959731 0
M  V30 23 C 1.031554 3.843140 -1.449029 0
M  V30 24 C 1.534217 3.828083 -2.819079 0
M  V30 25 C 2.205194 2.676569 -3.393926 0
M  V30 26 C 3.560129 2.571632 -3.036324 0
M  V30 27 C 4.420849 1.596883 -3.493292 0
M  V30 28 C 3.955095 0.638542 -4.365363 0
M  V30 29 I 5.113858 -0.922119 -5.167804 0
M  V30 30 C 2.641119 0.683503 -4.754853 0
M  V30 31 O 2.099098 -0.242409 -5.626966 0
M  V30 32 C 1.814876 1.664354 -4.282209 0
M  V30 33 O -1.089422 0.865765 0.876895 0
M  V30 34 C -1.778613 -0.224858 1.386343 0 CFG=2
M  V30 35 C -2.963836 -0.625593 0.557646 0
M  V30 36 O -0.912337 -1.284311 1.495667 0
M  V30 37 H -4.066863 -0.847462 3.531716 0
M  V30 38 H -2.557890 -1.174868 4.456819 0
M  V30 39 H -2.824389 -1.973882 2.863890 0
M  V30 40 H -4.350438 0.862395 2.691325 0
M  V30 41 H -3.127288 1.926874 1.780981 0
M  V30 42 H -3.247145 1.946616 3.557379 0
M  V30 43 H -1.091631 1.781321 3.484923 0
M  V30 44 H -1.384893 0.476915 4.699237 0
M  V30 45 H 0.758358 0.762642 2.567179 0
M  V30 46 H 0.739066 -0.087462 4.117245 0
M  V30 47 H -0.487848 -1.927460 3.374387 0
M  V30 48 H 1.839680 -2.161446 3.022959 0
M  V30 49 H 1.882903 -0.942221 1.725212 0
M  V30 50 H 0.982663 -4.553539 -0.830189 0
M  V30 51 H -1.986607 -4.925112 -0.147672 0
M  V30 52 H -0.583381 -5.851705 0.604817 0
M  V30 53 H -0.020632 -6.148880 -1.760166 0
M  V30 54 H 0.248127 -2.864407 -2.255463 0
M  V30 55 H -0.614904 -4.347805 -2.643094 0
M  V30 56 H -3.626064 -0.767696 -1.462025 0
M  V30 57 H -1.848792 0.670184 -2.315281 0
M  V30 58 H -2.670237 1.455124 -0.843562 0
M  V30 59 H -0.301959 -0.458247 -0.422361 0
M  V30 60 H 1.295131 1.290662 -0.403396 0
M  V30 61 H 0.537738 1.133931 -2.003597 0
M  V30 62 H -0.191819 3.197087 0.131364 0
M  V30 63 H -1.014833 3.107319 -1.411638 0
M  V30 64 H 0.730337 4.925037 -1.232375 0
M  V30 65 H 1.961880 3.730242 -0.776010 0
M  V30 66 H 2.248044 4.710003 -2.907196 0
M  V30 67 H 0.638296 4.128947 -3.489049 0
M  V30 68 H 4.046075 3.262907 -2.358653 0
M  V30 69 H 5.454216 1.528103 -3.212473 0
M  V30 70 H 1.198626 -0.139565 -6.033865 0
M  V30 71 H 0.750654 1.799244 -4.523692 0
M  V30 72 H -3.775495 0.110017 0.723085 0
M  V30 73 H -3.327091 -1.601702 0.929535 0
M  V30 END ATOM
M  V30 BEGIN BOND
M  V30 1 1 1 2
M  V30 2 1 2 3
M  V30 3 1 2 4
M  V30 4 1 4 5
M  V30 5 1 5 6
M  V30 6 1 6 7
M  V30 7 1 7 8
M  V30 8 2 8 9
M  V30 9 1 8 10
M  V30 10 1 10 11
M  V30 11 1 11 12
M  V30 12 1 12 13
M  V30 13 1 11 14
M  V30 14 1 14 15
M  V30 15 2 15 16
M  V30 16 1 15 17
M  V30 17 1 17 18
M  V30 18 1 18 19
M  V30 19 1 19 20
M  V30 20 1 20 21
M  V30 21 1 21 22
M  V30 22 1 22 23
M  V30 23 1 23 24
M  V30 24 1 24 25
M  V30 25 2 25 26
M  V30 26 1 26 27
M  V30 27 2 27 28
M  V30 28 1 28 29
M  V30 29 1 28 30
M  V30 30 1 30 31
M  V30 31 2 30 32
M  V30 32 1 20 33
M  V30 33 1 34 33 CFG=3
M  V30 34 1 34 35
M  V30 35 1 34 36
M  V30 36 1 34 2
M  V30 37 1 36 6
M  V30 38 1 35 18
M  V30 39 1 32 25
M  V30 40 1 1 37
M  V30 41 1 1 38
M  V30 42 1 1 39
M  V30 43 1 3 40
M  V30 44 1 3 41
M  V30 45 1 3 42
M  V30 46 1 4 43
M  V30 47 1 4 44
M  V30 48 1 5 45
M  V30 49 1 5 46
M  V30 50 1 6 47 CFG=1
M  V30 51 1 7 48
M  V30 52 1 7 49
M  V30 53 1 11 50 CFG=3
M  V30 54 1 12 51
M  V30 55 1 12 52
M  V30 56 1 13 53
M  V30 57 1 14 54
M  V30 58 1 14 55
M  V30 59 1 18 56 CFG=3
M  V30 60 1 19 57
M  V30 61 1 19 58
M  V30 62 1 20 59 CFG=1
M  V30 63 1 21 60
M  V30 64 1 21 61
M  V30 65 1 22 62
M  V30 66 1 22 63
M  V30 67 1 23 64
M  V30 68 1 23 65
M  V30 69 1 24 66
M  V30 70 1 24 67
M  V30 71 1 26 68
M  V30 72 1 27 69
M  V30 73 1 31 70
M  V30 74 1 32 71
M  V30 75 1 35 72
M  V30 76 1 35 73
M  V30 END BOND
M  V30 END CTAB
M  END
>  <Dataset>  (696) 
ChEMBL_Kinases

>  <Ligand_Instance>  (696) 
nan

>  <PDB_ID>  (696) 
nan

>  <Standardized_SMILES>  (696) 
CC1(C)CC[C@@H]2CC(=O)O[C@@H](CO)CC(=O)O[C@@H]3C[C@@H](CCCCc4ccc(I)c(O)c4)O[C@@]1(C3)O2

>  <Name>  (696) 
nan

>  <Pocket>  (696) 
nan

>  <ATP_Site>  (696) 
nan

>  <Peripheral>  (696) 
nan

>  <Num_H_Atoms_ProtBoundConf>  (696) 
nan

>  <Num_Resolved_Atoms>  (696) 
nan

>  <Num_Not_Resolved_Atoms>  (696) 
nan

$$$$
CHEMBL2381166
     RDKit          3D

  0  0  0  0  0  0  0  0  0  0999 V3000
M  V30 BEGIN CTAB
M  V30 COUNTS 73 76 0 0 0
M  V30 BEGIN ATOM
M  V30 1 C -2.391568 -2.667251 1.286180 0
M  V30 2 C -2.213041 -1.218759 1.593648 0
M  V30 3 C -3.382032 -0.405668 1.027333 0
M  V30 4 C -2.157197 -0.894089 3.068324 0
M  V30 5 C -0.727455 -0.707559 3.541137 0
M  V30 6 C 0.105778 -1.678054 2.728767 0 CFG=2
M  V30 7 C 1.476868 -1.866144 3.303756 0
M  V30 8 C 2.298200 -2.691641 2.422835 0
M  V30 9 O 3.417027 -3.126629 2.759567 0
M  V30 10 O 1.859665 -3.018259 1.178131 0
M  V30 11 C 2.518925 -3.792936 0.223281 0 CFG=1
M  V30 12 C 1.779337 -4.998834 -0.258421 0
M  V30 13 O 2.573104 -5.653362 -1.202270 0
M  V30 14 C 2.869730 -2.946203 -1.013620 0
M  V30 15 C 1.624136 -2.338207 -1.548578 0
M  V30 16 O 0.841766 -2.719025 -2.424798 0
M  V30 17 O 1.377858 -1.132645 -0.879739 0
M  V30 18 C 0.269090 -0.300223 -1.133075 0 CFG=2
M  V30 19 C 0.614825 1.039715 -0.511448 0
M  V30 20 C -0.301177 1.589806 0.464902 0 CFG=1
M  V30 21 C -1.132393 2.735327 0.038939 0
M  V30 22 C -0.463761 3.973003 -0.338693 0
M  V30 23 C 0.379861 4.306467 -1.461992 0
M  V30 24 C -0.159542 4.334936 -2.832365 0
M  V30 25 C -0.620411 3.115226 -3.436949 0
M  V30 26 C -1.891562 2.562967 -3.597322 0
M  V30 27 C -2.140169 1.382994 -4.252930 0
M  V30 28 O -3.480823 0.980259 -4.317378 0
M  V30 29 C -1.105712 0.660082 -4.805116 0
M  V30 30 C 0.185829 1.150177 -4.683225 0
M  V30 31 C 0.374667 2.339689 -4.014127 0
M  V30 32 I 2.417447 2.912366 -3.954062 0
M  V30 33 O -0.966634 0.697486 1.289403 0
M  V30 34 C -0.945141 -0.618256 0.967241 0 CFG=2
M  V30 35 C -0.998838 -0.849347 -0.533904 0
M  V30 36 O 0.191506 -1.293426 1.421586 0
M  V30 37 H -3.304511 -2.797624 0.632284 0
M  V30 38 H -1.544948 -3.177030 0.829695 0
M  V30 39 H -2.666379 -3.170078 2.239681 0
M  V30 40 H -3.676990 -0.782427 0.024835 0
M  V30 41 H -3.144888 0.660918 1.023945 0
M  V30 42 H -4.244203 -0.579170 1.707729 0
M  V30 43 H -2.604774 -1.746290 3.600853 0
M  V30 44 H -2.757299 0.005016 3.327886 0
M  V30 45 H -0.696441 -1.052529 4.588472 0
M  V30 46 H -0.373958 0.320765 3.522210 0
M  V30 47 H -0.411128 -2.672493 2.872247 0
M  V30 48 H 1.439976 -2.282861 4.344495 0
M  V30 49 H 1.954845 -0.848908 3.400743 0
M  V30 50 H 3.482329 -4.128177 0.706722 0
M  V30 51 H 0.855439 -4.651567 -0.792631 0
M  V30 52 H 1.506517 -5.683218 0.583722 0
M  V30 53 H 2.064812 -6.366098 -1.683605 0
M  V30 54 H 3.613300 -2.209642 -0.679527 0
M  V30 55 H 3.368184 -3.584964 -1.777356 0
M  V30 56 H 0.068870 -0.181806 -2.211358 0
M  V30 57 H 1.651032 0.951238 -0.029329 0
M  V30 58 H 0.806591 1.725102 -1.360063 0
M  V30 59 H 0.414414 2.094271 1.266113 0
M  V30 60 H -1.839470 2.459427 -0.804152 0
M  V30 61 H -1.809940 2.956103 0.942282 0
M  V30 62 H 0.179196 4.330839 0.601240 0
M  V30 63 H -1.251607 4.843074 -0.247373 0
M  V30 64 H 0.678694 5.437357 -1.259995 0
M  V30 65 H 1.422492 3.873528 -1.422630 0
M  V30 66 H 0.629047 4.800169 -3.540573 0
M  V30 67 H -1.019078 5.108250 -2.881661 0
M  V30 68 H -2.658892 3.201634 -3.128176 0
M  V30 69 H -3.639944 0.019679 -4.033176 0
M  V30 70 H -1.409256 -0.245834 -5.295098 0
M  V30 71 H 0.943555 0.541441 -5.133635 0
M  V30 72 H -1.881101 -0.325826 -0.905520 0
M  V30 73 H -1.146133 -1.911259 -0.708879 0
M  V30 END ATOM
M  V30 BEGIN BOND
M  V30 1 1 1 2
M  V30 2 1 2 3
M  V30 3 1 2 4
M  V30 4 1 4 5
M  V30 5 1 5 6
M  V30 6 1 6 7
M  V30 7 1 7 8
M  V30 8 2 8 9
M  V30 9 1 8 10
M  V30 10 1 10 11
M  V30 11 1 11 12
M  V30 12 1 12 13
M  V30 13 1 11 14
M  V30 14 1 14 15
M  V30 15 2 15 16
M  V30 16 1 15 17
M  V30 17 1 17 18
M  V30 18 1 18 19
M  V30 19 1 19 20
M  V30 20 1 20 21
M  V30 21 1 21 22
M  V30 22 1 22 23
M  V30 23 1 23 24
M  V30 24 1 24 25
M  V30 25 2 25 26
M  V30 26 1 26 27
M  V30 27 1 27 28
M  V30 28 2 27 29
M  V30 29 1 29 30
M  V30 30 2 30 31
M  V30 31 1 31 32
M  V30 32 1 20 33
M  V30 33 1 34 33 CFG=3
M  V30 34 1 34 35
M  V30 35 1 34 36
M  V30 36 1 34 2
M  V30 37 1 36 6
M  V30 38 1 35 18
M  V30 39 1 31 25
M  V30 40 1 1 37
M  V30 41 1 1 38
M  V30 42 1 1 39
M  V30 43 1 3 40
M  V30 44 1 3 41
M  V30 45 1 3 42
M  V30 46 1 4 43
M  V30 47 1 4 44
M  V30 48 1 5 45
M  V30 49 1 5 46
M  V30 50 1 6 47 CFG=3
M  V30 51 1 7 48
M  V30 52 1 7 49
M  V30 53 1 11 50 CFG=1
M  V30 54 1 12 51
M  V30 55 1 12 52
M  V30 56 1 13 53
M  V30 57 1 14 54
M  V30 58 1 14 55
M  V30 59 1 18 56 CFG=3
M  V30 60 1 19 57
M  V30 61 1 19 58
M  V30 62 1 20 59 CFG=1
M  V30 63 1 21 60
M  V30 64 1 21 61
M  V30 65 1 22 62
M  V30 66 1 22 63
M  V30 67 1 23 64
M  V30 68 1 23 65
M  V30 69 1 24 66
M  V30 70 1 24 67
M  V30 71 1 26 68
M  V30 72 1 28 69
M  V30 73 1 29 70
M  V30 74 1 30 71
M  V30 75 1 35 72
M  V30 76 1 35 73
M  V30 END BOND
M  V30 END CTAB
M  END
>  <Dataset>  (697) 
ChEMBL_Kinases

>  <Ligand_Instance>  (697) 
nan

>  <PDB_ID>  (697) 
nan

>  <Standardized_SMILES>  (697) 
CC1(C)CC[C@@H]2CC(=O)O[C@@H](CO)CC(=O)O[C@@H]3C[C@@H](CCCCc4cc(O)ccc4I)O[C@@]1(C3)O2

>  <Name>  (697) 
nan

>  <Pocket>  (697) 
nan

>  <ATP_Site>  (697) 
nan

>  <Peripheral>  (697) 
nan

>  <Num_H_Atoms_ProtBoundConf>  (697) 
nan

>  <Num_Resolved_Atoms>  (697) 
nan

>  <Num_Not_Resolved_Atoms>  (697) 
nan

$$$$
CHEMBL2381167
     RDKit          3D

  0  0  0  0  0  0  0  0  0  0999 V3000
M  V30 BEGIN CTAB
M  V30 COUNTS 76 79 0 0 0
M  V30 BEGIN ATOM
M  V30 1 C 1.815486 -2.573830 4.488039 0
M  V30 2 O 2.903837 -1.920642 3.895713 0
M  V30 3 C 2.837215 -0.620438 3.512562 0
M  V30 4 C 4.061150 -0.226263 2.959935 0
M  V30 5 C 4.247903 1.075553 2.488693 0
M  V30 6 C 3.169391 1.936131 2.598870 0
M  V30 7 C 1.913171 1.621096 3.137426 0
M  V30 8 C 0.847816 2.596583 3.240825 0
M  V30 9 C -0.165665 2.797550 2.192387 0
M  V30 10 C 0.243741 3.146882 0.819725 0
M  V30 11 C 0.904536 2.151939 -0.040178 0
M  V30 12 C 0.031644 1.014571 -0.524560 0 CFG=2
M  V30 13 C -1.082207 1.663394 -1.408068 0
M  V30 14 C -1.656342 0.396496 -2.093056 0 CFG=2
M  V30 15 C -2.351231 -0.311619 -0.969744 0
M  V30 16 C -1.400655 -0.688291 0.109776 0 CFG=2
M  V30 17 O -0.595591 -1.770614 -0.197475 0
M  V30 18 C -1.219243 -2.966118 -0.344726 0 CFG=2
M  V30 19 C -1.888440 -3.408800 0.974728 0
M  V30 20 C -2.912122 -2.347975 1.273193 0
M  V30 21 C -2.185510 -1.033042 1.392693 0
M  V30 22 C -3.134030 0.086983 1.771662 0
M  V30 23 C -1.168418 -1.179698 2.486023 0
M  V30 24 C -0.349738 -4.085220 -0.754004 0
M  V30 25 C 0.681751 -3.838074 -1.763418 0
M  V30 26 O 1.905961 -4.125965 -1.590899 0
M  V30 27 O 0.159719 -3.278454 -2.882335 0
M  V30 28 C 0.773830 -2.916526 -4.074648 0 CFG=1
M  V30 29 C 0.134973 -3.408719 -5.331208 0
M  V30 30 O -1.162812 -2.965405 -5.438255 0
M  V30 31 C 0.864332 -1.393079 -4.128551 0
M  V30 32 C -0.409459 -0.706212 -3.858285 0
M  V30 33 O -1.346542 -0.480212 -4.665828 0
M  V30 34 O -0.525267 -0.288348 -2.564115 0
M  V30 35 O -0.569375 0.361030 0.501947 0
M  V30 36 C 1.839561 0.320740 3.569211 0
M  V30 37 H 1.656964 -3.620625 4.107028 0
M  V30 38 H 0.902436 -2.022654 4.290904 0
M  V30 39 H 1.952384 -2.579714 5.593220 0
M  V30 40 H 4.960714 -0.829928 2.831310 0
M  V30 41 H 5.167226 1.438225 2.052055 0
M  V30 42 H 3.325368 2.961252 2.228759 0
M  V30 43 H 0.295962 2.319825 4.219801 0
M  V30 44 H 1.265758 3.622313 3.564595 0
M  V30 45 H -0.909392 1.940798 2.191918 0
M  V30 46 H -0.810031 3.670327 2.548501 0
M  V30 47 H -0.713014 3.458645 0.268793 0
M  V30 48 H 0.804427 4.142407 0.819971 0
M  V30 49 H 1.844273 1.721922 0.286944 0
M  V30 50 H 1.205277 2.738245 -0.992222 0
M  V30 51 H 0.576427 0.333076 -1.180723 0
M  V30 52 H -1.840076 2.147746 -0.795019 0
M  V30 53 H -0.567774 2.295820 -2.133372 0
M  V30 54 H -2.323777 0.706914 -2.905359 0
M  V30 55 H -2.967415 -1.164626 -1.308340 0
M  V30 56 H -3.091476 0.419160 -0.567436 0
M  V30 57 H -2.067557 -2.924423 -1.062903 0
M  V30 58 H -2.337140 -4.403606 0.797084 0
M  V30 59 H -1.129306 -3.470826 1.771223 0
M  V30 60 H -3.696902 -2.333278 0.493123 0
M  V30 61 H -3.326422 -2.555308 2.283080 0
M  V30 62 H -4.201401 -0.190710 1.569014 0
M  V30 63 H -2.910733 1.053847 1.318930 0
M  V30 64 H -3.094594 0.275148 2.885643 0
M  V30 65 H -1.219356 -0.242244 3.117534 0
M  V30 66 H -0.130617 -1.214908 2.099476 0
M  V30 67 H -1.388253 -2.043594 3.153674 0
M  V30 68 H 0.132561 -4.599750 0.134614 0
M  V30 69 H -0.977357 -4.938686 -1.183907 0
M  V30 70 H 1.864863 -3.266952 -4.042190 0
M  V30 71 H 0.696594 -2.982539 -6.193916 0
M  V30 72 H 0.129955 -4.531910 -5.395535 0
M  V30 73 H -1.824244 -3.706116 -5.462334 0
M  V30 74 H 1.614958 -1.121367 -3.368160 0
M  V30 75 H 1.208650 -1.075348 -5.152836 0
M  V30 76 H 0.941270 -0.041789 4.020459 0
M  V30 END ATOM
M  V30 BEGIN BOND
M  V30 1 1 1 2
M  V30 2 1 2 3
M  V30 3 2 3 4
M  V30 4 1 4 5
M  V30 5 2 5 6
M  V30 6 1 6 7
M  V30 7 1 7 8
M  V30 8 1 8 9
M  V30 9 1 9 10
M  V30 10 1 10 11
M  V30 11 1 11 12
M  V30 12 1 12 13
M  V30 13 1 13 14
M  V30 14 1 14 15
M  V30 15 1 15 16
M  V30 16 1 16 17
M  V30 17 1 17 18
M  V30 18 1 18 19
M  V30 19 1 19 20
M  V30 20 1 20 21
M  V30 21 1 21 22
M  V30 22 1 21 23
M  V30 23 1 18 24
M  V30 24 1 24 25
M  V30 25 2 25 26
M  V30 26 1 25 27
M  V30 27 1 27 28
M  V30 28 1 28 29
M  V30 29 1 29 30
M  V30 30 1 28 31
M  V30 31 1 31 32
M  V30 32 2 32 33
M  V30 33 1 32 34
M  V30 34 1 16 35 CFG=1
M  V30 35 2 7 36
M  V30 36 1 36 3
M  V30 37 1 35 12
M  V30 38 1 34 14
M  V30 39 1 21 16
M  V30 40 1 1 37
M  V30 41 1 1 38
M  V30 42 1 1 39
M  V30 43 1 4 40
M  V30 44 1 5 41
M  V30 45 1 6 42
M  V30 46 1 8 43
M  V30 47 1 8 44
M  V30 48 1 9 45
M  V30 49 1 9 46
M  V30 50 1 10 47
M  V30 51 1 10 48
M  V30 52 1 11 49
M  V30 53 1 11 50
M  V30 54 1 12 51 CFG=3
M  V30 55 1 13 52
M  V30 56 1 13 53
M  V30 57 1 14 54 CFG=3
M  V30 58 1 15 55
M  V30 59 1 15 56
M  V30 60 1 18 57 CFG=3
M  V30 61 1 19 58
M  V30 62 1 19 59
M  V30 63 1 20 60
M  V30 64 1 20 61
M  V30 65 1 22 62
M  V30 66 1 22 63
M  V30 67 1 22 64
M  V30 68 1 23 65
M  V30 69 1 23 66
M  V30 70 1 23 67
M  V30 71 1 24 68
M  V30 72 1 24 69
M  V30 73 1 28 70 CFG=1
M  V30 74 1 29 71
M  V30 75 1 29 72
M  V30 76 1 30 73
M  V30 77 1 31 74
M  V30 78 1 31 75
M  V30 79 1 36 76
M  V30 END BOND
M  V30 END CTAB
M  END
>  <Dataset>  (698) 
ChEMBL_Kinases

>  <Ligand_Instance>  (698) 
nan

>  <PDB_ID>  (698) 
nan

>  <Standardized_SMILES>  (698) 
COc1cccc(CCCC[C@@H]2C[C@@H]3C[C@@]4(O[C@H](CCC4(C)C)CC(=O)O[C@@H](CO)CC(=O)O3)O2)c1

>  <Name>  (698) 
nan

>  <Pocket>  (698) 
nan

>  <ATP_Site>  (698) 
nan

>  <Peripheral>  (698) 
nan

>  <Num_H_Atoms_ProtBoundConf>  (698) 
nan

>  <Num_Resolved_Atoms>  (698) 
nan

>  <Num_Not_Resolved_Atoms>  (698) 
nan

$$$$
CHEMBL2381221
     RDKit          3D

  0  0  0  0  0  0  0  0  0  0999 V3000
M  V30 BEGIN CTAB
M  V30 COUNTS 48 52 0 0 0
M  V30 BEGIN ATOM
M  V30 1 O 0.655973 -1.228172 -0.424240 0
M  V30 2 C 0.807484 -1.469828 0.822119 0
M  V30 3 N 2.219465 -1.702011 1.006929 0
M  V30 4 C 2.842731 -1.565572 -0.263526 0
M  V30 5 C 2.936212 -2.749135 -0.965196 0
M  V30 6 N 3.497994 -2.753196 -2.186979 0
M  V30 7 C 3.946840 -1.579646 -2.667170 0
M  V30 8 C 3.843647 -0.407382 -1.948903 0
M  V30 9 C 3.283367 -0.343252 -0.705304 0
M  V30 10 N 3.205902 0.868336 -0.002690 0
M  V30 11 C 3.563818 2.111705 -0.626432 0
M  V30 12 C 2.545055 3.189513 -0.216913 0
M  V30 13 N 2.711688 3.517690 1.188513 0
M  V30 14 C 3.387181 2.406110 1.867917 0
M  V30 15 C 2.798219 1.077349 1.368459 0
M  V30 16 C -0.126897 -1.540987 1.971953 0
M  V30 17 C 0.183402 -1.825556 3.335377 0
M  V30 18 S -1.543310 -1.703523 4.024168 0
M  V30 19 C -2.305046 -1.318588 2.453168 0
M  V30 20 N -3.716088 -1.117795 2.443713 0
M  V30 21 N -4.487619 -0.252283 3.104622 0
M  V30 22 C -5.780433 -0.444425 2.764465 0
M  V30 23 C -5.831654 -1.473548 1.850649 0
M  V30 24 C -6.896152 -2.056844 1.195903 0
M  V30 25 C -6.677025 -3.096212 0.308778 0
M  V30 26 C -5.371164 -3.519591 0.108152 0
M  V30 27 C -4.314571 -2.921923 0.774521 0
M  V30 28 C -4.537295 -1.878042 1.665148 0
M  V30 29 N -1.351057 -1.289019 1.523405 0
M  V30 30 H 2.596852 -1.934008 1.971386 0
M  V30 31 H 2.573604 -3.700981 -0.578676 0
M  V30 32 H 4.386423 -1.654803 -3.653487 0
M  V30 33 H 4.259272 0.427070 -2.490894 0
M  V30 34 H 3.510885 2.106785 -1.736094 0
M  V30 35 H 4.554585 2.491234 -0.331676 0
M  V30 36 H 2.668935 4.090979 -0.826228 0
M  V30 37 H 1.544386 2.737678 -0.355184 0
M  V30 38 H 1.803326 3.708754 1.677716 0
M  V30 39 H 3.106050 2.469348 2.957608 0
M  V30 40 H 4.460889 2.412002 1.696671 0
M  V30 41 H 3.282977 0.306044 2.003884 0
M  V30 42 H 1.716239 1.184605 1.508575 0
M  V30 43 H 1.304985 -2.018347 3.530857 0
M  V30 44 H -6.592975 0.144469 3.176153 0
M  V30 45 H -7.881059 -1.688896 1.390076 0
M  V30 46 H -7.512846 -3.560746 -0.211082 0
M  V30 47 H -5.222162 -4.344010 -0.598788 0
M  V30 48 H -3.307007 -3.278564 0.593305 0
M  V30 END ATOM
M  V30 BEGIN BOND
M  V30 1 2 1 2
M  V30 2 1 2 3
M  V30 3 1 3 4
M  V30 4 2 4 5
M  V30 5 1 5 6
M  V30 6 2 6 7
M  V30 7 1 7 8
M  V30 8 2 8 9
M  V30 9 1 9 10
M  V30 10 1 10 11
M  V30 11 1 11 12
M  V30 12 1 12 13
M  V30 13 1 13 14
M  V30 14 1 14 15
M  V30 15 1 2 16
M  V30 16 2 16 17
M  V30 17 1 17 18
M  V30 18 1 18 19
M  V30 19 1 19 20
M  V30 20 1 20 21
M  V30 21 2 21 22
M  V30 22 1 22 23
M  V30 23 2 23 24
M  V30 24 1 24 25
M  V30 25 2 25 26
M  V30 26 1 26 27
M  V30 27 2 27 28
M  V30 28 2 19 29
M  V30 29 1 9 4
M  V30 30 1 15 10
M  V30 31 1 29 16
M  V30 32 1 28 20
M  V30 33 1 28 23
M  V30 34 1 3 30
M  V30 35 1 5 31
M  V30 36 1 7 32
M  V30 37 1 8 33
M  V30 38 1 11 34
M  V30 39 1 11 35
M  V30 40 1 12 36
M  V30 41 1 12 37
M  V30 42 1 13 38
M  V30 43 1 14 39
M  V30 44 1 14 40
M  V30 45 1 15 41
M  V30 46 1 15 42
M  V30 47 1 17 43
M  V30 48 1 22 44
M  V30 49 1 24 45
M  V30 50 1 25 46
M  V30 51 1 26 47
M  V30 52 1 27 48
M  V30 END BOND
M  V30 END CTAB
M  END
>  <Dataset>  (699) 
ChEMBL_Kinases

>  <Ligand_Instance>  (699) 
nan

>  <PDB_ID>  (699) 
nan

>  <Standardized_SMILES>  (699) 
O=C(Nc1cnccc1N1CCNCC1)c1csc(-n2ncc3ccccc32)n1

>  <Name>  (699) 
nan

>  <Pocket>  (699) 
nan

>  <ATP_Site>  (699) 
nan

>  <Peripheral>  (699) 
nan

>  <Num_H_Atoms_ProtBoundConf>  (699) 
nan

>  <Num_Resolved_Atoms>  (699) 
nan

>  <Num_Not_Resolved_Atoms>  (699) 
nan

$$$$
CHEMBL2381222
     RDKit          3D

  0  0  0  0  0  0  0  0  0  0999 V3000
M  V30 BEGIN CTAB
M  V30 COUNTS 50 54 0 0 0
M  V30 BEGIN ATOM
M  V30 1 O 0.351261 -1.647513 0.378559 0
M  V30 2 C 0.055202 -0.549085 -0.190224 0
M  V30 3 N 1.182075 0.037342 -0.779426 0
M  V30 4 C 2.525884 0.106219 -1.109449 0
M  V30 5 C 2.832726 -0.609755 -2.269218 0
M  V30 6 N 4.132449 -0.630802 -2.712392 0
M  V30 7 C 5.046605 0.042658 -2.005410 0
M  V30 8 C 4.805388 0.770222 -0.849721 0
M  V30 9 C 3.479349 0.797908 -0.386269 0
M  V30 10 N 3.200701 1.543642 0.791639 0
M  V30 11 C 2.282065 2.650022 0.942847 0
M  V30 12 C 1.520970 2.611898 2.244125 0
M  V30 13 N 2.282042 2.176072 3.372713 0
M  V30 14 C 3.689949 2.123382 3.145362 0
M  V30 15 C 3.946823 1.171616 1.991794 0
M  V30 16 C -1.280947 0.081340 -0.262605 0
M  V30 17 C -1.629101 1.405539 -0.807261 0
M  V30 18 S -3.502841 1.350374 -0.524003 0
M  V30 19 C -3.448344 -0.341457 0.226879 0
M  V30 20 N -4.604089 -0.998326 0.693508 0
M  V30 21 C -4.557238 -2.318587 1.205785 0
M  V30 22 N -5.188409 -2.591033 2.367393 0
M  V30 23 N -5.039061 -3.859053 2.682645 0
M  V30 24 C -4.307148 -4.495047 1.754895 0
M  V30 25 C -3.836232 -5.791758 1.546385 0
M  V30 26 C -3.094933 -5.988440 0.403808 0
M  V30 27 C -2.783728 -5.035423 -0.533974 0
M  V30 28 C -3.263666 -3.742172 -0.308751 0
M  V30 29 C -4.008122 -3.523586 0.830006 0
M  V30 30 N -2.274169 -0.634487 0.197033 0
M  V30 31 H 0.934724 0.957243 -1.276652 0
M  V30 32 H 2.082959 -1.159902 -2.848375 0
M  V30 33 H 6.024216 -0.065180 -2.477645 0
M  V30 34 H 5.637545 1.270524 -0.373097 0
M  V30 35 H 1.543037 2.752151 0.145119 0
M  V30 36 H 2.928784 3.578625 0.977813 0
M  V30 37 H 0.601850 2.013004 2.116721 0
M  V30 38 H 1.181056 3.672720 2.436092 0
M  V30 39 H 2.106554 2.735869 4.236752 0
M  V30 40 H 4.072793 3.125421 2.947819 0
M  V30 41 H 4.169050 1.675730 4.043595 0
M  V30 42 H 5.057950 1.274518 1.799669 0
M  V30 43 H 3.778208 0.136373 2.285384 0
M  V30 44 H -0.748166 2.011796 -1.201803 0
M  V30 45 H -5.522548 -0.479764 0.661070 0
M  V30 46 H -5.404716 -4.381221 3.521541 0
M  V30 47 H -4.075962 -6.561497 2.281384 0
M  V30 48 H -2.760887 -7.028822 0.297471 0
M  V30 49 H -2.182572 -5.306177 -1.409001 0
M  V30 50 H -3.037812 -2.974561 -1.031269 0
M  V30 END ATOM
M  V30 BEGIN BOND
M  V30 1 2 1 2
M  V30 2 1 2 3
M  V30 3 1 3 4
M  V30 4 2 4 5
M  V30 5 1 5 6
M  V30 6 2 6 7
M  V30 7 1 7 8
M  V30 8 2 8 9
M  V30 9 1 9 10
M  V30 10 1 10 11
M  V30 11 1 11 12
M  V30 12 1 12 13
M  V30 13 1 13 14
M  V30 14 1 14 15
M  V30 15 1 2 16
M  V30 16 2 16 17
M  V30 17 1 17 18
M  V30 18 1 18 19
M  V30 19 1 19 20
M  V30 20 1 20 21
M  V30 21 2 21 22
M  V30 22 1 22 23
M  V30 23 1 23 24
M  V30 24 2 24 25
M  V30 25 1 25 26
M  V30 26 2 26 27
M  V30 27 1 27 28
M  V30 28 2 28 29
M  V30 29 2 19 30
M  V30 30 1 9 4
M  V30 31 1 15 10
M  V30 32 1 30 16
M  V30 33 1 29 21
M  V30 34 1 29 24
M  V30 35 1 3 31
M  V30 36 1 5 32
M  V30 37 1 7 33
M  V30 38 1 8 34
M  V30 39 1 11 35
M  V30 40 1 11 36
M  V30 41 1 12 37
M  V30 42 1 12 38
M  V30 43 1 13 39
M  V30 44 1 14 40
M  V30 45 1 14 41
M  V30 46 1 15 42
M  V30 47 1 15 43
M  V30 48 1 17 44
M  V30 49 1 20 45
M  V30 50 1 23 46
M  V30 51 1 25 47
M  V30 52 1 26 48
M  V30 53 1 27 49
M  V30 54 1 28 50
M  V30 END BOND
M  V30 END CTAB
M  END
>  <Dataset>  (700) 
ChEMBL_Kinases

>  <Ligand_Instance>  (700) 
nan

>  <PDB_ID>  (700) 
nan

>  <Standardized_SMILES>  (700) 
O=C(Nc1cnccc1N1CCNCC1)c1csc(Nc2n[nH]c3ccccc23)n1

>  <Name>  (700) 
nan

>  <Pocket>  (700) 
nan

>  <ATP_Site>  (700) 
nan

>  <Peripheral>  (700) 
nan

>  <Num_H_Atoms_ProtBoundConf>  (700) 
nan

>  <Num_Resolved_Atoms>  (700) 
nan

>  <Num_Not_Resolved_Atoms>  (700) 
nan

$$$$
CHEMBL2381223
     RDKit          3D

  0  0  0  0  0  0  0  0  0  0999 V3000
M  V30 BEGIN CTAB
M  V30 COUNTS 55 59 0 0 0
M  V30 BEGIN ATOM
M  V30 1 C 8.447524 -1.655614 1.970481 0
M  V30 2 O 7.522101 -0.594363 2.004004 0
M  V30 3 C 6.347643 -0.623806 1.228676 0
M  V30 4 C 6.063248 -1.702552 0.404120 0
M  V30 5 C 4.891969 -1.708655 -0.355285 0
M  V30 6 C 4.024306 -0.636903 -0.278263 0
M  V30 7 C 4.338044 0.431042 0.558808 0
M  V30 8 C 5.491275 0.453673 1.316389 0
M  V30 9 C 3.267966 1.420511 0.456312 0
M  V30 10 O 3.096076 2.521886 0.999882 0
M  V30 11 N 2.318938 0.899675 -0.465573 0
M  V30 12 C 1.048357 1.408075 -0.983341 0
M  V30 13 N -0.049116 1.286427 -0.599652 0
M  V30 14 C -1.154746 1.766114 -1.105507 0
M  V30 15 C -2.517951 1.617814 -0.633109 0
M  V30 16 O -3.547945 2.101789 -1.159442 0
M  V30 17 N -2.785664 0.861984 0.536575 0
M  V30 18 C -3.768262 0.396701 1.408148 0
M  V30 19 C -4.034706 1.360277 2.388154 0
M  V30 20 C -4.970228 1.139780 3.407905 0
M  V30 21 F -5.242702 2.055858 4.363635 0
M  V30 22 C -5.599796 -0.087611 3.369069 0
M  V30 23 C -5.328718 -1.026206 2.399824 0
M  V30 24 C -4.409263 -0.797539 1.405918 0
M  V30 25 N -4.158290 -1.765170 0.402607 0
M  V30 26 C -4.437736 -3.173952 0.726840 0
M  V30 27 C -3.076503 -3.883109 0.646656 0
M  V30 28 N -2.493559 -3.706214 -0.651838 0
M  V30 29 C -2.300785 -2.287881 -0.968608 0
M  V30 30 C -3.688503 -1.682052 -0.942266 0
M  V30 31 C -0.940947 2.547989 -2.303712 0
M  V30 32 S 0.917951 2.448667 -2.501106 0
M  V30 33 C 2.728634 -0.391181 -0.968296 0
M  V30 34 H 9.110499 -1.500810 2.858997 0
M  V30 35 H 7.952581 -2.635705 2.156703 0
M  V30 36 H 9.060331 -1.673223 1.063282 0
M  V30 37 H 6.786556 -2.508677 0.391798 0
M  V30 38 H 4.691607 -2.568095 -0.995295 0
M  V30 39 H 5.700962 1.312372 1.961976 0
M  V30 40 H -1.937365 0.429862 1.016103 0
M  V30 41 H -3.564871 2.355790 2.470364 0
M  V30 42 H -6.330878 -0.239788 4.179068 0
M  V30 43 H -5.918149 -1.904147 2.532244 0
M  V30 44 H -5.136457 -3.550563 -0.019316 0
M  V30 45 H -4.854841 -3.322083 1.717646 0
M  V30 46 H -3.184969 -4.963307 0.820426 0
M  V30 47 H -2.467273 -3.377097 1.435359 0
M  V30 48 H -1.550394 -4.150205 -0.644592 0
M  V30 49 H -1.625857 -1.879384 -0.202784 0
M  V30 50 H -1.840460 -2.254861 -1.962388 0
M  V30 51 H -4.309861 -2.393882 -1.574251 0
M  V30 52 H -3.788760 -0.726910 -1.448133 0
M  V30 53 H -1.810159 3.079430 -2.930072 0
M  V30 54 H 2.981033 -0.283065 -2.043314 0
M  V30 55 H 1.983194 -1.182041 -0.754577 0
M  V30 END ATOM
M  V30 BEGIN BOND
M  V30 1 1 1 2
M  V30 2 1 2 3
M  V30 3 2 3 4
M  V30 4 1 4 5
M  V30 5 2 5 6
M  V30 6 1 6 7
M  V30 7 2 7 8
M  V30 8 1 7 9
M  V30 9 2 9 10
M  V30 10 1 9 11
M  V30 11 1 11 12
M  V30 12 2 12 13
M  V30 13 1 13 14
M  V30 14 1 14 15
M  V30 15 2 15 16
M  V30 16 1 15 17
M  V30 17 1 17 18
M  V30 18 2 18 19
M  V30 19 1 19 20
M  V30 20 1 20 21
M  V30 21 2 20 22
M  V30 22 1 22 23
M  V30 23 2 23 24
M  V30 24 1 24 25
M  V30 25 1 25 26
M  V30 26 1 26 27
M  V30 27 1 27 28
M  V30 28 1 28 29
M  V30 29 1 29 30
M  V30 30 2 14 31
M  V30 31 1 31 32
M  V30 32 1 11 33
M  V30 33 1 8 3
M  V30 34 1 32 12
M  V30 35 1 33 6
M  V30 36 1 24 18
M  V30 37 1 30 25
M  V30 38 1 1 34
M  V30 39 1 1 35
M  V30 40 1 1 36
M  V30 41 1 4 37
M  V30 42 1 5 38
M  V30 43 1 8 39
M  V30 44 1 17 40
M  V30 45 1 19 41
M  V30 46 1 22 42
M  V30 47 1 23 43
M  V30 48 1 26 44
M  V30 49 1 26 45
M  V30 50 1 27 46
M  V30 51 1 27 47
M  V30 52 1 28 48
M  V30 53 1 29 49
M  V30 54 1 29 50
M  V30 55 1 30 51
M  V30 56 1 30 52
M  V30 57 1 31 53
M  V30 58 1 33 54
M  V30 59 1 33 55
M  V30 END BOND
M  V30 END CTAB
M  END
>  <Dataset>  (701) 
ChEMBL_Kinases

>  <Ligand_Instance>  (701) 
nan

>  <PDB_ID>  (701) 
nan

>  <Standardized_SMILES>  (701) 
COc1ccc2c(c1)C(=O)N(c1nc(C(=O)Nc3cc(F)ccc3N3CCNCC3)cs1)C2

>  <Name>  (701) 
nan

>  <Pocket>  (701) 
nan

>  <ATP_Site>  (701) 
nan

>  <Peripheral>  (701) 
nan

>  <Num_H_Atoms_ProtBoundConf>  (701) 
nan

>  <Num_Resolved_Atoms>  (701) 
nan

>  <Num_Not_Resolved_Atoms>  (701) 
nan

$$$$
CHEMBL2381235
     RDKit          3D

  0  0  0  0  0  0  0  0  0  0999 V3000
M  V30 BEGIN CTAB
M  V30 COUNTS 52 56 0 0 0
M  V30 BEGIN ATOM
M  V30 1 O 3.093486 -2.187950 1.576145 0
M  V30 2 C 1.891988 -2.041990 1.290738 0
M  V30 3 N 1.617817 -1.075353 0.283251 0
M  V30 4 C 2.230437 -0.147889 -0.581461 0
M  V30 5 C 2.576561 -0.776678 -1.786903 0
M  V30 6 C 3.190930 -0.059436 -2.804372 0
M  V30 7 C 3.448026 1.279121 -2.593680 0
M  V30 8 C 3.086907 1.851740 -1.386813 0
M  V30 9 C 2.478915 1.180871 -0.354603 0
M  V30 10 N 2.138280 1.788656 0.856217 0
M  V30 11 C 2.275321 3.200950 1.113008 0
M  V30 12 C 0.893870 3.715045 1.509468 0
M  V30 13 N 0.677861 3.246024 2.856708 0
M  V30 14 C 1.423620 2.070715 3.174168 0
M  V30 15 C 1.623885 1.110241 2.024776 0
M  V30 16 C 0.794644 -2.770182 1.904815 0
M  V30 17 C 1.106697 -3.623129 2.985524 0
M  V30 18 S -0.598099 -4.325362 3.441052 0
M  V30 19 C -1.363067 -3.330089 2.091508 0
M  V30 20 N -2.781761 -3.259489 1.706251 0
M  V30 21 C -3.848921 -2.290344 1.849415 0
M  V30 22 C -4.334860 -1.852937 0.483342 0
M  V30 23 C -3.829900 -2.769104 -0.593917 0
M  V30 24 N -3.776286 -2.550388 -1.935029 0
M  V30 25 C -3.248708 -3.639245 -2.530095 0
M  V30 26 N -2.956854 -4.564819 -1.614806 0
M  V30 27 C -3.308889 -4.041272 -0.427596 0
M  V30 28 C -3.288049 -4.453779 1.002945 0
M  V30 29 N -0.482999 -2.767703 1.618909 0
M  V30 30 H 0.591454 -0.944847 0.020564 0
M  V30 31 H 2.416340 -1.816048 -2.046365 0
M  V30 32 H 3.475574 -0.500798 -3.749589 0
M  V30 33 H 3.929441 1.831925 -3.395755 0
M  V30 34 H 3.336616 2.899804 -1.342818 0
M  V30 35 H 2.707973 3.793847 0.299517 0
M  V30 36 H 2.974605 3.287176 1.987255 0
M  V30 37 H 0.108197 3.267404 0.866333 0
M  V30 38 H 0.873382 4.822781 1.503195 0
M  V30 39 H 0.966704 4.010953 3.503798 0
M  V30 40 H 2.402552 2.274673 3.630431 0
M  V30 41 H 0.872544 1.469627 3.962034 0
M  V30 42 H 0.709308 0.551688 1.846463 0
M  V30 43 H 2.497722 0.465716 2.369317 0
M  V30 44 H 2.163729 -3.824955 3.462867 0
M  V30 45 H -3.352689 -1.378231 2.297405 0
M  V30 46 H -4.642132 -2.589200 2.530602 0
M  V30 47 H -4.004540 -0.834490 0.200005 0
M  V30 48 H -5.423860 -1.855420 0.450141 0
M  V30 49 H -4.058352 -1.732523 -2.527635 0
M  V30 50 H -3.010189 -3.942813 -3.545373 0
M  V30 51 H -2.608586 -5.317242 1.138940 0
M  V30 52 H -4.292308 -4.751795 1.363393 0
M  V30 END ATOM
M  V30 BEGIN BOND
M  V30 1 2 1 2
M  V30 2 1 2 3
M  V30 3 1 3 4
M  V30 4 2 4 5
M  V30 5 1 5 6
M  V30 6 2 6 7
M  V30 7 1 7 8
M  V30 8 2 8 9
M  V30 9 1 9 10
M  V30 10 1 10 11
M  V30 11 1 11 12
M  V30 12 1 12 13
M  V30 13 1 13 14
M  V30 14 1 14 15
M  V30 15 1 2 16
M  V30 16 2 16 17
M  V30 17 1 17 18
M  V30 18 1 18 19
M  V30 19 1 19 20
M  V30 20 1 20 21
M  V30 21 1 21 22
M  V30 22 1 22 23
M  V30 23 1 23 24
M  V30 24 1 24 25
M  V30 25 2 25 26
M  V30 26 1 26 27
M  V30 27 1 27 28
M  V30 28 2 19 29
M  V30 29 1 9 4
M  V30 30 1 15 10
M  V30 31 1 29 16
M  V30 32 1 28 20
M  V30 33 2 27 23
M  V30 34 1 3 30
M  V30 35 1 5 31
M  V30 36 1 6 32
M  V30 37 1 7 33
M  V30 38 1 8 34
M  V30 39 1 11 35
M  V30 40 1 11 36
M  V30 41 1 12 37
M  V30 42 1 12 38
M  V30 43 1 13 39
M  V30 44 1 14 40
M  V30 45 1 14 41
M  V30 46 1 15 42
M  V30 47 1 15 43
M  V30 48 1 17 44
M  V30 49 1 21 45
M  V30 50 1 21 46
M  V30 51 1 22 47
M  V30 52 1 22 48
M  V30 53 1 24 49
M  V30 54 1 25 50
M  V30 55 1 28 51
M  V30 56 1 28 52
M  V30 END BOND
M  V30 END CTAB
M  END
>  <Dataset>  (702) 
ChEMBL_Kinases

>  <Ligand_Instance>  (702) 
nan

>  <PDB_ID>  (702) 
nan

>  <Standardized_SMILES>  (702) 
O=C(Nc1ccccc1N1CCNCC1)c1csc(N2CCc3[nH]cnc3C2)n1

>  <Name>  (702) 
nan

>  <Pocket>  (702) 
nan

>  <ATP_Site>  (702) 
nan

>  <Peripheral>  (702) 
nan

>  <Num_H_Atoms_ProtBoundConf>  (702) 
nan

>  <Num_Resolved_Atoms>  (702) 
nan

>  <Num_Not_Resolved_Atoms>  (702) 
nan

$$$$
CHEMBL2381225
     RDKit          3D

  0  0  0  0  0  0  0  0  0  0999 V3000
M  V30 BEGIN CTAB
M  V30 COUNTS 53 57 0 0 0
M  V30 BEGIN ATOM
M  V30 1 C 8.491308 -1.246721 1.196707 0
M  V30 2 O 7.588011 -0.169327 1.365571 0
M  V30 3 C 6.346131 -0.301058 0.738187 0
M  V30 4 C 6.009217 -1.414405 -0.005251 0
M  V30 5 C 4.779286 -1.547548 -0.627772 0
M  V30 6 C 3.866901 -0.523114 -0.492116 0
M  V30 7 C 4.210712 0.595928 0.257105 0
M  V30 8 C 5.438221 0.748261 0.888915 0
M  V30 9 C 3.097624 1.543869 0.258467 0
M  V30 10 O 2.966499 2.669033 0.796685 0
M  V30 11 N 2.098189 0.939924 -0.513106 0
M  V30 12 C 0.748273 1.444480 -0.862144 0
M  V30 13 N -0.241468 1.261377 -0.215934 0
M  V30 14 C -1.451530 1.718509 -0.537689 0
M  V30 15 C -2.670747 1.510233 0.231697 0
M  V30 16 O -3.803400 1.950269 -0.078495 0
M  V30 17 N -2.655628 0.766114 1.429835 0
M  V30 18 C -3.568992 0.356751 2.417810 0
M  V30 19 C -3.764441 1.180863 3.484396 0
M  V30 20 N -4.655093 0.732763 4.418712 0
M  V30 21 C -5.277341 -0.455373 4.254302 0
M  V30 22 N -5.084593 -1.270576 3.200180 0
M  V30 23 C -4.201464 -0.855161 2.246184 0
M  V30 24 N -4.051159 -1.759632 1.159052 0
M  V30 25 C -4.313243 -1.696568 -0.274938 0
M  V30 26 C -3.287736 -2.597015 -0.945193 0
M  V30 27 N -3.740310 -3.971674 -0.690307 0
M  V30 28 C -4.143522 -4.118264 0.697878 0
M  V30 29 C -3.506509 -3.051251 1.564872 0
M  V30 30 C -1.520666 2.480984 -1.758528 0
M  V30 31 S 0.303249 2.414053 -2.288910 0
M  V30 32 C 2.479626 -0.364180 -1.027080 0
M  V30 33 H 8.639696 -1.461750 0.102988 0
M  V30 34 H 8.126571 -2.197091 1.631182 0
M  V30 35 H 9.468521 -1.055557 1.678800 0
M  V30 36 H 6.720640 -2.230346 -0.120589 0
M  V30 37 H 4.519825 -2.420732 -1.208752 0
M  V30 38 H 5.670570 1.617707 1.455416 0
M  V30 39 H -1.756723 0.339058 1.801437 0
M  V30 40 H -3.256958 2.110270 3.580685 0
M  V30 41 H -5.971402 -0.739181 5.042875 0
M  V30 42 H -5.311683 -2.156270 -0.444405 0
M  V30 43 H -4.284552 -0.693232 -0.694555 0
M  V30 44 H -2.278445 -2.472559 -0.515710 0
M  V30 45 H -3.266084 -2.458338 -2.051304 0
M  V30 46 H -4.541835 -4.179167 -1.296836 0
M  V30 47 H -5.242713 -4.006368 0.752055 0
M  V30 48 H -3.844899 -5.129201 1.056222 0
M  V30 49 H -3.743045 -3.309764 2.610554 0
M  V30 50 H -2.397030 -3.051599 1.435270 0
M  V30 51 H -2.464854 2.941057 -2.179571 0
M  V30 52 H 2.519557 -0.271595 -2.147420 0
M  V30 53 H 1.795503 -1.160869 -0.709829 0
M  V30 END ATOM
M  V30 BEGIN BOND
M  V30 1 1 1 2
M  V30 2 1 2 3
M  V30 3 2 3 4
M  V30 4 1 4 5
M  V30 5 2 5 6
M  V30 6 1 6 7
M  V30 7 2 7 8
M  V30 8 1 7 9
M  V30 9 2 9 10
M  V30 10 1 9 11
M  V30 11 1 11 12
M  V30 12 2 12 13
M  V30 13 1 13 14
M  V30 14 1 14 15
M  V30 15 2 15 16
M  V30 16 1 15 17
M  V30 17 1 17 18
M  V30 18 2 18 19
M  V30 19 1 19 20
M  V30 20 2 20 21
M  V30 21 1 21 22
M  V30 22 2 22 23
M  V30 23 1 23 24
M  V30 24 1 24 25
M  V30 25 1 25 26
M  V30 26 1 26 27
M  V30 27 1 27 28
M  V30 28 1 28 29
M  V30 29 2 14 30
M  V30 30 1 30 31
M  V30 31 1 11 32
M  V30 32 1 8 3
M  V30 33 1 31 12
M  V30 34 1 32 6
M  V30 35 1 23 18
M  V30 36 1 29 24
M  V30 37 1 1 33
M  V30 38 1 1 34
M  V30 39 1 1 35
M  V30 40 1 4 36
M  V30 41 1 5 37
M  V30 42 1 8 38
M  V30 43 1 17 39
M  V30 44 1 19 40
M  V30 45 1 21 41
M  V30 46 1 25 42
M  V30 47 1 25 43
M  V30 48 1 26 44
M  V30 49 1 26 45
M  V30 50 1 27 46
M  V30 51 1 28 47
M  V30 52 1 28 48
M  V30 53 1 29 49
M  V30 54 1 29 50
M  V30 55 1 30 51
M  V30 56 1 32 52
M  V30 57 1 32 53
M  V30 END BOND
M  V30 END CTAB
M  END
>  <Dataset>  (703) 
ChEMBL_Kinases

>  <Ligand_Instance>  (703) 
nan

>  <PDB_ID>  (703) 
nan

>  <Standardized_SMILES>  (703) 
COc1ccc2c(c1)C(=O)N(c1nc(C(=O)Nc3cncnc3N3CCNCC3)cs1)C2

>  <Name>  (703) 
nan

>  <Pocket>  (703) 
nan

>  <ATP_Site>  (703) 
nan

>  <Peripheral>  (703) 
nan

>  <Num_H_Atoms_ProtBoundConf>  (703) 
nan

>  <Num_Resolved_Atoms>  (703) 
nan

>  <Num_Not_Resolved_Atoms>  (703) 
nan

$$$$
CHEMBL2381226
     RDKit          3D

  0  0  0  0  0  0  0  0  0  0999 V3000
M  V30 BEGIN CTAB
M  V30 COUNTS 53 57 0 0 0
M  V30 BEGIN ATOM
M  V30 1 C 7.034677 0.881822 3.829696 0
M  V30 2 O 7.121854 1.324448 2.488313 0
M  V30 3 C 5.941194 1.544934 1.792003 0
M  V30 4 C 6.180707 1.977705 0.483623 0
M  V30 5 C 5.105515 2.250510 -0.369014 0
M  V30 6 C 3.782582 2.103615 0.047452 0
M  V30 7 C 3.614048 1.674236 1.347437 0
M  V30 8 C 4.646719 1.394891 2.218515 0
M  V30 9 C 2.175398 1.567534 1.647053 0
M  V30 10 O 1.546418 1.220734 2.689279 0
M  V30 11 N 1.528371 1.959534 0.447348 0
M  V30 12 C 0.086806 2.050034 0.161138 0
M  V30 13 N -0.580856 1.190121 -0.263009 0
M  V30 14 C -1.886493 1.249414 -0.530968 0
M  V30 15 C -2.699476 0.162919 -1.061859 0
M  V30 16 O -3.928602 0.247615 -1.299231 0
M  V30 17 N -2.141075 -1.095136 -1.352689 0
M  V30 18 C -2.717621 -2.285587 -1.865154 0
M  V30 19 C -2.822947 -2.581339 -3.206403 0
M  V30 20 C -3.414173 -3.800646 -3.485033 0
M  V30 21 N -3.864390 -4.662062 -2.580866 0
M  V30 22 N -3.748429 -4.349136 -1.302156 0
M  V30 23 C -3.184367 -3.179181 -0.932765 0
M  V30 24 N -3.162293 -3.045095 0.503488 0
M  V30 25 C -3.748820 -2.094615 1.458808 0
M  V30 26 C -4.678559 -2.923030 2.321892 0
M  V30 27 N -3.854428 -3.786151 3.144890 0
M  V30 28 C -3.226358 -4.750098 2.289206 0
M  V30 29 C -2.386856 -4.069913 1.211559 0
M  V30 30 C -2.487279 2.519095 -0.253320 0
M  V30 31 S -1.004565 3.510130 0.392448 0
M  V30 32 C 2.468758 2.309645 -0.610692 0
M  V30 33 H 6.191763 1.343269 4.394069 0
M  V30 34 H 7.043917 -0.225075 3.900235 0
M  V30 35 H 7.974081 1.237699 4.346131 0
M  V30 36 H 7.156905 2.128880 0.046376 0
M  V30 37 H 5.254894 2.591114 -1.400520 0
M  V30 38 H 4.547557 1.063979 3.220878 0
M  V30 39 H -1.102641 -1.230776 -1.174547 0
M  V30 40 H -2.453653 -1.874405 -3.928774 0
M  V30 41 H -3.518398 -4.076193 -4.531035 0
M  V30 42 H -2.924737 -1.750249 2.102056 0
M  V30 43 H -4.258822 -1.266807 0.960110 0
M  V30 44 H -5.319559 -2.253286 2.927808 0
M  V30 45 H -5.387810 -3.524711 1.682273 0
M  V30 46 H -4.425316 -4.330166 3.835908 0
M  V30 47 H -2.522948 -5.330149 2.919246 0
M  V30 48 H -3.920472 -5.477578 1.847648 0
M  V30 49 H -1.531144 -3.561585 1.742494 0
M  V30 50 H -2.021438 -4.859704 0.543299 0
M  V30 51 H -3.589903 2.755259 -0.419545 0
M  V30 52 H 2.377184 3.398864 -0.783359 0
M  V30 53 H 2.321143 1.710690 -1.524138 0
M  V30 END ATOM
M  V30 BEGIN BOND
M  V30 1 1 1 2
M  V30 2 1 2 3
M  V30 3 2 3 4
M  V30 4 1 4 5
M  V30 5 2 5 6
M  V30 6 1 6 7
M  V30 7 2 7 8
M  V30 8 1 7 9
M  V30 9 2 9 10
M  V30 10 1 9 11
M  V30 11 1 11 12
M  V30 12 2 12 13
M  V30 13 1 13 14
M  V30 14 1 14 15
M  V30 15 2 15 16
M  V30 16 1 15 17
M  V30 17 1 17 18
M  V30 18 2 18 19
M  V30 19 1 19 20
M  V30 20 2 20 21
M  V30 21 1 21 22
M  V30 22 2 22 23
M  V30 23 1 23 24
M  V30 24 1 24 25
M  V30 25 1 25 26
M  V30 26 1 26 27
M  V30 27 1 27 28
M  V30 28 1 28 29
M  V30 29 2 14 30
M  V30 30 1 30 31
M  V30 31 1 11 32
M  V30 32 1 8 3
M  V30 33 1 31 12
M  V30 34 1 32 6
M  V30 35 1 23 18
M  V30 36 1 29 24
M  V30 37 1 1 33
M  V30 38 1 1 34
M  V30 39 1 1 35
M  V30 40 1 4 36
M  V30 41 1 5 37
M  V30 42 1 8 38
M  V30 43 1 17 39
M  V30 44 1 19 40
M  V30 45 1 20 41
M  V30 46 1 25 42
M  V30 47 1 25 43
M  V30 48 1 26 44
M  V30 49 1 26 45
M  V30 50 1 27 46
M  V30 51 1 28 47
M  V30 52 1 28 48
M  V30 53 1 29 49
M  V30 54 1 29 50
M  V30 55 1 30 51
M  V30 56 1 32 52
M  V30 57 1 32 53
M  V30 END BOND
M  V30 END CTAB
M  END
>  <Dataset>  (704) 
ChEMBL_Kinases

>  <Ligand_Instance>  (704) 
nan

>  <PDB_ID>  (704) 
nan

>  <Standardized_SMILES>  (704) 
COc1ccc2c(c1)C(=O)N(c1nc(C(=O)Nc3ccnnc3N3CCNCC3)cs1)C2

>  <Name>  (704) 
nan

>  <Pocket>  (704) 
nan

>  <ATP_Site>  (704) 
nan

>  <Peripheral>  (704) 
nan

>  <Num_H_Atoms_ProtBoundConf>  (704) 
nan

>  <Num_Resolved_Atoms>  (704) 
nan

>  <Num_Not_Resolved_Atoms>  (704) 
nan

$$$$
CHEMBL2381227
     RDKit          3D

  0  0  0  0  0  0  0  0  0  0999 V3000
M  V30 BEGIN CTAB
M  V30 COUNTS 60 65 0 0 0
M  V30 BEGIN ATOM
M  V30 1 C 6.692572 -1.394740 5.239354 0
M  V30 2 O 7.491738 -0.906523 4.192810 0
M  V30 3 C 6.911740 -0.594288 2.977377 0
M  V30 4 C 7.808189 -0.140524 1.998626 0
M  V30 5 C 7.340368 0.212221 0.727784 0
M  V30 6 C 5.965704 0.092359 0.490984 0
M  V30 7 C 5.130627 -0.355897 1.480808 0
M  V30 8 C 5.565192 -0.711915 2.740839 0
M  V30 9 C 3.728146 -0.346900 1.001702 0
M  V30 10 O 2.710475 -0.695118 1.641856 0
M  V30 11 N 3.822943 0.137966 -0.318265 0
M  V30 12 C 2.626134 0.405653 -1.142818 0
M  V30 13 N 1.455573 0.330686 -0.878136 0
M  V30 14 C 0.462024 0.602128 -1.697095 0
M  V30 15 C -0.930591 0.495658 -1.259065 0
M  V30 16 O -1.894802 0.829907 -2.016895 0
M  V30 17 N -1.361282 0.026499 0.017135 0
M  V30 18 C -2.710228 -0.019865 0.347562 0
M  V30 19 C -2.833858 1.259207 0.930098 0
M  V30 20 N -4.020706 1.727442 1.429676 0
M  V30 21 C -5.105293 0.935916 1.364013 0
M  V30 22 C -6.290699 1.367656 1.892486 0
M  V30 23 C -7.431772 0.559664 1.885717 0
M  V30 24 C -7.259661 -0.682921 1.313811 0
M  V30 25 C -6.052151 -1.063042 0.799089 0
M  V30 26 C -4.918066 -0.296508 0.786324 0
M  V30 27 C -3.784545 -0.859488 0.254609 0
M  V30 28 N -3.532011 -2.096612 -0.331675 0
M  V30 29 C -4.441298 -3.109732 -0.815579 0
M  V30 30 C -3.790704 -3.990759 -1.894875 0
M  V30 31 N -2.987990 -3.136057 -2.711738 0
M  V30 32 C -1.816119 -2.819278 -1.871091 0
M  V30 33 C -2.230894 -2.651614 -0.463298 0
M  V30 34 C 0.811073 1.011070 -2.983624 0
M  V30 35 S 2.684451 0.952476 -2.852222 0
M  V30 36 C 5.159985 0.364916 -0.753159 0
M  V30 37 H 6.179393 -0.563908 5.796180 0
M  V30 38 H 5.912501 -2.122942 4.909295 0
M  V30 39 H 7.289947 -1.926123 6.010553 0
M  V30 40 H 8.879857 -0.043737 2.172551 0
M  V30 41 H 8.029227 0.558435 -0.024084 0
M  V30 42 H 4.898125 -1.063076 3.508832 0
M  V30 43 H -0.515390 -0.230780 0.622436 0
M  V30 44 H -2.119520 2.084815 1.108901 0
M  V30 45 H -6.348298 2.358859 2.323209 0
M  V30 46 H -8.316452 0.990545 2.321407 0
M  V30 47 H -8.168827 -1.276244 1.336011 0
M  V30 48 H -6.101996 -2.062772 0.447456 0
M  V30 49 H -5.310594 -2.661205 -1.366598 0
M  V30 50 H -4.704590 -3.836931 -0.032059 0
M  V30 51 H -4.624082 -4.470260 -2.465493 0
M  V30 52 H -3.178201 -4.785284 -1.437451 0
M  V30 53 H -3.556864 -2.268231 -2.893478 0
M  V30 54 H -1.168167 -3.747262 -2.004403 0
M  V30 55 H -1.292417 -2.030064 -2.379573 0
M  V30 56 H -1.449938 -2.248202 0.206132 0
M  V30 57 H -2.264407 -3.728167 -0.048989 0
M  V30 58 H 0.076357 1.270247 -3.781616 0
M  V30 59 H 5.354477 1.408399 -1.094585 0
M  V30 60 H 5.482271 -0.390721 -1.492891 0
M  V30 END ATOM
M  V30 BEGIN BOND
M  V30 1 1 1 2
M  V30 2 1 2 3
M  V30 3 2 3 4
M  V30 4 1 4 5
M  V30 5 2 5 6
M  V30 6 1 6 7
M  V30 7 2 7 8
M  V30 8 1 7 9
M  V30 9 2 9 10
M  V30 10 1 9 11
M  V30 11 1 11 12
M  V30 12 2 12 13
M  V30 13 1 13 14
M  V30 14 1 14 15
M  V30 15 2 15 16
M  V30 16 1 15 17
M  V30 17 1 17 18
M  V30 18 2 18 19
M  V30 19 1 19 20
M  V30 20 2 20 21
M  V30 21 1 21 22
M  V30 22 2 22 23
M  V30 23 1 23 24
M  V30 24 2 24 25
M  V30 25 1 25 26
M  V30 26 2 26 27
M  V30 27 1 27 28
M  V30 28 1 28 29
M  V30 29 1 29 30
M  V30 30 1 30 31
M  V30 31 1 31 32
M  V30 32 1 32 33
M  V30 33 2 14 34
M  V30 34 1 34 35
M  V30 35 1 11 36
M  V30 36 1 8 3
M  V30 37 1 35 12
M  V30 38 1 36 6
M  V30 39 1 27 18
M  V30 40 1 33 28
M  V30 41 1 26 21
M  V30 42 1 1 37
M  V30 43 1 1 38
M  V30 44 1 1 39
M  V30 45 1 4 40
M  V30 46 1 5 41
M  V30 47 1 8 42
M  V30 48 1 17 43
M  V30 49 1 19 44
M  V30 50 1 22 45
M  V30 51 1 23 46
M  V30 52 1 24 47
M  V30 53 1 25 48
M  V30 54 1 29 49
M  V30 55 1 29 50
M  V30 56 1 30 51
M  V30 57 1 30 52
M  V30 58 1 31 53
M  V30 59 1 32 54
M  V30 60 1 32 55
M  V30 61 1 33 56
M  V30 62 1 33 57
M  V30 63 1 34 58
M  V30 64 1 36 59
M  V30 65 1 36 60
M  V30 END BOND
M  V30 END CTAB
M  END
>  <Dataset>  (705) 
ChEMBL_Kinases

>  <Ligand_Instance>  (705) 
nan

>  <PDB_ID>  (705) 
nan

>  <Standardized_SMILES>  (705) 
COc1ccc2c(c1)C(=O)N(c1nc(C(=O)Nc3cnc4ccccc4c3N3CCNCC3)cs1)C2

>  <Name>  (705) 
nan

>  <Pocket>  (705) 
nan

>  <ATP_Site>  (705) 
nan

>  <Peripheral>  (705) 
nan

>  <Num_H_Atoms_ProtBoundConf>  (705) 
nan

>  <Num_Resolved_Atoms>  (705) 
nan

>  <Num_Not_Resolved_Atoms>  (705) 
nan

$$$$
CHEMBL2381228
     RDKit          3D

  0  0  0  0  0  0  0  0  0  0999 V3000
M  V30 BEGIN CTAB
M  V30 COUNTS 48 51 0 0 0
M  V30 BEGIN ATOM
M  V30 1 O -0.954536 -0.105702 -0.031327 0
M  V30 2 C -0.080116 -0.721118 -0.711005 0
M  V30 3 N 0.763416 0.229985 -1.338855 0
M  V30 4 C 0.340705 1.561220 -0.991670 0
M  V30 5 C -0.586312 2.219841 -1.770186 0
M  V30 6 C -0.977960 3.498632 -1.417523 0
M  V30 7 C -0.448669 4.104747 -0.303971 0
M  V30 8 C 0.481959 3.461029 0.489475 0
M  V30 9 C 0.880250 2.166649 0.134989 0
M  V30 10 N 1.839094 1.531464 0.971534 0
M  V30 11 C 3.113026 1.124190 0.379933 0
M  V30 12 C 4.179403 1.991044 1.040395 0
M  V30 13 N 3.659773 2.722714 2.167844 0
M  V30 14 C 2.905057 1.899524 3.074004 0
M  V30 15 C 1.759444 1.202062 2.392708 0
M  V30 16 C 0.113062 -2.166802 -0.884752 0
M  V30 17 C 1.081800 -2.818112 -1.636925 0
M  V30 18 S 0.633566 -4.628545 -1.327159 0
M  V30 19 C -0.752868 -4.132108 -0.258558 0
M  V30 20 N -1.571456 -5.181206 0.348020 0
M  V30 21 C -2.666719 -4.866527 1.190819 0
M  V30 22 C -3.093835 -3.608159 1.540952 0
M  V30 23 C -4.163730 -3.347781 2.363269 0
M  V30 24 C -4.847425 -4.431954 2.865076 0
M  V30 25 C -4.480332 -5.723056 2.560182 0
M  V30 26 C -3.400016 -5.896554 1.731551 0
M  V30 27 N -0.716927 -2.961971 -0.264823 0
M  V30 28 H 1.564813 -0.097655 -1.957518 0
M  V30 29 H -0.988938 1.708300 -2.651656 0
M  V30 30 H -1.713046 3.987097 -2.057877 0
M  V30 31 H -0.783846 5.123521 -0.053690 0
M  V30 32 H 0.879340 3.968822 1.361434 0
M  V30 33 H 3.274910 0.071741 0.675397 0
M  V30 34 H 3.126913 1.241808 -0.722380 0
M  V30 35 H 5.105400 1.452836 1.266113 0
M  V30 36 H 4.438307 2.779921 0.276554 0
M  V30 37 H 4.447554 3.159161 2.661582 0
M  V30 38 H 3.556503 1.197507 3.637961 0
M  V30 39 H 2.463314 2.578054 3.835832 0
M  V30 40 H 0.763857 1.462777 2.778426 0
M  V30 41 H 1.951755 0.093167 2.452383 0
M  V30 42 H 1.878918 -2.070175 -2.232602 0
M  V30 43 H -1.353838 -6.183284 0.163510 0
M  V30 44 H -2.567569 -2.758636 1.154984 0
M  V30 45 H -4.442475 -2.311182 2.595840 0
M  V30 46 H -5.699535 -4.202268 3.520422 0
M  V30 47 H -5.040345 -6.554386 2.972288 0
M  V30 48 H -3.127623 -6.937845 1.503726 0
M  V30 END ATOM
M  V30 BEGIN BOND
M  V30 1 2 1 2
M  V30 2 1 2 3
M  V30 3 1 3 4
M  V30 4 2 4 5
M  V30 5 1 5 6
M  V30 6 2 6 7
M  V30 7 1 7 8
M  V30 8 2 8 9
M  V30 9 1 9 10
M  V30 10 1 10 11
M  V30 11 1 11 12
M  V30 12 1 12 13
M  V30 13 1 13 14
M  V30 14 1 14 15
M  V30 15 1 2 16
M  V30 16 2 16 17
M  V30 17 1 17 18
M  V30 18 1 18 19
M  V30 19 1 19 20
M  V30 20 1 20 21
M  V30 21 2 21 22
M  V30 22 1 22 23
M  V30 23 2 23 24
M  V30 24 1 24 25
M  V30 25 2 25 26
M  V30 26 2 19 27
M  V30 27 1 9 4
M  V30 28 1 15 10
M  V30 29 1 27 16
M  V30 30 1 26 21
M  V30 31 1 3 28
M  V30 32 1 5 29
M  V30 33 1 6 30
M  V30 34 1 7 31
M  V30 35 1 8 32
M  V30 36 1 11 33
M  V30 37 1 11 34
M  V30 38 1 12 35
M  V30 39 1 12 36
M  V30 40 1 13 37
M  V30 41 1 14 38
M  V30 42 1 14 39
M  V30 43 1 15 40
M  V30 44 1 15 41
M  V30 45 1 17 42
M  V30 46 1 20 43
M  V30 47 1 22 44
M  V30 48 1 23 45
M  V30 49 1 24 46
M  V30 50 1 25 47
M  V30 51 1 26 48
M  V30 END BOND
M  V30 END CTAB
M  END
>  <Dataset>  (706) 
ChEMBL_Kinases

>  <Ligand_Instance>  (706) 
nan

>  <PDB_ID>  (706) 
nan

>  <Standardized_SMILES>  (706) 
O=C(Nc1ccccc1N1CCNCC1)c1csc(Nc2ccccc2)n1

>  <Name>  (706) 
nan

>  <Pocket>  (706) 
nan

>  <ATP_Site>  (706) 
nan

>  <Peripheral>  (706) 
nan

>  <Num_H_Atoms_ProtBoundConf>  (706) 
nan

>  <Num_Resolved_Atoms>  (706) 
nan

>  <Num_Not_Resolved_Atoms>  (706) 
nan

$$$$
CHEMBL2381230
     RDKit          3D

  0  0  0  0  0  0  0  0  0  0999 V3000
M  V30 BEGIN CTAB
M  V30 COUNTS 51 54 0 0 0
M  V30 BEGIN ATOM
M  V30 1 C 2.971410 -3.126225 -1.125887 0
M  V30 2 N 3.387133 -1.769217 -0.897645 0
M  V30 3 C 4.590117 -1.299890 -0.338614 0
M  V30 4 C 4.862536 0.051910 -0.175116 0
M  V30 5 C 6.086202 0.399654 0.389964 0
M  V30 6 C 7.016309 -0.538471 0.783915 0
M  V30 7 C 6.730281 -1.895395 0.614077 0
M  V30 8 C 5.521947 -2.237569 0.056102 0
M  V30 9 C 2.398363 -0.777974 -1.316332 0
M  V30 10 N 1.509765 -0.304385 -0.656734 0
M  V30 11 C 0.643038 0.592495 -1.092718 0
M  V30 12 C -0.426640 1.159036 -0.288554 0
M  V30 13 O -1.249214 2.011940 -0.702114 0
M  V30 14 N -0.639246 0.790821 1.060761 0
M  V30 15 C -1.605961 1.216082 2.003498 0
M  V30 16 C -1.419333 2.313409 2.816531 0
M  V30 17 C -2.404668 2.657305 3.717996 0
M  V30 18 C -3.576617 1.941576 3.838309 0
M  V30 19 C -3.739659 0.836483 3.004096 0
M  V30 20 C -2.755843 0.464744 2.080019 0
M  V30 21 N -3.166361 -0.683894 1.359853 0
M  V30 22 C -3.471497 -1.007940 -0.019525 0
M  V30 23 C -3.383022 -2.495910 -0.272129 0
M  V30 24 N -4.359734 -3.223130 0.522438 0
M  V30 25 C -4.608919 -2.542663 1.784576 0
M  V30 26 C -3.324351 -1.843395 2.194402 0
M  V30 27 C 0.815851 0.999171 -2.458879 0
M  V30 28 S 2.297044 -0.030591 -2.961935 0
M  V30 29 H 3.780334 -3.869030 -1.122490 0
M  V30 30 H 2.523876 -3.176742 -2.144072 0
M  V30 31 H 2.158719 -3.388892 -0.394131 0
M  V30 32 H 4.132347 0.798742 -0.484204 0
M  V30 33 H 6.237548 1.483314 0.490542 0
M  V30 34 H 7.950186 -0.214714 1.216777 0
M  V30 35 H 7.498164 -2.588813 0.941841 0
M  V30 36 H 5.409597 -3.314193 -0.026723 0
M  V30 37 H 0.004464 0.073268 1.507112 0
M  V30 38 H -0.502373 2.858674 2.709893 0
M  V30 39 H -2.193565 3.527607 4.323653 0
M  V30 40 H -4.314912 2.255946 4.561706 0
M  V30 41 H -4.696453 0.336970 3.174203 0
M  V30 42 H -4.431666 -0.581912 -0.349494 0
M  V30 43 H -2.697492 -0.537607 -0.650736 0
M  V30 44 H -3.630713 -2.660410 -1.340325 0
M  V30 45 H -2.347575 -2.839875 -0.117245 0
M  V30 46 H -5.281117 -3.288865 0.007639 0
M  V30 47 H -4.862674 -3.312403 2.533241 0
M  V30 48 H -5.458512 -1.866832 1.644829 0
M  V30 49 H -3.352855 -1.653338 3.274658 0
M  V30 50 H -2.515875 -2.596484 2.025162 0
M  V30 51 H 0.139318 1.770904 -2.977528 0
M  V30 END ATOM
M  V30 BEGIN BOND
M  V30 1 1 1 2
M  V30 2 1 2 3
M  V30 3 2 3 4
M  V30 4 1 4 5
M  V30 5 2 5 6
M  V30 6 1 6 7
M  V30 7 2 7 8
M  V30 8 1 2 9
M  V30 9 2 9 10
M  V30 10 1 10 11
M  V30 11 1 11 12
M  V30 12 2 12 13
M  V30 13 1 12 14
M  V30 14 1 14 15
M  V30 15 2 15 16
M  V30 16 1 16 17
M  V30 17 2 17 18
M  V30 18 1 18 19
M  V30 19 2 19 20
M  V30 20 1 20 21
M  V30 21 1 21 22
M  V30 22 1 22 23
M  V30 23 1 23 24
M  V30 24 1 24 25
M  V30 25 1 25 26
M  V30 26 2 11 27
M  V30 27 1 27 28
M  V30 28 1 8 3
M  V30 29 1 28 9
M  V30 30 1 20 15
M  V30 31 1 26 21
M  V30 32 1 1 29
M  V30 33 1 1 30
M  V30 34 1 1 31
M  V30 35 1 4 32
M  V30 36 1 5 33
M  V30 37 1 6 34
M  V30 38 1 7 35
M  V30 39 1 8 36
M  V30 40 1 14 37
M  V30 41 1 16 38
M  V30 42 1 17 39
M  V30 43 1 18 40
M  V30 44 1 19 41
M  V30 45 1 22 42
M  V30 46 1 22 43
M  V30 47 1 23 44
M  V30 48 1 23 45
M  V30 49 1 24 46
M  V30 50 1 25 47
M  V30 51 1 25 48
M  V30 52 1 26 49
M  V30 53 1 26 50
M  V30 54 1 27 51
M  V30 END BOND
M  V30 END CTAB
M  END
>  <Dataset>  (707) 
ChEMBL_Kinases

>  <Ligand_Instance>  (707) 
nan

>  <PDB_ID>  (707) 
nan

>  <Standardized_SMILES>  (707) 
CN(c1ccccc1)c1nc(C(=O)Nc2ccccc2N2CCNCC2)cs1

>  <Name>  (707) 
nan

>  <Pocket>  (707) 
nan

>  <ATP_Site>  (707) 
nan

>  <Peripheral>  (707) 
nan

>  <Num_H_Atoms_ProtBoundConf>  (707) 
nan

>  <Num_Resolved_Atoms>  (707) 
nan

>  <Num_Not_Resolved_Atoms>  (707) 
nan

$$$$
CHEMBL2381232
     RDKit          3D

  0  0  0  0  0  0  0  0  0  0999 V3000
M  V30 BEGIN CTAB
M  V30 COUNTS 55 59 0 0 0
M  V30 BEGIN ATOM
M  V30 1 O 1.055831 -0.021982 -0.580170 0
M  V30 2 C 1.190461 -0.870728 0.337957 0
M  V30 3 N 2.483937 -0.865212 0.877915 0
M  V30 4 C 3.308734 0.118995 0.227093 0
M  V30 5 C 3.977985 -0.382171 -0.874872 0
M  V30 6 C 4.810487 0.465405 -1.595684 0
M  V30 7 C 4.934476 1.764489 -1.184797 0
M  V30 8 C 4.262546 2.230724 -0.094720 0
M  V30 9 C 3.441086 1.412179 0.624379 0
M  V30 10 N 2.695827 1.827209 1.788164 0
M  V30 11 C 2.922718 1.165009 3.080867 0
M  V30 12 C 2.849309 2.146545 4.206870 0
M  V30 13 N 3.166627 3.490199 3.770923 0
M  V30 14 C 2.222184 3.982288 2.790516 0
M  V30 15 C 1.671150 2.872960 1.928817 0
M  V30 16 C 0.131156 -1.771660 0.805430 0
M  V30 17 C 0.388590 -2.709318 1.868304 0
M  V30 18 S -1.294621 -3.529135 1.988782 0
M  V30 19 C -1.986426 -2.443945 0.591696 0
M  V30 20 N -3.348960 -2.491396 0.062663 0
M  V30 21 C -4.379289 -1.651726 0.644174 0
M  V30 22 C -5.737845 -2.231367 0.341119 0
M  V30 23 C -5.885376 -2.646037 -1.104702 0
M  V30 24 C -4.772563 -3.468554 -1.582275 0
M  V30 25 C -5.022313 -4.329575 -2.637211 0
M  V30 26 C -4.008817 -5.147212 -3.148309 0
M  V30 27 C -2.758252 -5.049166 -2.548701 0
M  V30 28 C -2.522226 -4.188346 -1.499366 0
M  V30 29 C -3.530200 -3.388885 -1.006295 0
M  V30 30 N -1.106120 -1.790890 0.300542 0
M  V30 31 H 2.744716 -1.527646 1.660084 0
M  V30 32 H 3.914761 -1.412126 -1.246787 0
M  V30 33 H 5.354425 0.096396 -2.474447 0
M  V30 34 H 5.578638 2.464921 -1.722844 0
M  V30 35 H 4.368284 3.256810 0.219565 0
M  V30 36 H 2.184837 0.349370 3.214123 0
M  V30 37 H 3.959987 0.775880 3.026027 0
M  V30 38 H 3.603182 1.862335 4.968535 0
M  V30 39 H 1.825237 2.192509 4.634019 0
M  V30 40 H 3.294285 4.116356 4.570339 0
M  V30 41 H 1.350853 4.402998 3.345594 0
M  V30 42 H 2.667916 4.784083 2.200225 0
M  V30 43 H 0.742998 2.457545 2.365456 0
M  V30 44 H 1.393485 3.318567 0.952386 0
M  V30 45 H 1.293611 -2.824466 2.369037 0
M  V30 46 H -4.283089 -1.608999 1.742848 0
M  V30 47 H -4.328492 -0.613812 0.261199 0
M  V30 48 H -6.469807 -1.430246 0.569477 0
M  V30 49 H -5.907181 -3.073780 1.029291 0
M  V30 50 H -6.060772 -1.725818 -1.730535 0
M  V30 51 H -6.821726 -3.243942 -1.171027 0
M  V30 52 H -5.998514 -4.417469 -3.117870 0
M  V30 53 H -4.143334 -5.838122 -3.968927 0
M  V30 54 H -1.939155 -5.678939 -2.927237 0
M  V30 55 H -1.540157 -4.122039 -1.040396 0
M  V30 END ATOM
M  V30 BEGIN BOND
M  V30 1 2 1 2
M  V30 2 1 2 3
M  V30 3 1 3 4
M  V30 4 2 4 5
M  V30 5 1 5 6
M  V30 6 2 6 7
M  V30 7 1 7 8
M  V30 8 2 8 9
M  V30 9 1 9 10
M  V30 10 1 10 11
M  V30 11 1 11 12
M  V30 12 1 12 13
M  V30 13 1 13 14
M  V30 14 1 14 15
M  V30 15 1 2 16
M  V30 16 2 16 17
M  V30 17 1 17 18
M  V30 18 1 18 19
M  V30 19 1 19 20
M  V30 20 1 20 21
M  V30 21 1 21 22
M  V30 22 1 22 23
M  V30 23 1 23 24
M  V30 24 2 24 25
M  V30 25 1 25 26
M  V30 26 2 26 27
M  V30 27 1 27 28
M  V30 28 2 28 29
M  V30 29 2 19 30
M  V30 30 1 9 4
M  V30 31 1 15 10
M  V30 32 1 30 16
M  V30 33 1 29 20
M  V30 34 1 29 24
M  V30 35 1 3 31
M  V30 36 1 5 32
M  V30 37 1 6 33
M  V30 38 1 7 34
M  V30 39 1 8 35
M  V30 40 1 11 36
M  V30 41 1 11 37
M  V30 42 1 12 38
M  V30 43 1 12 39
M  V30 44 1 13 40
M  V30 45 1 14 41
M  V30 46 1 14 42
M  V30 47 1 15 43
M  V30 48 1 15 44
M  V30 49 1 17 45
M  V30 50 1 21 46
M  V30 51 1 21 47
M  V30 52 1 22 48
M  V30 53 1 22 49
M  V30 54 1 23 50
M  V30 55 1 23 51
M  V30 56 1 25 52
M  V30 57 1 26 53
M  V30 58 1 27 54
M  V30 59 1 28 55
M  V30 END BOND
M  V30 END CTAB
M  END
>  <Dataset>  (708) 
ChEMBL_Kinases

>  <Ligand_Instance>  (708) 
nan

>  <PDB_ID>  (708) 
nan

>  <Standardized_SMILES>  (708) 
O=C(Nc1ccccc1N1CCNCC1)c1csc(N2CCCc3ccccc32)n1

>  <Name>  (708) 
nan

>  <Pocket>  (708) 
nan

>  <ATP_Site>  (708) 
nan

>  <Peripheral>  (708) 
nan

>  <Num_H_Atoms_ProtBoundConf>  (708) 
nan

>  <Num_Resolved_Atoms>  (708) 
nan

>  <Num_Not_Resolved_Atoms>  (708) 
nan

$$$$
CHEMBL2381233
     RDKit          3D

  0  0  0  0  0  0  0  0  0  0999 V3000
M  V30 BEGIN CTAB
M  V30 COUNTS 55 59 0 0 0
M  V30 BEGIN ATOM
M  V30 1 O 0.874020 0.600369 -1.157305 0
M  V30 2 C 0.204854 1.051023 -0.165116 0
M  V30 3 N 0.860146 2.230873 0.267969 0
M  V30 4 C 2.034857 2.690823 -0.388915 0
M  V30 5 C 2.115999 3.548263 -1.466258 0
M  V30 6 C 3.337163 3.906541 -1.996432 0
M  V30 7 C 4.518817 3.420770 -1.468827 0
M  V30 8 C 4.425525 2.551401 -0.375787 0
M  V30 9 C 3.200800 2.194174 0.153357 0
M  V30 10 N 3.387759 1.301567 1.258248 0
M  V30 11 C 2.996603 -0.051853 1.582821 0
M  V30 12 C 2.347412 -0.165498 2.948552 0
M  V30 13 N 2.119671 1.096866 3.587958 0
M  V30 14 C 3.295840 1.924147 3.632211 0
M  V30 15 C 4.155560 1.776660 2.408820 0
M  V30 16 C -1.021777 0.567847 0.519221 0
M  V30 17 C -1.681509 1.149584 1.614533 0
M  V30 18 S -3.073537 -0.124994 1.763919 0
M  V30 19 C -2.508140 -1.104209 0.409933 0
M  V30 20 N -3.284881 -2.258355 0.110645 0
M  V30 21 C -4.450530 -2.576497 0.880912 0
M  V30 22 C -5.287635 -3.542167 0.067215 0
M  V30 23 C -4.487397 -4.713381 -0.361800 0
M  V30 24 C -4.888636 -6.025660 -0.272318 0
M  V30 25 C -4.024221 -7.016825 -0.717343 0
M  V30 26 C -2.786587 -6.762989 -1.243995 0
M  V30 27 C -2.427935 -5.429472 -1.313391 0
M  V30 28 C -3.250339 -4.400532 -0.884319 0
M  V30 29 C -2.752937 -3.005730 -1.010651 0
M  V30 30 N -1.448667 -0.541594 -0.055791 0
M  V30 31 H 0.493010 2.799676 1.090428 0
M  V30 32 H 1.153696 3.899923 -1.841203 0
M  V30 33 H 3.305968 4.591716 -2.850755 0
M  V30 34 H 5.454410 3.731680 -1.920454 0
M  V30 35 H 5.418088 2.233316 -0.045019 0
M  V30 36 H 2.413113 -0.557576 0.800142 0
M  V30 37 H 3.956934 -0.644723 1.641915 0
M  V30 38 H 1.356814 -0.687572 2.886100 0
M  V30 39 H 2.953803 -0.794119 3.658196 0
M  V30 40 H 1.271579 1.604753 3.277012 0
M  V30 41 H 3.888451 1.628024 4.542688 0
M  V30 42 H 2.944087 2.985804 3.731286 0
M  V30 43 H 4.581849 2.770816 2.192955 0
M  V30 44 H 5.046424 1.103873 2.571497 0
M  V30 45 H -1.185906 2.139444 2.024552 0
M  V30 46 H -4.248978 -2.952462 1.891550 0
M  V30 47 H -5.013954 -1.630311 1.015100 0
M  V30 48 H -5.749799 -3.073422 -0.802689 0
M  V30 49 H -6.127519 -3.859238 0.735004 0
M  V30 50 H -5.858008 -6.205291 0.141429 0
M  V30 51 H -4.339752 -8.050056 -0.646994 0
M  V30 52 H -2.115925 -7.543074 -1.589933 0
M  V30 53 H -1.443358 -5.210868 -1.731288 0
M  V30 54 H -1.630604 -2.996822 -1.029646 0
M  V30 55 H -3.079639 -2.515577 -1.962693 0
M  V30 END ATOM
M  V30 BEGIN BOND
M  V30 1 2 1 2
M  V30 2 1 2 3
M  V30 3 1 3 4
M  V30 4 2 4 5
M  V30 5 1 5 6
M  V30 6 2 6 7
M  V30 7 1 7 8
M  V30 8 2 8 9
M  V30 9 1 9 10
M  V30 10 1 10 11
M  V30 11 1 11 12
M  V30 12 1 12 13
M  V30 13 1 13 14
M  V30 14 1 14 15
M  V30 15 1 2 16
M  V30 16 2 16 17
M  V30 17 1 17 18
M  V30 18 1 18 19
M  V30 19 1 19 20
M  V30 20 1 20 21
M  V30 21 1 21 22
M  V30 22 1 22 23
M  V30 23 2 23 24
M  V30 24 1 24 25
M  V30 25 2 25 26
M  V30 26 1 26 27
M  V30 27 2 27 28
M  V30 28 1 28 29
M  V30 29 2 19 30
M  V30 30 1 9 4
M  V30 31 1 15 10
M  V30 32 1 30 16
M  V30 33 1 29 20
M  V30 34 1 28 23
M  V30 35 1 3 31
M  V30 36 1 5 32
M  V30 37 1 6 33
M  V30 38 1 7 34
M  V30 39 1 8 35
M  V30 40 1 11 36
M  V30 41 1 11 37
M  V30 42 1 12 38
M  V30 43 1 12 39
M  V30 44 1 13 40
M  V30 45 1 14 41
M  V30 46 1 14 42
M  V30 47 1 15 43
M  V30 48 1 15 44
M  V30 49 1 17 45
M  V30 50 1 21 46
M  V30 51 1 21 47
M  V30 52 1 22 48
M  V30 53 1 22 49
M  V30 54 1 24 50
M  V30 55 1 25 51
M  V30 56 1 26 52
M  V30 57 1 27 53
M  V30 58 1 29 54
M  V30 59 1 29 55
M  V30 END BOND
M  V30 END CTAB
M  END
>  <Dataset>  (709) 
ChEMBL_Kinases

>  <Ligand_Instance>  (709) 
nan

>  <PDB_ID>  (709) 
nan

>  <Standardized_SMILES>  (709) 
O=C(Nc1ccccc1N1CCNCC1)c1csc(N2CCc3ccccc3C2)n1

>  <Name>  (709) 
nan

>  <Pocket>  (709) 
nan

>  <ATP_Site>  (709) 
nan

>  <Peripheral>  (709) 
nan

>  <Num_H_Atoms_ProtBoundConf>  (709) 
nan

>  <Num_Resolved_Atoms>  (709) 
nan

>  <Num_Not_Resolved_Atoms>  (709) 
nan

$$$$
CHEMBL2381234
     RDKit          3D

  0  0  0  0  0  0  0  0  0  0999 V3000
M  V30 BEGIN CTAB
M  V30 COUNTS 55 59 0 0 0
M  V30 BEGIN ATOM
M  V30 1 O 0.552342 -0.392767 3.656456 0
M  V30 2 C 0.360218 -0.660244 2.435661 0
M  V30 3 N 1.486942 -0.650474 1.563329 0
M  V30 4 C 2.621671 -0.324937 2.310643 0
M  V30 5 C 3.275222 -1.415589 2.846744 0
M  V30 6 C 4.406682 -1.227567 3.616306 0
M  V30 7 C 4.837086 0.067432 3.815600 0
M  V30 8 C 4.160743 1.135091 3.265243 0
M  V30 9 C 3.031329 0.974920 2.494792 0
M  V30 10 N 2.403800 2.117576 1.950892 0
M  V30 11 C 2.750802 3.480260 2.281710 0
M  V30 12 C 3.344520 4.214208 1.096387 0
M  V30 13 N 2.522277 4.047498 -0.088435 0
M  V30 14 C 1.240703 3.529852 0.298783 0
M  V30 15 C 1.343310 2.155871 0.976336 0
M  V30 16 C -1.023771 -0.955808 2.046069 0
M  V30 17 C -2.047902 -0.939486 2.974706 0
M  V30 18 S -3.521785 -1.381993 1.897451 0
M  V30 19 C -2.423288 -1.493510 0.414351 0
M  V30 20 N -3.232478 -1.857592 -0.805036 0
M  V30 21 C -4.663653 -2.076998 -0.758629 0
M  V30 22 C -5.061703 -3.200583 -1.669165 0
M  V30 23 C -3.889975 -3.939840 -2.204379 0
M  V30 24 C -4.087964 -5.288988 -2.519002 0
M  V30 25 F -5.294276 -5.858331 -2.333415 0
M  V30 26 C -3.077072 -6.074848 -3.021614 0
M  V30 27 C -1.822899 -5.543302 -3.231174 0
M  V30 28 C -1.611981 -4.220234 -2.927376 0
M  V30 29 F -0.401033 -3.606056 -3.101971 0
M  V30 30 C -2.625744 -3.434162 -2.423894 0
M  V30 31 C -2.515369 -1.984533 -2.056924 0
M  V30 32 N -1.384793 -1.249335 0.823210 0
M  V30 33 H 1.157208 -0.902003 0.580696 0
M  V30 34 H 2.951968 -2.436137 2.700804 0
M  V30 35 H 4.926701 -2.077165 4.041195 0
M  V30 36 H 5.737013 0.145691 4.433197 0
M  V30 37 H 4.645293 2.062143 3.526784 0
M  V30 38 H 1.809214 4.002229 2.625837 0
M  V30 39 H 3.460976 3.594319 3.112429 0
M  V30 40 H 3.362167 5.292086 1.352164 0
M  V30 41 H 4.381569 3.898971 0.898487 0
M  V30 42 H 2.982244 3.499689 -0.839437 0
M  V30 43 H 0.730323 4.276111 0.925974 0
M  V30 44 H 0.589900 3.371184 -0.584532 0
M  V30 45 H 0.381255 2.061431 1.518050 0
M  V30 46 H 1.495213 1.373410 0.190453 0
M  V30 47 H -2.063620 -0.723020 4.108888 0
M  V30 48 H -5.032400 -2.209283 0.278077 0
M  V30 49 H -5.131711 -1.147856 -1.125751 0
M  V30 50 H -5.706094 -3.893055 -1.082904 0
M  V30 51 H -5.716251 -2.830162 -2.508619 0
M  V30 52 H -3.231808 -7.116410 -3.263954 0
M  V30 53 H -0.993910 -6.128491 -3.627132 0
M  V30 54 H -2.981017 -1.341014 -2.829518 0
M  V30 55 H -1.461115 -1.659134 -1.947592 0
M  V30 END ATOM
M  V30 BEGIN BOND
M  V30 1 2 1 2
M  V30 2 1 2 3
M  V30 3 1 3 4
M  V30 4 2 4 5
M  V30 5 1 5 6
M  V30 6 2 6 7
M  V30 7 1 7 8
M  V30 8 2 8 9
M  V30 9 1 9 10
M  V30 10 1 10 11
M  V30 11 1 11 12
M  V30 12 1 12 13
M  V30 13 1 13 14
M  V30 14 1 14 15
M  V30 15 1 2 16
M  V30 16 2 16 17
M  V30 17 1 17 18
M  V30 18 1 18 19
M  V30 19 1 19 20
M  V30 20 1 20 21
M  V30 21 1 21 22
M  V30 22 1 22 23
M  V30 23 2 23 24
M  V30 24 1 24 25
M  V30 25 1 24 26
M  V30 26 2 26 27
M  V30 27 1 27 28
M  V30 28 1 28 29
M  V30 29 2 28 30
M  V30 30 1 30 31
M  V30 31 2 19 32
M  V30 32 1 9 4
M  V30 33 1 15 10
M  V30 34 1 32 16
M  V30 35 1 31 20
M  V30 36 1 30 23
M  V30 37 1 3 33
M  V30 38 1 5 34
M  V30 39 1 6 35
M  V30 40 1 7 36
M  V30 41 1 8 37
M  V30 42 1 11 38
M  V30 43 1 11 39
M  V30 44 1 12 40
M  V30 45 1 12 41
M  V30 46 1 13 42
M  V30 47 1 14 43
M  V30 48 1 14 44
M  V30 49 1 15 45
M  V30 50 1 15 46
M  V30 51 1 17 47
M  V30 52 1 21 48
M  V30 53 1 21 49
M  V30 54 1 22 50
M  V30 55 1 22 51
M  V30 56 1 26 52
M  V30 57 1 27 53
M  V30 58 1 31 54
M  V30 59 1 31 55
M  V30 END BOND
M  V30 END CTAB
M  END
>  <Dataset>  (710) 
ChEMBL_Kinases

>  <Ligand_Instance>  (710) 
nan

>  <PDB_ID>  (710) 
nan

>  <Standardized_SMILES>  (710) 
O=C(Nc1ccccc1N1CCNCC1)c1csc(N2CCc3c(F)ccc(F)c3C2)n1

>  <Name>  (710) 
nan

>  <Pocket>  (710) 
nan

>  <ATP_Site>  (710) 
nan

>  <Peripheral>  (710) 
nan

>  <Num_H_Atoms_ProtBoundConf>  (710) 
nan

>  <Num_Resolved_Atoms>  (710) 
nan

>  <Num_Not_Resolved_Atoms>  (710) 
nan

$$$$
CHEMBL2381224
     RDKit          3D

  0  0  0  0  0  0  0  0  0  0999 V3000
M  V30 BEGIN CTAB
M  V30 COUNTS 57 61 0 0 0
M  V30 BEGIN ATOM
M  V30 1 C 9.025737 -1.620536 2.747454 0
M  V30 2 O 8.035064 -0.627483 2.565150 0
M  V30 3 C 6.957804 -0.788981 1.723906 0
M  V30 4 C 6.763011 -1.945787 0.987339 0
M  V30 5 C 5.655792 -2.024842 0.167498 0
M  V30 6 C 4.715927 -1.024983 0.024637 0
M  V30 7 C 4.969692 0.102081 0.787228 0
M  V30 8 C 6.054092 0.255638 1.629768 0
M  V30 9 C 3.909685 1.102125 0.560242 0
M  V30 10 O 3.679778 2.249851 0.993608 0
M  V30 11 N 3.038762 0.478150 -0.375664 0
M  V30 12 C 1.774745 1.021530 -0.982965 0
M  V30 13 N 0.672644 0.873360 -0.493819 0
M  V30 14 C -0.441641 1.344113 -1.014031 0
M  V30 15 C -1.744587 1.141948 -0.391729 0
M  V30 16 O -2.818331 1.587628 -0.866673 0
M  V30 17 N -1.940479 0.419466 0.818564 0
M  V30 18 C -3.324902 0.414672 1.143089 0
M  V30 19 C -3.674749 1.496642 1.922255 0
M  V30 20 N -4.983271 1.612350 2.296349 0
M  V30 21 C -5.872305 0.660419 1.884714 0
M  V30 22 C -7.275432 0.814278 2.304814 0
M  V30 23 C -5.451875 -0.390458 1.109724 0
M  V30 24 C -4.152201 -0.579213 0.690558 0
M  V30 25 N -3.765179 -1.666961 -0.084347 0
M  V30 26 C -4.845871 -2.532571 -0.545170 0
M  V30 27 C -4.442081 -3.399710 -1.718069 0
M  V30 28 N -3.334256 -4.274435 -1.374096 0
M  V30 29 C -2.521274 -3.692523 -0.318372 0
M  V30 30 C -2.545145 -2.172309 -0.551382 0
M  V30 31 C -0.306858 2.066575 -2.225808 0
M  V30 32 S 1.574931 1.955256 -2.465193 0
M  V30 33 C 3.465406 -0.828950 -0.753815 0
M  V30 34 H 8.593770 -2.626056 2.927058 0
M  V30 35 H 9.644766 -1.388387 3.632954 0
M  V30 36 H 9.643322 -1.698804 1.828076 0
M  V30 37 H 7.463380 -2.766269 1.054795 0
M  V30 38 H 5.497591 -2.938082 -0.416974 0
M  V30 39 H 6.218960 1.152611 2.210259 0
M  V30 40 H -1.086749 0.004595 1.300932 0
M  V30 41 H -3.008653 2.265704 2.266690 0
M  V30 42 H -7.466580 0.155977 3.190786 0
M  V30 43 H -7.526474 1.873182 2.526752 0
M  V30 44 H -8.003664 0.487885 1.535812 0
M  V30 45 H -6.250153 -1.098915 0.835465 0
M  V30 46 H -5.678910 -1.886383 -0.947898 0
M  V30 47 H -5.199959 -3.219258 0.256537 0
M  V30 48 H -4.263563 -2.784068 -2.616152 0
M  V30 49 H -5.320073 -4.042329 -1.929471 0
M  V30 50 H -2.765356 -4.381488 -2.262162 0
M  V30 51 H -1.461343 -4.008702 -0.366817 0
M  V30 52 H -2.958730 -3.971104 0.637894 0
M  V30 53 H -1.603777 -1.715061 -0.246294 0
M  V30 54 H -2.523191 -2.073031 -1.679084 0
M  V30 55 H -1.204215 2.530739 -2.784079 0
M  V30 56 H 3.746605 -0.776953 -1.847259 0
M  V30 57 H 2.722380 -1.635896 -0.612495 0
M  V30 END ATOM
M  V30 BEGIN BOND
M  V30 1 1 1 2
M  V30 2 1 2 3
M  V30 3 2 3 4
M  V30 4 1 4 5
M  V30 5 2 5 6
M  V30 6 1 6 7
M  V30 7 2 7 8
M  V30 8 1 7 9
M  V30 9 2 9 10
M  V30 10 1 9 11
M  V30 11 1 11 12
M  V30 12 2 12 13
M  V30 13 1 13 14
M  V30 14 1 14 15
M  V30 15 2 15 16
M  V30 16 1 15 17
M  V30 17 1 17 18
M  V30 18 2 18 19
M  V30 19 1 19 20
M  V30 20 2 20 21
M  V30 21 1 21 22
M  V30 22 1 21 23
M  V30 23 2 23 24
M  V30 24 1 24 25
M  V30 25 1 25 26
M  V30 26 1 26 27
M  V30 27 1 27 28
M  V30 28 1 28 29
M  V30 29 1 29 30
M  V30 30 2 14 31
M  V30 31 1 31 32
M  V30 32 1 11 33
M  V30 33 1 8 3
M  V30 34 1 32 12
M  V30 35 1 33 6
M  V30 36 1 24 18
M  V30 37 1 30 25
M  V30 38 1 1 34
M  V30 39 1 1 35
M  V30 40 1 1 36
M  V30 41 1 4 37
M  V30 42 1 5 38
M  V30 43 1 8 39
M  V30 44 1 17 40
M  V30 45 1 19 41
M  V30 46 1 22 42
M  V30 47 1 22 43
M  V30 48 1 22 44
M  V30 49 1 23 45
M  V30 50 1 26 46
M  V30 51 1 26 47
M  V30 52 1 27 48
M  V30 53 1 27 49
M  V30 54 1 28 50
M  V30 55 1 29 51
M  V30 56 1 29 52
M  V30 57 1 30 53
M  V30 58 1 30 54
M  V30 59 1 31 55
M  V30 60 1 33 56
M  V30 61 1 33 57
M  V30 END BOND
M  V30 END CTAB
M  END
>  <Dataset>  (711) 
ChEMBL_Kinases

>  <Ligand_Instance>  (711) 
nan

>  <PDB_ID>  (711) 
nan

>  <Standardized_SMILES>  (711) 
COc1ccc2c(c1)C(=O)N(c1nc(C(=O)Nc3cnc(C)cc3N3CCNCC3)cs1)C2

>  <Name>  (711) 
nan

>  <Pocket>  (711) 
nan

>  <ATP_Site>  (711) 
nan

>  <Peripheral>  (711) 
nan

>  <Num_H_Atoms_ProtBoundConf>  (711) 
nan

>  <Num_Resolved_Atoms>  (711) 
nan

>  <Num_Not_Resolved_Atoms>  (711) 
nan

$$$$
CHEMBL2385556
     RDKit          3D

  0  0  0  0  0  0  0  0  0  0999 V3000
M  V30 BEGIN CTAB
M  V30 COUNTS 42 45 0 0 0
M  V30 BEGIN ATOM
M  V30 1 C 0.889326 -5.406592 2.280163 0
M  V30 2 C 0.258250 -4.522346 1.257480 0
M  V30 3 C -0.644048 -5.082218 0.368079 0
M  V30 4 C -1.277848 -4.352514 -0.609323 0
M  V30 5 C -1.014275 -2.983354 -0.728118 0
M  V30 6 C -0.117104 -2.415901 0.152841 0
M  V30 7 C 0.295383 -1.014244 0.199653 0
M  V30 8 N 0.914678 -0.221603 -0.691038 0
M  V30 9 C 1.080488 1.015235 -0.178868 0
M  V30 10 C 1.727974 2.134146 -0.897455 0
M  V30 11 C 2.218297 1.971622 -2.182156 0
M  V30 12 C 2.818141 3.070074 -2.802515 0
M  V30 13 C 2.903674 4.272853 -2.123809 0
M  V30 14 O 3.520644 5.297221 -2.839234 0
M  V30 15 C 2.417209 4.445322 -0.840982 0
M  V30 16 C 1.814896 3.351072 -0.211680 0
M  V30 17 N 0.552513 1.017290 1.077055 0
M  V30 18 C 0.067597 -0.228697 1.316351 0
M  V30 19 C -0.565485 -0.536947 2.594506 0
M  V30 20 C -0.073540 -0.509449 3.883493 0
M  V30 21 C -0.896996 -0.852383 4.921526 0
M  V30 22 N -2.165444 -1.212210 4.707737 0
M  V30 23 C -2.716256 -1.261534 3.464058 0
M  V30 24 C -1.897762 -0.917418 2.397315 0
M  V30 25 C 0.508993 -3.169438 1.128624 0
M  V30 26 H 0.248811 -6.273564 2.468774 0
M  V30 27 H 1.901906 -5.758387 1.934802 0
M  V30 28 H 1.075139 -4.898495 3.244107 0
M  V30 29 H -0.895467 -6.130201 0.400361 0
M  V30 30 H -1.986762 -4.755256 -1.319762 0
M  V30 31 H -1.449899 -2.299693 -1.457098 0
M  V30 32 H 2.090201 0.991098 -2.596709 0
M  V30 33 H 3.189551 2.908653 -3.803806 0
M  V30 34 H 2.987899 6.132360 -3.071183 0
M  V30 35 H 2.517002 5.418548 -0.364527 0
M  V30 36 H 1.428135 3.466559 0.792359 0
M  V30 37 H 0.548531 1.865044 1.707602 0
M  V30 38 H 0.966291 -0.198972 3.891868 0
M  V30 39 H -0.434892 -0.804610 5.896041 0
M  V30 40 H -3.741432 -1.559249 3.365620 0
M  V30 41 H -2.427054 -0.986861 1.439332 0
M  V30 42 H 1.227623 -2.797507 1.860228 0
M  V30 END ATOM
M  V30 BEGIN BOND
M  V30 1 1 1 2
M  V30 2 2 2 3
M  V30 3 1 3 4
M  V30 4 2 4 5
M  V30 5 1 5 6
M  V30 6 1 6 7
M  V30 7 1 7 8
M  V30 8 2 8 9
M  V30 9 1 9 10
M  V30 10 2 10 11
M  V30 11 1 11 12
M  V30 12 2 12 13
M  V30 13 1 13 14
M  V30 14 1 13 15
M  V30 15 2 15 16
M  V30 16 1 9 17
M  V30 17 1 17 18
M  V30 18 1 18 19
M  V30 19 2 19 20
M  V30 20 1 20 21
M  V30 21 2 21 22
M  V30 22 1 22 23
M  V30 23 2 23 24
M  V30 24 2 6 25
M  V30 25 1 25 2
M  V30 26 2 18 7
M  V30 27 1 24 19
M  V30 28 1 16 10
M  V30 29 1 1 26
M  V30 30 1 1 27
M  V30 31 1 1 28
M  V30 32 1 3 29
M  V30 33 1 4 30
M  V30 34 1 5 31
M  V30 35 1 11 32
M  V30 36 1 12 33
M  V30 37 1 14 34
M  V30 38 1 15 35
M  V30 39 1 16 36
M  V30 40 1 17 37
M  V30 41 1 20 38
M  V30 42 1 21 39
M  V30 43 1 23 40
M  V30 44 1 24 41
M  V30 45 1 25 42
M  V30 END BOND
M  V30 END CTAB
M  END
>  <Dataset>  (712) 
ChEMBL_Kinases

>  <Ligand_Instance>  (712) 
nan

>  <PDB_ID>  (712) 
nan

>  <Standardized_SMILES>  (712) 
Cc1cccc(-c2nc(-c3ccc(O)cc3)[nH]c2-c2ccncc2)c1

>  <Name>  (712) 
nan

>  <Pocket>  (712) 
nan

>  <ATP_Site>  (712) 
nan

>  <Peripheral>  (712) 
nan

>  <Num_H_Atoms_ProtBoundConf>  (712) 
nan

>  <Num_Resolved_Atoms>  (712) 
nan

>  <Num_Not_Resolved_Atoms>  (712) 
nan

$$$$
CHEMBL2385555
     RDKit          3D

  0  0  0  0  0  0  0  0  0  0999 V3000
M  V30 BEGIN CTAB
M  V30 COUNTS 41 44 0 0 0
M  V30 BEGIN ATOM
M  V30 1 C 0.353264 -4.550143 3.758765 0
M  V30 2 C 0.766998 -4.065728 2.420330 0
M  V30 3 C 1.317230 -4.960019 1.524180 0
M  V30 4 C 1.703309 -4.493337 0.266443 0
M  V30 5 C 1.535926 -3.164980 -0.068258 0
M  V30 6 C 0.981670 -2.251935 0.827582 0
M  V30 7 C 0.772367 -0.836457 0.548566 0
M  V30 8 N 1.696131 0.109089 0.243197 0
M  V30 9 C 1.113378 1.304895 0.052550 0
M  V30 10 C 1.789202 2.552487 -0.289592 0
M  V30 11 C 1.060778 3.709387 -0.454648 0
M  V30 12 C 1.740061 4.869099 -0.778956 0
M  V30 13 C 3.108821 4.878236 -0.935151 0
M  V30 14 C 3.852407 3.711438 -0.769616 0
M  V30 15 C 3.161354 2.562565 -0.446309 0
M  V30 16 F 3.892277 1.418190 -0.284128 0
M  V30 17 N -0.208575 1.136876 0.236201 0
M  V30 18 C -0.430311 -0.161306 0.538643 0
M  V30 19 C -1.761179 -0.696251 0.802138 0
M  V30 20 C -2.433209 -0.134298 1.894124 0
M  V30 21 C -3.697322 -0.536256 2.267026 0
M  V30 22 N -4.296276 -1.514214 1.536161 0
M  V30 23 C -3.679013 -2.085387 0.469644 0
M  V30 24 C -2.409478 -1.694429 0.080577 0
M  V30 25 C 0.611703 -2.749305 2.061795 0
M  V30 26 H -0.753356 -4.758908 3.773630 0
M  V30 27 H 0.893356 -5.480387 4.000736 0
M  V30 28 H 0.626708 -3.813346 4.564677 0
M  V30 29 H 1.431187 -5.991332 1.824084 0
M  V30 30 H 2.130925 -5.181978 -0.433242 0
M  V30 31 H 1.819602 -2.757374 -1.029008 0
M  V30 32 H -0.020843 3.740156 -0.339358 0
M  V30 33 H 1.228952 5.824732 -0.925496 0
M  V30 34 H 3.650586 5.781894 -1.189347 0
M  V30 35 H 4.943316 3.729732 -0.896612 0
M  V30 36 H -0.894512 1.925854 0.144173 0
M  V30 37 H -1.973468 0.656507 2.501438 0
M  V30 38 H -4.217632 -0.101904 3.111518 0
M  V30 39 H -4.168726 -2.862676 -0.102034 0
M  V30 40 H -1.855404 -2.098850 -0.751253 0
M  V30 41 H 0.170627 -2.066383 2.799911 0
M  V30 END ATOM
M  V30 BEGIN BOND
M  V30 1 1 1 2
M  V30 2 2 2 3
M  V30 3 1 3 4
M  V30 4 2 4 5
M  V30 5 1 5 6
M  V30 6 1 6 7
M  V30 7 1 7 8
M  V30 8 2 8 9
M  V30 9 1 9 10
M  V30 10 2 10 11
M  V30 11 1 11 12
M  V30 12 2 12 13
M  V30 13 1 13 14
M  V30 14 2 14 15
M  V30 15 1 15 16
M  V30 16 1 9 17
M  V30 17 1 17 18
M  V30 18 1 18 19
M  V30 19 2 19 20
M  V30 20 1 20 21
M  V30 21 2 21 22
M  V30 22 1 22 23
M  V30 23 2 23 24
M  V30 24 2 6 25
M  V30 25 1 25 2
M  V30 26 2 18 7
M  V30 27 1 24 19
M  V30 28 1 15 10
M  V30 29 1 1 26
M  V30 30 1 1 27
M  V30 31 1 1 28
M  V30 32 1 3 29
M  V30 33 1 4 30
M  V30 34 1 5 31
M  V30 35 1 11 32
M  V30 36 1 12 33
M  V30 37 1 13 34
M  V30 38 1 14 35
M  V30 39 1 17 36
M  V30 40 1 20 37
M  V30 41 1 21 38
M  V30 42 1 23 39
M  V30 43 1 24 40
M  V30 44 1 25 41
M  V30 END BOND
M  V30 END CTAB
M  END
>  <Dataset>  (713) 
ChEMBL_Kinases

>  <Ligand_Instance>  (713) 
nan

>  <PDB_ID>  (713) 
nan

>  <Standardized_SMILES>  (713) 
Cc1cccc(-c2nc(-c3ccccc3F)[nH]c2-c2ccncc2)c1

>  <Name>  (713) 
nan

>  <Pocket>  (713) 
nan

>  <ATP_Site>  (713) 
nan

>  <Peripheral>  (713) 
nan

>  <Num_H_Atoms_ProtBoundConf>  (713) 
nan

>  <Num_Resolved_Atoms>  (713) 
nan

>  <Num_Not_Resolved_Atoms>  (713) 
nan

$$$$
CHEMBL2385554
     RDKit          3D

  0  0  0  0  0  0  0  0  0  0999 V3000
M  V30 BEGIN CTAB
M  V30 COUNTS 41 44 0 0 0
M  V30 BEGIN ATOM
M  V30 1 C 3.163205 -3.607762 3.889504 0
M  V30 2 C 2.524158 -3.320478 2.588843 0
M  V30 3 C 2.550324 -4.317181 1.653263 0
M  V30 4 C 1.972308 -4.113686 0.417830 0
M  V30 5 C 1.372806 -2.880611 0.162828 0
M  V30 6 C 1.333989 -1.849713 1.101256 0
M  V30 7 C 0.683585 -0.596955 0.740201 0
M  V30 8 N 1.190121 0.642473 0.624362 0
M  V30 9 C 0.238563 1.520654 0.266857 0
M  V30 10 C 0.451920 2.944625 0.054377 0
M  V30 11 C -0.552339 3.807804 -0.311553 0
M  V30 12 F -1.808732 3.375024 -0.492903 0
M  V30 13 C -0.278674 5.160894 -0.502011 0
M  V30 14 C 1.003945 5.649147 -0.325140 0
M  V30 15 C 2.052225 4.808729 0.045920 0
M  V30 16 C 1.702726 3.496007 0.213260 0
M  V30 17 F 2.712860 2.647201 0.578301 0
M  V30 18 N -0.861208 0.783457 0.168139 0
M  V30 19 C -0.643510 -0.525975 0.448490 0
M  V30 20 C -1.644563 -1.580302 0.424141 0
M  V30 21 C -1.976529 -2.316851 1.541059 0
M  V30 22 C -2.933916 -3.305991 1.471115 0
M  V30 23 N -3.570818 -3.586254 0.329423 0
M  V30 24 C -3.302552 -2.911293 -0.804067 0
M  V30 25 C -2.336489 -1.907947 -0.748757 0
M  V30 26 C 1.931436 -2.093850 2.344157 0
M  V30 27 H 4.222617 -3.924741 3.790476 0
M  V30 28 H 2.639435 -4.505572 4.324719 0
M  V30 29 H 3.092550 -2.799320 4.626848 0
M  V30 30 H 3.007970 -5.294019 1.813257 0
M  V30 31 H 1.974084 -4.879748 -0.348055 0
M  V30 32 H 0.912639 -2.703042 -0.804672 0
M  V30 33 H -1.080884 5.854925 -0.795942 0
M  V30 34 H 1.239983 6.712069 -0.470735 0
M  V30 35 H 3.070754 5.144630 0.195556 0
M  V30 36 H -1.812243 1.136768 -0.095517 0
M  V30 37 H -1.489129 -2.127016 2.485360 0
M  V30 38 H -3.247765 -3.924897 2.299231 0
M  V30 39 H -3.764295 -3.066962 -1.769170 0
M  V30 40 H -2.094475 -1.339513 -1.653478 0
M  V30 41 H 1.906751 -1.300777 3.078307 0
M  V30 END ATOM
M  V30 BEGIN BOND
M  V30 1 1 1 2
M  V30 2 2 2 3
M  V30 3 1 3 4
M  V30 4 2 4 5
M  V30 5 1 5 6
M  V30 6 1 6 7
M  V30 7 1 7 8
M  V30 8 2 8 9
M  V30 9 1 9 10
M  V30 10 2 10 11
M  V30 11 1 11 12
M  V30 12 1 11 13
M  V30 13 2 13 14
M  V30 14 1 14 15
M  V30 15 2 15 16
M  V30 16 1 16 17
M  V30 17 1 9 18
M  V30 18 1 18 19
M  V30 19 1 19 20
M  V30 20 2 20 21
M  V30 21 1 21 22
M  V30 22 2 22 23
M  V30 23 1 23 24
M  V30 24 2 24 25
M  V30 25 2 6 26
M  V30 26 1 26 2
M  V30 27 2 19 7
M  V30 28 1 25 20
M  V30 29 1 16 10
M  V30 30 1 1 27
M  V30 31 1 1 28
M  V30 32 1 1 29
M  V30 33 1 3 30
M  V30 34 1 4 31
M  V30 35 1 5 32
M  V30 36 1 13 33
M  V30 37 1 14 34
M  V30 38 1 15 35
M  V30 39 1 18 36
M  V30 40 1 21 37
M  V30 41 1 22 38
M  V30 42 1 24 39
M  V30 43 1 25 40
M  V30 44 1 26 41
M  V30 END BOND
M  V30 END CTAB
M  END
>  <Dataset>  (714) 
ChEMBL_Kinases

>  <Ligand_Instance>  (714) 
nan

>  <PDB_ID>  (714) 
nan

>  <Standardized_SMILES>  (714) 
Cc1cccc(-c2nc(-c3c(F)cccc3F)[nH]c2-c2ccncc2)c1

>  <Name>  (714) 
nan

>  <Pocket>  (714) 
nan

>  <ATP_Site>  (714) 
nan

>  <Peripheral>  (714) 
nan

>  <Num_H_Atoms_ProtBoundConf>  (714) 
nan

>  <Num_Resolved_Atoms>  (714) 
nan

>  <Num_Not_Resolved_Atoms>  (714) 
nan

$$$$
CHEMBL2385553
     RDKit          3D

  0  0  0  0  0  0  0  0  0  0999 V3000
M  V30 BEGIN CTAB
M  V30 COUNTS 49 52 0 0 0
M  V30 BEGIN ATOM
M  V30 1 C -0.412117 -6.345181 2.461536 0
M  V30 2 C -0.204785 -4.944395 2.930205 0
M  V30 3 C 0.065247 -4.561173 4.223158 0
M  V30 4 C 0.236827 -3.230571 4.529299 0
M  V30 5 C 0.124332 -2.332066 3.489067 0
M  V30 6 C -0.148028 -2.629685 2.143271 0
M  V30 7 C -0.171911 -1.502278 1.247163 0
M  V30 8 N 0.884425 -0.638436 1.265441 0
M  V30 9 C 0.671137 0.330926 0.359325 0
M  V30 10 C 1.572360 1.444836 0.076703 0
M  V30 11 C 2.761119 1.565134 0.768181 0
M  V30 12 C 3.601209 2.625559 0.487354 0
M  V30 13 C 3.254266 3.554389 -0.474904 0
M  V30 14 S 4.360919 4.872412 -0.782477 0 CHG=1 VAL=3
M  V30 15 C 4.020398 6.287628 0.254771 0
M  V30 16 O 5.961259 4.454147 -0.552242 0 CHG=-1 VAL=1
M  V30 17 C 2.065581 3.438017 -1.169446 0
M  V30 18 C 1.225452 2.377313 -0.888417 0
M  V30 19 N -0.501982 0.089101 -0.225914 0
M  V30 20 C -1.032442 -1.023623 0.302301 0
M  V30 21 C -2.327520 -1.515918 -0.092553 0
M  V30 22 C -3.115026 -2.470830 0.335966 0
M  V30 23 C -4.444500 -2.932014 -0.118059 0
M  V30 24 O -4.749222 -2.562210 -1.424859 0
M  V30 25 C -3.648641 -1.991399 -2.066473 0
M  V30 26 C -3.042372 -0.880933 -1.235411 0
M  V30 27 C -0.304025 -3.997804 1.939718 0
M  V30 28 H 0.303805 -6.486435 1.610452 0
M  V30 29 H -0.056367 -7.024173 3.282659 0
M  V30 30 H -1.450274 -6.529176 2.160698 0
M  V30 31 H 0.131793 -5.346656 4.958888 0
M  V30 32 H 0.448997 -2.912938 5.537201 0
M  V30 33 H 0.271733 -1.284901 3.797537 0
M  V30 34 H 3.025275 0.825834 1.526165 0
M  V30 35 H 4.520151 2.651852 1.074513 0
M  V30 36 H 2.899960 6.322173 0.358852 0
M  V30 37 H 4.387519 6.144701 1.290894 0
M  V30 38 H 4.319091 7.225501 -0.211391 0
M  V30 39 H 1.804947 4.172482 -1.921275 0
M  V30 40 H 0.303082 2.314893 -1.449337 0
M  V30 41 H -0.883693 0.723646 -0.979745 0
M  V30 42 H -2.730610 -3.007611 1.186385 0
M  V30 43 H -5.201886 -2.451175 0.543834 0
M  V30 44 H -4.540913 -4.027818 0.026637 0
M  V30 45 H -2.907050 -2.714047 -2.417445 0
M  V30 46 H -4.068659 -1.474120 -2.973506 0
M  V30 47 H -2.356312 -0.327145 -1.915858 0
M  V30 48 H -3.813735 -0.183184 -0.901603 0
M  V30 49 H -0.515912 -4.200100 0.878335 0
M  V30 END ATOM
M  V30 BEGIN BOND
M  V30 1 1 1 2
M  V30 2 2 2 3
M  V30 3 1 3 4
M  V30 4 2 4 5
M  V30 5 1 5 6
M  V30 6 1 6 7
M  V30 7 1 7 8
M  V30 8 2 8 9
M  V30 9 1 9 10
M  V30 10 2 10 11
M  V30 11 1 11 12
M  V30 12 2 12 13
M  V30 13 1 13 14
M  V30 14 1 14 15
M  V30 15 1 14 16
M  V30 16 1 13 17
M  V30 17 2 17 18
M  V30 18 1 9 19
M  V30 19 1 19 20
M  V30 20 1 20 21
M  V30 21 2 21 22
M  V30 22 1 22 23
M  V30 23 1 23 24
M  V30 24 1 24 25
M  V30 25 1 25 26
M  V30 26 2 6 27
M  V30 27 1 27 2
M  V30 28 2 20 7
M  V30 29 1 26 21
M  V30 30 1 18 10
M  V30 31 1 1 28
M  V30 32 1 1 29
M  V30 33 1 1 30
M  V30 34 1 3 31
M  V30 35 1 4 32
M  V30 36 1 5 33
M  V30 37 1 11 34
M  V30 38 1 12 35
M  V30 39 1 15 36
M  V30 40 1 15 37
M  V30 41 1 15 38
M  V30 42 1 17 39
M  V30 43 1 18 40
M  V30 44 1 19 41
M  V30 45 1 22 42
M  V30 46 1 23 43
M  V30 47 1 23 44
M  V30 48 1 25 45
M  V30 49 1 25 46
M  V30 50 1 26 47
M  V30 51 1 26 48
M  V30 52 1 27 49
M  V30 END BOND
M  V30 END CTAB
M  END
>  <Dataset>  (715) 
ChEMBL_Kinases

>  <Ligand_Instance>  (715) 
nan

>  <PDB_ID>  (715) 
nan

>  <Standardized_SMILES>  (715) 
Cc1cccc(-c2nc(-c3ccc([S+](C)[O-])cc3)[nH]c2C2=CCOCC2)c1

>  <Name>  (715) 
nan

>  <Pocket>  (715) 
nan

>  <ATP_Site>  (715) 
nan

>  <Peripheral>  (715) 
nan

>  <Num_H_Atoms_ProtBoundConf>  (715) 
nan

>  <Num_Resolved_Atoms>  (715) 
nan

>  <Num_Not_Resolved_Atoms>  (715) 
nan

$$$$
CHEMBL2385552
     RDKit          3D

  0  0  0  0  0  0  0  0  0  0999 V3000
M  V30 BEGIN CTAB
M  V30 COUNTS 46 49 0 0 0
M  V30 BEGIN ATOM
M  V30 1 C 4.486691 -3.841445 5.937602 0
M  V30 2 S 3.056265 -2.946312 6.510001 0 CHG=1 VAL=3
M  V30 3 O 2.095417 -3.950866 7.451156 0 CHG=-1 VAL=1
M  V30 4 C 2.208383 -2.398784 5.075151 0
M  V30 5 C 2.620839 -1.140961 4.628929 0
M  V30 6 C 2.018865 -0.603136 3.498310 0
M  V30 7 C 1.033995 -1.284825 2.820853 0
M  V30 8 C 0.412533 -0.697730 1.629725 0
M  V30 9 N 0.716556 0.495757 1.100786 0
M  V30 10 C -0.080308 0.673154 0.006667 0
M  V30 11 C 0.089039 1.919468 -0.717158 0
M  V30 12 C -0.880737 2.837907 -1.121589 0
M  V30 13 C -0.559310 3.978673 -1.820469 0
M  V30 14 C 0.743913 4.272738 -2.157340 0
M  V30 15 F 1.020179 5.405472 -2.845824 0
M  V30 16 C 1.765168 3.420401 -1.797131 0
M  V30 17 C 1.384398 2.294308 -1.099326 0
M  V30 18 C -0.862691 -0.443768 -0.101878 0
M  V30 19 C -1.812689 -0.636606 -1.177842 0
M  V30 20 C -2.538863 -1.735231 -1.076216 0
M  V30 21 C -3.589802 -2.249330 -1.972889 0
M  V30 22 O -3.768515 -1.427341 -3.087304 0
M  V30 23 C -2.592482 -0.811527 -3.466055 0
M  V30 24 C -2.097353 0.160502 -2.383740 0
M  V30 25 N -0.541149 -1.263132 0.902677 0
M  V30 26 C 0.642973 -2.523678 3.278713 0
M  V30 27 C 1.228421 -3.071337 4.396758 0
M  V30 28 H 4.830701 -4.590134 6.670167 0
M  V30 29 H 5.284256 -3.084586 5.698358 0
M  V30 30 H 4.282363 -4.387960 4.987196 0
M  V30 31 H 3.388362 -0.506972 5.079757 0
M  V30 32 H 2.299443 0.376915 3.101367 0
M  V30 33 H -1.881523 2.576804 -0.832867 0
M  V30 34 H -1.404834 4.622263 -2.082895 0
M  V30 35 H 2.798082 3.591581 -2.028272 0
M  V30 36 H 2.203636 1.615594 -0.813257 0
M  V30 37 H -2.444378 -2.443853 -0.263313 0
M  V30 38 H -4.552905 -2.281200 -1.394990 0
M  V30 39 H -3.362709 -3.271005 -2.319394 0
M  V30 40 H -2.786006 -0.263823 -4.393517 0
M  V30 41 H -1.830134 -1.593115 -3.605805 0
M  V30 42 H -1.144442 0.568603 -2.793487 0
M  V30 43 H -2.870034 0.910594 -2.206986 0
M  V30 44 H -0.954467 -2.198003 1.106241 0
M  V30 45 H -0.133922 -3.078949 2.757466 0
M  V30 46 H 0.967070 -4.041595 4.809568 0
M  V30 END ATOM
M  V30 BEGIN BOND
M  V30 1 1 1 2
M  V30 2 1 2 3
M  V30 3 1 2 4
M  V30 4 2 4 5
M  V30 5 1 5 6
M  V30 6 2 6 7
M  V30 7 1 7 8
M  V30 8 2 8 9
M  V30 9 1 9 10
M  V30 10 1 10 11
M  V30 11 2 11 12
M  V30 12 1 12 13
M  V30 13 2 13 14
M  V30 14 1 14 15
M  V30 15 1 14 16
M  V30 16 2 16 17
M  V30 17 2 10 18
M  V30 18 1 18 19
M  V30 19 2 19 20
M  V30 20 1 20 21
M  V30 21 1 21 22
M  V30 22 1 22 23
M  V30 23 1 23 24
M  V30 24 1 18 25
M  V30 25 1 7 26
M  V30 26 2 26 27
M  V30 27 1 27 4
M  V30 28 1 25 8
M  V30 29 1 17 11
M  V30 30 1 24 19
M  V30 31 1 1 28
M  V30 32 1 1 29
M  V30 33 1 1 30
M  V30 34 1 5 31
M  V30 35 1 6 32
M  V30 36 1 12 33
M  V30 37 1 13 34
M  V30 38 1 16 35
M  V30 39 1 17 36
M  V30 40 1 20 37
M  V30 41 1 21 38
M  V30 42 1 21 39
M  V30 43 1 23 40
M  V30 44 1 23 41
M  V30 45 1 24 42
M  V30 46 1 24 43
M  V30 47 1 25 44
M  V30 48 1 26 45
M  V30 49 1 27 46
M  V30 END BOND
M  V30 END CTAB
M  END
>  <Dataset>  (716) 
ChEMBL_Kinases

>  <Ligand_Instance>  (716) 
nan

>  <PDB_ID>  (716) 
nan

>  <Standardized_SMILES>  (716) 
C[S+]([O-])c1ccc(-c2nc(-c3ccc(F)cc3)c(C3=CCOCC3)[nH]2)cc1

>  <Name>  (716) 
nan

>  <Pocket>  (716) 
nan

>  <ATP_Site>  (716) 
nan

>  <Peripheral>  (716) 
nan

>  <Num_H_Atoms_ProtBoundConf>  (716) 
nan

>  <Num_Resolved_Atoms>  (716) 
nan

>  <Num_Not_Resolved_Atoms>  (716) 
nan

$$$$
CHEMBL2385551
     RDKit          3D

  0  0  0  0  0  0  0  0  0  0999 V3000
M  V30 BEGIN CTAB
M  V30 COUNTS 46 49 0 0 0
M  V30 BEGIN ATOM
M  V30 1 C 0.416723 -6.363248 0.658330 0
M  V30 2 C 0.285049 -5.096127 1.416817 0
M  V30 3 C 0.353795 -5.118183 2.792170 0
M  V30 4 C 0.236123 -3.960618 3.537340 0
M  V30 5 C 0.047814 -2.797345 2.821449 0
M  V30 6 C -0.021919 -2.769274 1.442016 0
M  V30 7 C -0.223776 -1.459863 0.832655 0
M  V30 8 N 0.744614 -0.544131 1.067645 0
M  V30 9 C 0.437471 0.612173 0.452647 0
M  V30 10 C 1.230318 1.837026 0.467108 0
M  V30 11 C 2.422580 1.868301 1.167749 0
M  V30 12 C 3.217206 2.996686 1.219001 0
M  V30 13 C 2.773993 4.112734 0.535274 0
M  V30 14 S 3.777665 5.563532 0.590604 0 CHG=1 VAL=3
M  V30 15 C 3.224656 6.506963 2.011897 0
M  V30 16 O 5.354738 5.111030 0.890106 0 CHG=-1 VAL=1
M  V30 17 C 1.571888 4.087787 -0.173619 0
M  V30 18 C 0.782144 2.948614 -0.217906 0
M  V30 19 N -0.732124 0.412131 -0.169649 0
M  V30 20 C -1.162981 -0.834849 0.039436 0
M  V30 21 C -2.330282 -1.605326 -0.368164 0
M  V30 22 C -3.284976 -2.132385 0.484261 0
M  V30 23 C -4.344988 -2.841621 -0.002134 0
M  V30 24 N -4.488334 -3.046176 -1.322586 0
M  V30 25 C -3.587313 -2.555019 -2.198596 0
M  V30 26 C -2.496311 -1.826879 -1.719717 0
M  V30 27 C 0.096050 -3.919889 0.723359 0
M  V30 28 H 1.051981 -6.110923 -0.234813 0
M  V30 29 H 0.984119 -7.129015 1.234658 0
M  V30 30 H -0.540286 -6.711781 0.254904 0
M  V30 31 H 0.504477 -6.081781 3.272852 0
M  V30 32 H 0.292829 -4.002297 4.610377 0
M  V30 33 H -0.044775 -1.883766 3.416664 0
M  V30 34 H 2.720613 0.967152 1.684119 0
M  V30 35 H 4.137995 2.968176 1.779850 0
M  V30 36 H 3.831814 7.390240 2.204709 0
M  V30 37 H 2.148925 6.725399 1.811105 0
M  V30 38 H 3.241122 5.775584 2.860119 0
M  V30 39 H 1.293650 5.007436 -0.685028 0
M  V30 40 H -0.146479 2.948340 -0.772647 0
M  V30 41 H -1.285321 1.069113 -0.744832 0
M  V30 42 H -3.115872 -1.933370 1.551667 0
M  V30 43 H -5.059915 -3.229516 0.715894 0
M  V30 44 H -3.695166 -2.716215 -3.275303 0
M  V30 45 H -1.767608 -1.429740 -2.430370 0
M  V30 46 H 0.036369 -3.855550 -0.343517 0
M  V30 END ATOM
M  V30 BEGIN BOND
M  V30 1 1 1 2
M  V30 2 2 2 3
M  V30 3 1 3 4
M  V30 4 2 4 5
M  V30 5 1 5 6
M  V30 6 1 6 7
M  V30 7 1 7 8
M  V30 8 2 8 9
M  V30 9 1 9 10
M  V30 10 2 10 11
M  V30 11 1 11 12
M  V30 12 2 12 13
M  V30 13 1 13 14
M  V30 14 1 14 15
M  V30 15 1 14 16
M  V30 16 1 13 17
M  V30 17 2 17 18
M  V30 18 1 9 19
M  V30 19 1 19 20
M  V30 20 1 20 21
M  V30 21 2 21 22
M  V30 22 1 22 23
M  V30 23 2 23 24
M  V30 24 1 24 25
M  V30 25 2 25 26
M  V30 26 2 6 27
M  V30 27 1 27 2
M  V30 28 2 20 7
M  V30 29 1 26 21
M  V30 30 1 18 10
M  V30 31 1 1 28
M  V30 32 1 1 29
M  V30 33 1 1 30
M  V30 34 1 3 31
M  V30 35 1 4 32
M  V30 36 1 5 33
M  V30 37 1 11 34
M  V30 38 1 12 35
M  V30 39 1 15 36
M  V30 40 1 15 37
M  V30 41 1 15 38
M  V30 42 1 17 39
M  V30 43 1 18 40
M  V30 44 1 19 41
M  V30 45 1 22 42
M  V30 46 1 23 43
M  V30 47 1 25 44
M  V30 48 1 26 45
M  V30 49 1 27 46
M  V30 END BOND
M  V30 END CTAB
M  END
>  <Dataset>  (717) 
ChEMBL_Kinases

>  <Ligand_Instance>  (717) 
nan

>  <PDB_ID>  (717) 
nan

>  <Standardized_SMILES>  (717) 
Cc1cccc(-c2nc(-c3ccc([S+](C)[O-])cc3)[nH]c2-c2ccncc2)c1

>  <Name>  (717) 
nan

>  <Pocket>  (717) 
nan

>  <ATP_Site>  (717) 
nan

>  <Peripheral>  (717) 
nan

>  <Num_H_Atoms_ProtBoundConf>  (717) 
nan

>  <Num_Resolved_Atoms>  (717) 
nan

>  <Num_Not_Resolved_Atoms>  (717) 
nan

$$$$
CHEMBL2385550
     RDKit          3D

  0  0  0  0  0  0  0  0  0  0999 V3000
M  V30 BEGIN CTAB
M  V30 COUNTS 71 77 0 0 0
M  V30 BEGIN ATOM
M  V30 1 N -2.954825 3.894723 10.278668 0
M  V30 2 C -2.770937 3.448123 9.216723 0
M  V30 3 C -2.532518 2.902544 7.918051 0
M  V30 4 C -1.511946 1.965803 7.748924 0
M  V30 5 C -1.311177 1.460804 6.483512 0
M  V30 6 C -2.036984 1.803830 5.362254 0
M  V30 7 C -1.774803 1.232415 4.045364 0
M  V30 8 C -0.762178 0.294139 3.818338 0
M  V30 9 C -0.827828 -0.006115 2.449961 0
M  V30 10 C -1.870510 0.763626 1.932420 0
M  V30 11 O -2.389621 1.470105 2.912306 0
M  V30 12 C -2.339040 0.806285 0.538329 0
M  V30 13 O -3.370998 1.540445 0.355645 0
M  V30 14 N -1.746931 0.108700 -0.607649 0
M  V30 15 C -2.676564 -0.126330 -1.657145 0
M  V30 16 C -3.363744 -1.449401 -1.402750 0
M  V30 17 C -4.582115 -1.430255 -0.760495 0
M  V30 18 C -5.348439 -2.507787 -0.381469 0
M  V30 19 C -4.832041 -3.754476 -0.682032 0
M  V30 20 C -3.616292 -3.839235 -1.325794 0
M  V30 21 C -2.911288 -2.710834 -1.672758 0
M  V30 22 C -1.688730 -2.955420 -2.405643 0
M  V30 23 C -1.261549 -2.587208 -3.658651 0
M  V30 24 N -0.044368 -2.945226 -4.102087 0
M  V30 25 C 0.818202 -3.683041 -3.341827 0
M  V30 26 N 0.422952 -4.064204 -2.093758 0
M  V30 27 C -0.800629 -3.711995 -1.630221 0
M  V30 28 C -0.376585 -0.269271 -0.645639 0
M  V30 29 C 0.048859 -0.081827 -1.959790 0
M  V30 30 C 1.357650 -0.380879 -2.262855 0
M  V30 31 C 2.216834 -0.856686 -1.267296 0
M  V30 32 C 3.631307 -1.175073 -1.585495 0
M  V30 33 C 4.455288 0.046505 -1.844705 0
M  V30 34 C 4.750482 0.298988 -3.303334 0
M  V30 35 N 5.247897 -0.836778 -4.013227 0
M  V30 36 C 5.259429 -2.024039 -3.182751 0
M  V30 37 C 3.818957 -2.174856 -2.669992 0
M  V30 38 C 1.697474 -1.009772 0.013328 0
M  V30 39 C 0.405909 -0.739173 0.417282 0
M  V30 40 C 0.094593 -0.975384 1.814963 0
M  V30 41 F -0.430002 -2.273636 1.905637 0
M  V30 42 F 1.252198 -1.006953 2.567360 0
M  V30 43 C -3.043413 2.732757 5.548648 0
M  V30 44 C -3.274071 3.262773 6.809348 0
M  V30 45 H -0.899687 1.647407 8.584076 0
M  V30 46 H -0.518489 0.723317 6.312671 0
M  V30 47 H -0.041269 -0.157002 4.484984 0
M  V30 48 H -3.484374 0.638948 -1.607598 0
M  V30 49 H -2.300487 -0.254443 -2.679228 0
M  V30 50 H -5.005586 -0.450602 -0.518122 0
M  V30 51 H -6.290127 -2.361444 0.117496 0
M  V30 52 H -5.368175 -4.647890 -0.418126 0
M  V30 53 H -3.245289 -4.830177 -1.543311 0
M  V30 54 H -1.997402 -2.019589 -4.193455 0
M  V30 55 H 1.792701 -3.959828 -3.720538 0
M  V30 56 H -0.934329 -4.100795 -0.631261 0
M  V30 57 H -0.623904 0.279451 -2.688305 0
M  V30 58 H 1.691896 -0.244122 -3.258138 0
M  V30 59 H 4.056864 -1.646714 -0.647089 0
M  V30 60 H 3.825425 0.920890 -1.508078 0
M  V30 61 H 5.419654 0.030949 -1.284154 0
M  V30 62 H 5.502563 1.124156 -3.339749 0
M  V30 63 H 3.818789 0.708548 -3.779691 0
M  V30 64 H 6.150266 -0.666698 -4.511263 0
M  V30 65 H 5.570632 -2.855398 -3.825472 0
M  V30 66 H 5.903860 -1.873758 -2.295388 0
M  V30 67 H 3.704010 -3.213859 -2.281814 0
M  V30 68 H 3.166918 -1.980893 -3.538812 0
M  V30 69 H 2.395121 -1.384305 0.773171 0
M  V30 70 H -3.615440 3.006969 4.676294 0
M  V30 71 H -4.064769 3.980742 6.910802 0
M  V30 END ATOM
M  V30 BEGIN BOND
M  V30 1 3 1 2
M  V30 2 1 2 3
M  V30 3 2 3 4
M  V30 4 1 4 5
M  V30 5 2 5 6
M  V30 6 1 6 7
M  V30 7 2 7 8
M  V30 8 1 8 9
M  V30 9 2 9 10
M  V30 10 1 10 11
M  V30 11 1 10 12
M  V30 12 2 12 13
M  V30 13 1 12 14
M  V30 14 1 14 15
M  V30 15 1 15 16
M  V30 16 2 16 17
M  V30 17 1 17 18
M  V30 18 2 18 19
M  V30 19 1 19 20
M  V30 20 2 20 21
M  V30 21 1 21 22
M  V30 22 2 22 23
M  V30 23 1 23 24
M  V30 24 2 24 25
M  V30 25 1 25 26
M  V30 26 2 26 27
M  V30 27 1 14 28
M  V30 28 2 28 29
M  V30 29 1 29 30
M  V30 30 2 30 31
M  V30 31 1 31 32
M  V30 32 1 32 33
M  V30 33 1 33 34
M  V30 34 1 34 35
M  V30 35 1 35 36
M  V30 36 1 36 37
M  V30 37 1 31 38
M  V30 38 2 38 39
M  V30 39 1 39 40
M  V30 40 1 40 41
M  V30 41 1 40 42
M  V30 42 1 6 43
M  V30 43 2 43 44
M  V30 44 1 44 3
M  V30 45 1 11 7
M  V30 46 1 21 16
M  V30 47 1 27 22
M  V30 48 1 39 28
M  V30 49 1 40 9
M  V30 50 1 37 32
M  V30 51 1 4 45
M  V30 52 1 5 46
M  V30 53 1 8 47
M  V30 54 1 15 48
M  V30 55 1 15 49
M  V30 56 1 17 50
M  V30 57 1 18 51
M  V30 58 1 19 52
M  V30 59 1 20 53
M  V30 60 1 23 54
M  V30 61 1 25 55
M  V30 62 1 27 56
M  V30 63 1 29 57
M  V30 64 1 30 58
M  V30 65 1 32 59
M  V30 66 1 33 60
M  V30 67 1 33 61
M  V30 68 1 34 62
M  V30 69 1 34 63
M  V30 70 1 35 64
M  V30 71 1 36 65
M  V30 72 1 36 66
M  V30 73 1 37 67
M  V30 74 1 37 68
M  V30 75 1 38 69
M  V30 76 1 43 70
M  V30 77 1 44 71
M  V30 END BOND
M  V30 END CTAB
M  END
>  <Dataset>  (718) 
ChEMBL_Kinases

>  <Ligand_Instance>  (718) 
nan

>  <PDB_ID>  (718) 
nan

>  <Standardized_SMILES>  (718) 
N#Cc1ccc(-c2cc3c(o2)C(=O)N(Cc2ccccc2-c2cncnc2)c2ccc(C4CCNCC4)cc2C3(F)F)cc1

>  <Name>  (718) 
nan

>  <Pocket>  (718) 
nan

>  <ATP_Site>  (718) 
nan

>  <Peripheral>  (718) 
nan

>  <Num_H_Atoms_ProtBoundConf>  (718) 
nan

>  <Num_Resolved_Atoms>  (718) 
nan

>  <Num_Not_Resolved_Atoms>  (718) 
nan

$$$$
CHEMBL2385549
     RDKit          3D

  0  0  0  0  0  0  0  0  0  0999 V3000
M  V30 BEGIN CTAB
M  V30 COUNTS 71 77 0 0 0
M  V30 BEGIN ATOM
M  V30 1 N 9.217769 -0.313939 -6.037928 0
M  V30 2 C 8.203604 -0.298519 -5.492148 0
M  V30 3 C 6.931916 -0.299221 -4.815477 0
M  V30 4 C 6.854913 -0.294849 -3.439050 0
M  V30 5 C 5.696892 -0.296389 -2.685777 0
M  V30 6 C 4.486040 -0.303127 -3.401659 0
M  V30 7 C 3.207465 -0.315803 -2.667527 0
M  V30 8 C 3.095944 -0.311186 -1.290921 0
M  V30 9 C 1.725177 -0.327054 -0.996708 0
M  V30 10 C 1.096371 -0.340763 -2.217911 0
M  V30 11 O 1.980482 -0.333842 -3.187737 0
M  V30 12 C -0.353185 -0.360818 -2.399893 0
M  V30 13 O -0.705492 -0.279006 -3.622582 0
M  V30 14 N -1.430850 -0.461151 -1.406745 0
M  V30 15 C -2.640476 -1.049116 -1.907153 0
M  V30 16 C -2.653449 -2.528438 -1.761983 0
M  V30 17 C -2.202329 -3.334159 -2.809855 0
M  V30 18 C -2.057185 -4.696944 -2.899708 0
M  V30 19 C -2.428048 -5.363801 -1.741284 0
M  V30 20 C -2.887568 -4.667729 -0.648324 0
M  V30 21 C -2.988566 -3.295111 -0.682716 0
M  V30 22 C -3.559278 -2.710704 0.514401 0
M  V30 23 C -4.706204 -1.929736 0.626532 0
M  V30 24 N -5.130171 -1.442770 1.811119 0
M  V30 25 C -4.372963 -1.757681 2.894478 0
M  V30 26 N -3.259112 -2.507714 2.837173 0
M  V30 27 C -2.828659 -3.000147 1.644923 0
M  V30 28 C -1.203876 0.011021 -0.088441 0
M  V30 29 C -2.421526 0.448908 0.397515 0
M  V30 30 C -2.526014 0.952136 1.670630 0
M  V30 31 C -1.408762 1.017876 2.459218 0
M  V30 32 C -1.388468 1.504474 3.860705 0
M  V30 33 C -2.700412 1.934181 4.403309 0
M  V30 34 C -2.698005 1.818901 5.913305 0
M  V30 35 N -1.423248 2.063734 6.508366 0
M  V30 36 C -0.398798 1.153238 6.054843 0
M  V30 37 C -0.849202 0.411651 4.793073 0
M  V30 38 C -0.176798 0.582676 1.981399 0
M  V30 39 C -0.068799 0.068525 0.683770 0
M  V30 40 C 1.333460 -0.330032 0.426990 0
M  V30 41 C 4.514255 -0.307955 -4.791640 0
M  V30 42 C 5.707048 -0.305868 -5.486256 0
M  V30 43 H 7.823668 -0.292669 -2.914120 0
M  V30 44 H 5.705149 -0.293583 -1.601719 0
M  V30 45 H 3.927434 -0.295948 -0.597293 0
M  V30 46 H -3.589810 -0.580785 -1.694523 0
M  V30 47 H -2.579466 -0.893829 -3.034660 0
M  V30 48 H -1.904318 -2.794491 -3.728460 0
M  V30 49 H -1.696206 -5.180257 -3.776033 0
M  V30 50 H -2.354615 -6.439582 -1.691471 0
M  V30 51 H -3.168179 -5.246244 0.243819 0
M  V30 52 H -5.190680 -1.778025 -0.344223 0
M  V30 53 H -4.678915 -1.385540 3.878931 0
M  V30 54 H -1.920385 -3.586160 1.739537 0
M  V30 55 H -3.296540 0.398225 -0.220093 0
M  V30 56 H -3.464675 1.289844 2.036042 0
M  V30 57 H -0.666012 2.344922 3.906519 0
M  V30 58 H -3.467773 1.187821 4.048071 0
M  V30 59 H -2.983808 2.980386 4.173531 0
M  V30 60 H -3.444935 2.494250 6.386625 0
M  V30 61 H -3.015636 0.785346 6.241553 0
M  V30 62 H -1.130724 3.046254 6.583514 0
M  V30 63 H 0.516555 1.746385 5.853608 0
M  V30 64 H -0.191796 0.444682 6.883131 0
M  V30 65 H -1.683555 -0.230473 5.074511 0
M  V30 66 H 0.032042 -0.093913 4.370665 0
M  V30 67 H 0.717799 0.627357 2.587091 0
M  V30 68 H 1.986855 0.400844 0.956215 0
M  V30 69 H 1.466825 -1.363165 0.811186 0
M  V30 70 H 3.563942 -0.315207 -5.317429 0
M  V30 71 H 5.741139 -0.309625 -6.587257 0
M  V30 END ATOM
M  V30 BEGIN BOND
M  V30 1 3 1 2
M  V30 2 1 2 3
M  V30 3 2 3 4
M  V30 4 1 4 5
M  V30 5 2 5 6
M  V30 6 1 6 7
M  V30 7 2 7 8
M  V30 8 1 8 9
M  V30 9 2 9 10
M  V30 10 1 10 11
M  V30 11 1 10 12
M  V30 12 2 12 13
M  V30 13 1 12 14
M  V30 14 1 14 15
M  V30 15 1 15 16
M  V30 16 2 16 17
M  V30 17 1 17 18
M  V30 18 2 18 19
M  V30 19 1 19 20
M  V30 20 2 20 21
M  V30 21 1 21 22
M  V30 22 2 22 23
M  V30 23 1 23 24
M  V30 24 2 24 25
M  V30 25 1 25 26
M  V30 26 2 26 27
M  V30 27 1 14 28
M  V30 28 2 28 29
M  V30 29 1 29 30
M  V30 30 2 30 31
M  V30 31 1 31 32
M  V30 32 1 32 33
M  V30 33 1 33 34
M  V30 34 1 34 35
M  V30 35 1 35 36
M  V30 36 1 36 37
M  V30 37 1 31 38
M  V30 38 2 38 39
M  V30 39 1 39 40
M  V30 40 1 6 41
M  V30 41 2 41 42
M  V30 42 1 42 3
M  V30 43 1 11 7
M  V30 44 1 21 16
M  V30 45 1 27 22
M  V30 46 1 39 28
M  V30 47 1 40 9
M  V30 48 1 37 32
M  V30 49 1 4 43
M  V30 50 1 5 44
M  V30 51 1 8 45
M  V30 52 1 15 46
M  V30 53 1 15 47
M  V30 54 1 17 48
M  V30 55 1 18 49
M  V30 56 1 19 50
M  V30 57 1 20 51
M  V30 58 1 23 52
M  V30 59 1 25 53
M  V30 60 1 27 54
M  V30 61 1 29 55
M  V30 62 1 30 56
M  V30 63 1 32 57
M  V30 64 1 33 58
M  V30 65 1 33 59
M  V30 66 1 34 60
M  V30 67 1 34 61
M  V30 68 1 35 62
M  V30 69 1 36 63
M  V30 70 1 36 64
M  V30 71 1 37 65
M  V30 72 1 37 66
M  V30 73 1 38 67
M  V30 74 1 40 68
M  V30 75 1 40 69
M  V30 76 1 41 70
M  V30 77 1 42 71
M  V30 END BOND
M  V30 END CTAB
M  END
>  <Dataset>  (719) 
ChEMBL_Kinases

>  <Ligand_Instance>  (719) 
nan

>  <PDB_ID>  (719) 
nan

>  <Standardized_SMILES>  (719) 
N#Cc1ccc(-c2cc3c(o2)C(=O)N(Cc2ccccc2-c2cncnc2)c2ccc(C4CCNCC4)cc2C3)cc1

>  <Name>  (719) 
nan

>  <Pocket>  (719) 
nan

>  <ATP_Site>  (719) 
nan

>  <Peripheral>  (719) 
nan

>  <Num_H_Atoms_ProtBoundConf>  (719) 
nan

>  <Num_Resolved_Atoms>  (719) 
nan

>  <Num_Not_Resolved_Atoms>  (719) 
nan

$$$$
CHEMBL2385548
     RDKit          3D

  0  0  0  0  0  0  0  0  0  0999 V3000
M  V30 BEGIN CTAB
M  V30 COUNTS 70 76 0 0 0
M  V30 BEGIN ATOM
M  V30 1 N 6.186668 8.289934 3.633191 0
M  V30 2 C 5.539355 7.377634 3.337427 0
M  V30 3 C 4.738557 6.236499 2.991193 0
M  V30 4 C 5.291712 5.150734 2.345473 0
M  V30 5 C 4.599566 4.015827 1.976309 0
M  V30 6 C 3.252267 3.966381 2.277222 0
M  V30 7 C 2.469838 2.786698 1.908606 0
M  V30 8 C 2.939528 1.662186 1.263762 0
M  V30 9 C 1.851339 0.794164 1.116670 0
M  V30 10 C 0.789495 1.461185 1.688334 0
M  V30 11 O 1.175008 2.627573 2.146333 0
M  V30 12 C -0.541330 0.873081 1.732011 0
M  V30 13 O -1.400749 1.601935 2.319883 0
M  V30 14 N -1.042540 -0.373710 1.230752 0
M  V30 15 C -2.395964 -0.757737 1.585603 0
M  V30 16 C -3.399360 -0.282599 0.638243 0
M  V30 17 C -2.952408 0.478674 -0.421699 0
M  V30 18 C -3.742465 1.030661 -1.401088 0
M  V30 19 C -5.099466 0.806851 -1.321356 0
M  V30 20 C -5.593417 0.051416 -0.279903 0
M  V30 21 C -4.750858 -0.488734 0.690875 0
M  V30 22 C -5.326227 -1.292669 1.745090 0
M  V30 23 C -6.314610 -0.565173 2.392802 0
M  V30 24 N -7.041232 -1.073856 3.421194 0
M  V30 25 C -6.754963 -2.353385 3.799354 0
M  V30 26 N -5.812794 -3.101912 3.210500 0
M  V30 27 C -5.113092 -2.569311 2.196960 0
M  V30 28 C -0.379737 -1.323901 0.407744 0
M  V30 29 C -1.169267 -2.320743 -0.123009 0
M  V30 30 C -0.667616 -3.321618 -0.945208 0
M  V30 31 C 0.679809 -3.309444 -1.237736 0
M  V30 32 N 1.154302 -4.349962 -2.081679 0
M  V30 33 C 0.213056 -5.344089 -2.559108 0
M  V30 34 C 0.959219 -6.476841 -3.179871 0
M  V30 35 N 1.784744 -6.079895 -4.297769 0
M  V30 36 C 2.502952 -4.858709 -4.051106 0
M  V30 37 C 2.501165 -4.581304 -2.562818 0
M  V30 38 C 1.473093 -2.313951 -0.708718 0
M  V30 39 C 0.967786 -1.303216 0.121302 0
M  V30 40 C 2.153267 -0.481371 0.441912 0
M  V30 41 C 2.650511 5.024260 2.921467 0
M  V30 42 C 3.390390 6.130220 3.265530 0
M  V30 43 H 6.346596 5.152794 2.092670 0
M  V30 44 H 5.103435 3.195325 1.467733 0
M  V30 45 H 3.982153 1.567771 0.967238 0
M  V30 46 H -2.484289 -1.749465 2.004152 0
M  V30 47 H -2.612216 -0.113853 2.502211 0
M  V30 48 H -1.881676 0.693766 -0.542381 0
M  V30 49 H -3.334819 1.621703 -2.212395 0
M  V30 50 H -5.729514 1.246751 -2.101399 0
M  V30 51 H -6.659175 -0.125375 -0.215799 0
M  V30 52 H -6.648539 0.460811 2.198557 0
M  V30 53 H -7.295583 -2.839639 4.622107 0
M  V30 54 H -4.342974 -3.077560 1.637145 0
M  V30 55 H -2.202577 -2.322299 0.107650 0
M  V30 56 H -1.369192 -4.064194 -1.315158 0
M  V30 57 H -0.275044 -5.753996 -1.633005 0
M  V30 58 H -0.575559 -4.936165 -3.213235 0
M  V30 59 H 1.501594 -7.059349 -2.415329 0
M  V30 60 H 0.202146 -7.186827 -3.615565 0
M  V30 61 H 2.510355 -6.833691 -4.414597 0
M  V30 62 H 2.081691 -3.987696 -4.589816 0
M  V30 63 H 3.569497 -4.916861 -4.362974 0
M  V30 64 H 2.829713 -5.549489 -2.082610 0
M  V30 65 H 3.212388 -3.793191 -2.310460 0
M  V30 66 H 2.511435 -2.405142 -1.005176 0
M  V30 67 H 2.923741 -1.045054 1.005391 0
M  V30 68 H 2.627880 -0.225007 -0.528111 0
M  V30 69 H 1.607605 4.989675 3.155999 0
M  V30 70 H 2.917164 6.980152 3.780983 0
M  V30 END ATOM
M  V30 BEGIN BOND
M  V30 1 3 1 2
M  V30 2 1 2 3
M  V30 3 2 3 4
M  V30 4 1 4 5
M  V30 5 2 5 6
M  V30 6 1 6 7
M  V30 7 2 7 8
M  V30 8 1 8 9
M  V30 9 2 9 10
M  V30 10 1 10 11
M  V30 11 1 10 12
M  V30 12 2 12 13
M  V30 13 1 12 14
M  V30 14 1 14 15
M  V30 15 1 15 16
M  V30 16 2 16 17
M  V30 17 1 17 18
M  V30 18 2 18 19
M  V30 19 1 19 20
M  V30 20 2 20 21
M  V30 21 1 21 22
M  V30 22 2 22 23
M  V30 23 1 23 24
M  V30 24 2 24 25
M  V30 25 1 25 26
M  V30 26 2 26 27
M  V30 27 1 14 28
M  V30 28 2 28 29
M  V30 29 1 29 30
M  V30 30 2 30 31
M  V30 31 1 31 32
M  V30 32 1 32 33
M  V30 33 1 33 34
M  V30 34 1 34 35
M  V30 35 1 35 36
M  V30 36 1 36 37
M  V30 37 1 31 38
M  V30 38 2 38 39
M  V30 39 1 39 40
M  V30 40 1 6 41
M  V30 41 2 41 42
M  V30 42 1 42 3
M  V30 43 1 11 7
M  V30 44 1 21 16
M  V30 45 1 27 22
M  V30 46 1 39 28
M  V30 47 1 40 9
M  V30 48 1 37 32
M  V30 49 1 4 43
M  V30 50 1 5 44
M  V30 51 1 8 45
M  V30 52 1 15 46
M  V30 53 1 15 47
M  V30 54 1 17 48
M  V30 55 1 18 49
M  V30 56 1 19 50
M  V30 57 1 20 51
M  V30 58 1 23 52
M  V30 59 1 25 53
M  V30 60 1 27 54
M  V30 61 1 29 55
M  V30 62 1 30 56
M  V30 63 1 33 57
M  V30 64 1 33 58
M  V30 65 1 34 59
M  V30 66 1 34 60
M  V30 67 1 35 61
M  V30 68 1 36 62
M  V30 69 1 36 63
M  V30 70 1 37 64
M  V30 71 1 37 65
M  V30 72 1 38 66
M  V30 73 1 40 67
M  V30 74 1 40 68
M  V30 75 1 41 69
M  V30 76 1 42 70
M  V30 END BOND
M  V30 END CTAB
M  END
>  <Dataset>  (720) 
ChEMBL_Kinases

>  <Ligand_Instance>  (720) 
nan

>  <PDB_ID>  (720) 
nan

>  <Standardized_SMILES>  (720) 
N#Cc1ccc(-c2cc3c(o2)C(=O)N(Cc2ccccc2-c2cncnc2)c2ccc(N4CCNCC4)cc2C3)cc1

>  <Name>  (720) 
nan

>  <Pocket>  (720) 
nan

>  <ATP_Site>  (720) 
nan

>  <Peripheral>  (720) 
nan

>  <Num_H_Atoms_ProtBoundConf>  (720) 
nan

>  <Num_Resolved_Atoms>  (720) 
nan

>  <Num_Not_Resolved_Atoms>  (720) 
nan

$$$$
CHEMBL2385547
     RDKit          3D

  0  0  0  0  0  0  0  0  0  0999 V3000
M  V30 BEGIN CTAB
M  V30 COUNTS 69 75 0 0 0
M  V30 BEGIN ATOM
M  V30 1 O 0.937789 0.578616 3.317709 0
M  V30 2 C 0.276494 0.481284 2.254314 0
M  V30 3 C -0.124617 1.739552 1.631594 0
M  V30 4 O 0.565814 2.870901 1.752169 0
M  V30 5 C -0.060951 3.822459 1.071648 0
M  V30 6 C 0.401000 5.205253 0.971646 0
M  V30 7 C 1.567441 5.541789 1.628539 0
M  V30 8 C 2.061558 6.829483 1.577193 0
M  V30 9 C 1.318508 7.736226 0.836003 0
M  V30 10 Cl 1.948539 9.374413 0.771354 0
M  V30 11 C 0.151285 7.413889 0.174500 0
M  V30 12 C -0.326814 6.119878 0.238041 0
M  V30 13 C -1.191551 3.249536 0.504930 0
M  V30 14 C -1.253409 1.894397 0.856043 0
M  V30 15 C -2.316870 0.990727 0.430675 0
M  V30 16 C -1.933832 -0.399010 0.190148 0
M  V30 17 C -2.746558 -0.962235 -0.801275 0
M  V30 18 C -2.603905 -2.265235 -1.221369 0
M  V30 19 N -3.430681 -2.801179 -2.217049 0
M  V30 20 C -4.480438 -2.126013 -2.948683 0
M  V30 21 C -4.235288 -2.214951 -4.459604 0
M  V30 22 N -2.908394 -2.785842 -4.653307 0
M  V30 23 C -2.999973 -4.165824 -4.196668 0
M  V30 24 C -3.403460 -4.156499 -2.722928 0
M  V30 25 C -1.618832 -3.024148 -0.630575 0
M  V30 26 C -0.796201 -2.490508 0.357479 0
M  V30 27 C -0.952523 -1.185197 0.765666 0
M  V30 28 N -0.004404 -0.858531 1.780267 0
M  V30 29 C 0.758261 -1.928877 2.414556 0
M  V30 30 C 2.016545 -2.202283 1.720524 0
M  V30 31 C 2.309564 -1.434992 0.596351 0
M  V30 32 C 3.496672 -1.646580 -0.072908 0
M  V30 33 C 4.405743 -2.595832 0.335791 0
M  V30 34 C 4.036892 -3.309146 1.454689 0
M  V30 35 C 2.855601 -3.160611 2.192622 0
M  V30 36 C 2.643296 -4.029226 3.333752 0
M  V30 37 C 3.742393 -3.918365 4.196660 0
M  V30 38 N 3.826096 -4.635631 5.355363 0
M  V30 39 C 2.826684 -5.468664 5.673523 0
M  V30 40 N 1.768631 -5.591226 4.866025 0
M  V30 41 C 1.664758 -4.896916 3.722347 0
M  V30 42 H 2.126702 4.809779 2.200561 0
M  V30 43 H 2.974583 7.085845 2.093429 0
M  V30 44 H -0.353739 8.205996 -0.379796 0
M  V30 45 H -1.240697 5.855608 -0.276388 0
M  V30 46 H -1.914531 3.766473 -0.112479 0
M  V30 47 H -2.764537 1.401613 -0.500908 0
M  V30 48 H -3.132252 1.024601 1.187196 0
M  V30 49 H -3.488958 -0.332220 -1.221444 0
M  V30 50 H -5.456721 -2.644865 -2.756546 0
M  V30 51 H -4.607150 -1.070538 -2.725602 0
M  V30 52 H -4.974283 -2.888618 -4.953098 0
M  V30 53 H -4.321416 -1.233379 -4.952561 0
M  V30 54 H -2.267341 -2.278937 -3.980890 0
M  V30 55 H -1.971694 -4.592728 -4.324418 0
M  V30 56 H -3.689264 -4.743800 -4.830014 0
M  V30 57 H -4.421415 -4.647329 -2.702111 0
M  V30 58 H -2.726644 -4.833060 -2.203685 0
M  V30 59 H -1.424917 -4.049337 -0.886020 0
M  V30 60 H -0.046636 -3.095530 0.796947 0
M  V30 61 H 0.152914 -2.752225 2.758797 0
M  V30 62 H 1.112598 -1.483386 3.400996 0
M  V30 63 H 1.626724 -0.680168 0.240439 0
M  V30 64 H 3.760364 -1.060544 -0.962405 0
M  V30 65 H 5.350383 -2.807537 -0.145654 0
M  V30 66 H 4.747084 -4.071930 1.798741 0
M  V30 67 H 4.640108 -3.288595 4.089427 0
M  V30 68 H 2.862748 -6.053963 6.589340 0
M  V30 69 H 0.865960 -4.941883 3.014717 0
M  V30 END ATOM
M  V30 BEGIN BOND
M  V30 1 2 1 2
M  V30 2 1 2 3
M  V30 3 1 3 4
M  V30 4 1 4 5
M  V30 5 1 5 6
M  V30 6 2 6 7
M  V30 7 1 7 8
M  V30 8 2 8 9
M  V30 9 1 9 10
M  V30 10 1 9 11
M  V30 11 2 11 12
M  V30 12 2 5 13
M  V30 13 1 13 14
M  V30 14 1 14 15
M  V30 15 1 15 16
M  V30 16 2 16 17
M  V30 17 1 17 18
M  V30 18 1 18 19
M  V30 19 1 19 20
M  V30 20 1 20 21
M  V30 21 1 21 22
M  V30 22 1 22 23
M  V30 23 1 23 24
M  V30 24 2 18 25
M  V30 25 1 25 26
M  V30 26 2 26 27
M  V30 27 1 27 28
M  V30 28 1 28 29
M  V30 29 1 29 30
M  V30 30 2 30 31
M  V30 31 1 31 32
M  V30 32 2 32 33
M  V30 33 1 33 34
M  V30 34 2 34 35
M  V30 35 1 35 36
M  V30 36 2 36 37
M  V30 37 1 37 38
M  V30 38 2 38 39
M  V30 39 1 39 40
M  V30 40 2 40 41
M  V30 41 1 28 2
M  V30 42 1 35 30
M  V30 43 1 41 36
M  V30 44 2 14 3
M  V30 45 1 27 16
M  V30 46 1 12 6
M  V30 47 1 24 19
M  V30 48 1 7 42
M  V30 49 1 8 43
M  V30 50 1 11 44
M  V30 51 1 12 45
M  V30 52 1 13 46
M  V30 53 1 15 47
M  V30 54 1 15 48
M  V30 55 1 17 49
M  V30 56 1 20 50
M  V30 57 1 20 51
M  V30 58 1 21 52
M  V30 59 1 21 53
M  V30 60 1 22 54
M  V30 61 1 23 55
M  V30 62 1 23 56
M  V30 63 1 24 57
M  V30 64 1 24 58
M  V30 65 1 25 59
M  V30 66 1 26 60
M  V30 67 1 29 61
M  V30 68 1 29 62
M  V30 69 1 31 63
M  V30 70 1 32 64
M  V30 71 1 33 65
M  V30 72 1 34 66
M  V30 73 1 37 67
M  V30 74 1 39 68
M  V30 75 1 41 69
M  V30 END BOND
M  V30 END CTAB
M  END
>  <Dataset>  (721) 
ChEMBL_Kinases

>  <Ligand_Instance>  (721) 
nan

>  <PDB_ID>  (721) 
nan

>  <Standardized_SMILES>  (721) 
O=C1c2oc(-c3ccc(Cl)cc3)cc2Cc2cc(N3CCNCC3)ccc2N1Cc1ccccc1-c1cncnc1

>  <Name>  (721) 
nan

>  <Pocket>  (721) 
nan

>  <ATP_Site>  (721) 
nan

>  <Peripheral>  (721) 
nan

>  <Num_H_Atoms_ProtBoundConf>  (721) 
nan

>  <Num_Resolved_Atoms>  (721) 
nan

>  <Num_Not_Resolved_Atoms>  (721) 
nan

$$$$
CHEMBL2385546
     RDKit          3D

  0  0  0  0  0  0  0  0  0  0999 V3000
M  V30 BEGIN CTAB
M  V30 COUNTS 75 81 0 0 0
M  V30 BEGIN ATOM
M  V30 1 C -1.941047 -3.107803 -2.282585 0
M  V30 2 O -0.585013 -2.792685 -2.528714 0
M  V30 3 C 0.428385 -3.744798 -2.456733 0
M  V30 4 C 0.372665 -5.092005 -2.157807 0
M  V30 5 C 1.496101 -5.875011 -2.137547 0
M  V30 6 N 2.707077 -5.317845 -2.419070 0
M  V30 7 C 2.763270 -4.014786 -2.708654 0
M  V30 8 C 1.651249 -3.156334 -2.746442 0
M  V30 9 C 2.078466 -1.824045 -3.083346 0
M  V30 10 C 1.935131 -1.391658 -4.377632 0
M  V30 11 C 2.318446 -0.129470 -4.771336 0
M  V30 12 C 2.855815 0.690803 -3.810472 0
M  V30 13 C 2.978768 0.213084 -2.531564 0
M  V30 14 C 2.602159 -1.063767 -2.086884 0
M  V30 15 C 2.851983 -1.317585 -0.646867 0
M  V30 16 N 1.653733 -1.151132 0.118841 0
M  V30 17 C 0.736450 -2.196409 0.466900 0
M  V30 18 O 1.344068 -3.303311 0.521949 0
M  V30 19 C -0.693910 -2.167298 0.747954 0
M  V30 20 O -1.380356 -3.195373 1.133751 0
M  V30 21 C -2.646760 -2.875841 1.313077 0
M  V30 22 C -3.709023 -3.777944 1.744800 0
M  V30 23 C -3.386185 -5.093362 1.993734 0
M  V30 24 C -4.382300 -5.971273 2.407291 0
M  V30 25 C -5.661665 -5.456667 2.545330 0
M  V30 26 C -6.737182 -6.342704 2.977097 0
M  V30 27 N -7.588783 -7.034215 3.334474 0
M  V30 28 C -6.008815 -4.135121 2.299969 0
M  V30 29 C -4.992306 -3.293475 1.890922 0
M  V30 30 C -2.758905 -1.513783 1.008452 0
M  V30 31 C -1.499047 -1.042674 0.640505 0
M  V30 32 C -1.236737 0.340831 0.251093 0
M  V30 33 C 0.120073 0.838673 0.570580 0
M  V30 34 C 0.085770 2.176823 0.986633 0
M  V30 35 C 1.212244 2.882282 1.331923 0
M  V30 36 N 1.162619 4.232174 1.767256 0
M  V30 37 C -0.042628 5.009279 1.997598 0
M  V30 38 C -0.064630 5.167386 3.527111 0
M  V30 39 N 1.115827 5.893182 3.922812 0
M  V30 40 C 2.358223 5.250953 3.551890 0
M  V30 41 C 2.338991 5.028053 2.053198 0
M  V30 42 C 2.431874 2.249711 1.267624 0
M  V30 43 C 2.478764 0.937292 0.861414 0
M  V30 44 C 1.379769 0.215388 0.514474 0
M  V30 45 H -2.431790 -3.539555 -3.205552 0
M  V30 46 H -2.469206 -2.150506 -2.094861 0
M  V30 47 H -2.108417 -3.781015 -1.439939 0
M  V30 48 H -0.659430 -5.390759 -1.956100 0
M  V30 49 H 1.353939 -6.907982 -1.895538 0
M  V30 50 H 3.815886 -3.748291 -2.906054 0
M  V30 51 H 1.504081 -2.077586 -5.102509 0
M  V30 52 H 2.164973 0.115950 -5.810707 0
M  V30 53 H 3.150992 1.674145 -4.129197 0
M  V30 54 H 3.422711 0.959877 -1.861325 0
M  V30 55 H 3.719718 -0.752803 -0.367142 0
M  V30 56 H 3.126860 -2.444943 -0.645616 0
M  V30 57 H -2.360146 -5.408337 1.859635 0
M  V30 58 H -4.138084 -7.005368 2.605035 0
M  V30 59 H -7.042190 -3.809050 2.433606 0
M  V30 60 H -5.256306 -2.267118 1.698846 0
M  V30 61 H -3.662936 -0.912652 1.047357 0
M  V30 62 H -1.966256 1.002738 0.751573 0
M  V30 63 H -1.413827 0.519267 -0.845448 0
M  V30 64 H -0.888261 2.625374 1.020375 0
M  V30 65 H -0.966236 4.543562 1.671961 0
M  V30 66 H 0.018794 6.009004 1.498366 0
M  V30 67 H -0.935221 5.725512 3.873837 0
M  V30 68 H 0.025474 4.147965 3.942181 0
M  V30 69 H 1.105711 5.959414 4.968494 0
M  V30 70 H 3.157070 5.990646 3.762293 0
M  V30 71 H 2.528635 4.319210 4.088953 0
M  V30 72 H 3.268695 4.666485 1.629946 0
M  V30 73 H 2.199851 6.061072 1.614000 0
M  V30 74 H 3.375856 2.665125 1.503069 0
M  V30 75 H 3.372550 0.381966 0.788313 0
M  V30 END ATOM
M  V30 BEGIN BOND
M  V30 1 1 1 2
M  V30 2 1 2 3
M  V30 3 2 3 4
M  V30 4 1 4 5
M  V30 5 2 5 6
M  V30 6 1 6 7
M  V30 7 2 7 8
M  V30 8 1 8 9
M  V30 9 2 9 10
M  V30 10 1 10 11
M  V30 11 2 11 12
M  V30 12 1 12 13
M  V30 13 2 13 14
M  V30 14 1 14 15
M  V30 15 1 15 16
M  V30 16 1 16 17
M  V30 17 2 17 18
M  V30 18 1 17 19
M  V30 19 1 19 20
M  V30 20 1 20 21
M  V30 21 1 21 22
M  V30 22 2 22 23
M  V30 23 1 23 24
M  V30 24 2 24 25
M  V30 25 1 25 26
M  V30 26 3 26 27
M  V30 27 1 25 28
M  V30 28 2 28 29
M  V30 29 2 21 30
M  V30 30 1 30 31
M  V30 31 1 31 32
M  V30 32 1 32 33
M  V30 33 2 33 34
M  V30 34 1 34 35
M  V30 35 1 35 36
M  V30 36 1 36 37
M  V30 37 1 37 38
M  V30 38 1 38 39
M  V30 39 1 39 40
M  V30 40 1 40 41
M  V30 41 2 35 42
M  V30 42 1 42 43
M  V30 43 2 43 44
M  V30 44 1 8 3
M  V30 45 1 14 9
M  V30 46 1 44 16
M  V30 47 2 31 19
M  V30 48 1 44 33
M  V30 49 1 29 22
M  V30 50 1 41 36
M  V30 51 1 1 45
M  V30 52 1 1 46
M  V30 53 1 1 47
M  V30 54 1 4 48
M  V30 55 1 5 49
M  V30 56 1 7 50
M  V30 57 1 10 51
M  V30 58 1 11 52
M  V30 59 1 12 53
M  V30 60 1 13 54
M  V30 61 1 15 55
M  V30 62 1 15 56
M  V30 63 1 23 57
M  V30 64 1 24 58
M  V30 65 1 28 59
M  V30 66 1 29 60
M  V30 67 1 30 61
M  V30 68 1 32 62
M  V30 69 1 32 63
M  V30 70 1 34 64
M  V30 71 1 37 65
M  V30 72 1 37 66
M  V30 73 1 38 67
M  V30 74 1 38 68
M  V30 75 1 39 69
M  V30 76 1 40 70
M  V30 77 1 40 71
M  V30 78 1 41 72
M  V30 79 1 41 73
M  V30 80 1 42 74
M  V30 81 1 43 75
M  V30 END BOND
M  V30 END CTAB
M  END
>  <Dataset>  (722) 
ChEMBL_Kinases

>  <Ligand_Instance>  (722) 
nan

>  <PDB_ID>  (722) 
nan

>  <Standardized_SMILES>  (722) 
COc1ccncc1-c1ccccc1CN1C(=O)c2oc(-c3ccc(C#N)cc3)cc2Cc2cc(N3CCNCC3)ccc21

>  <Name>  (722) 
nan

>  <Pocket>  (722) 
nan

>  <ATP_Site>  (722) 
nan

>  <Peripheral>  (722) 
nan

>  <Num_H_Atoms_ProtBoundConf>  (722) 
nan

>  <Num_Resolved_Atoms>  (722) 
nan

>  <Num_Not_Resolved_Atoms>  (722) 
nan

$$$$
CHEMBL2385545
     RDKit          3D

  0  0  0  0  0  0  0  0  0  0999 V3000
M  V30 BEGIN CTAB
M  V30 COUNTS 75 81 0 0 0
M  V30 BEGIN ATOM
M  V30 1 C -2.122986 -4.785566 1.495269 0
M  V30 2 O -0.847849 -4.446454 0.991062 0
M  V30 3 C 0.217412 -4.870416 1.817074 0
M  V30 4 N 0.133386 -5.541562 2.970021 0
M  V30 5 C 1.209283 -5.906285 3.681117 0
M  V30 6 C 2.457680 -5.548381 3.158646 0
M  V30 7 C 2.538312 -4.842657 1.947807 0
M  V30 8 C 1.381258 -4.474661 1.224976 0
M  V30 9 C 1.866676 -3.737346 0.084387 0
M  V30 10 C 1.927327 -4.417230 -1.139326 0
M  V30 11 C 2.418318 -3.817738 -2.269164 0
M  V30 12 C 2.843397 -2.535410 -2.147020 0
M  V30 13 C 2.784179 -1.874582 -0.957243 0
M  V30 14 C 2.284785 -2.470851 0.206825 0
M  V30 15 C 2.191303 -1.663223 1.494272 0
M  V30 16 N 0.947522 -0.955611 1.385474 0
M  V30 17 C -0.339147 -1.355484 1.799571 0
M  V30 18 O -0.305850 -2.004284 2.852531 0
M  V30 19 C -1.592003 -1.055793 1.090207 0
M  V30 20 O -2.722846 -1.594342 1.470661 0
M  V30 21 C -3.707015 -1.190021 0.702386 0
M  V30 22 C -5.105665 -1.577737 0.822647 0
M  V30 23 C -5.528568 -2.445583 1.802161 0
M  V30 24 C -6.849642 -2.842761 1.959487 0
M  V30 25 C -7.793870 -2.333899 1.077572 0
M  V30 26 C -9.177989 -2.694665 1.176393 0
M  V30 27 N -10.301137 -3.003723 1.246655 0
M  V30 28 C -7.334259 -1.476151 0.119869 0
M  V30 29 C -6.042611 -1.056531 -0.073174 0
M  V30 30 C -3.188776 -0.315277 -0.262849 0
M  V30 31 C -1.834654 -0.243154 0.003010 0
M  V30 32 C -0.942100 0.574832 -0.797288 0
M  V30 33 C 0.334540 0.980075 -0.186440 0
M  V30 34 C 0.709870 2.239155 -0.682630 0
M  V30 35 C 1.868261 2.853330 -0.259719 0
M  V30 36 N 2.303222 4.127528 -0.716893 0
M  V30 37 C 3.523903 4.812530 -0.403755 0
M  V30 38 C 4.310955 5.119810 -1.676843 0
M  V30 39 N 3.597177 4.526055 -2.792439 0
M  V30 40 C 2.316486 5.191708 -2.923419 0
M  V30 41 C 1.577957 5.008901 -1.610976 0
M  V30 42 C 2.681438 2.235093 0.665260 0
M  V30 43 C 2.342993 1.002882 1.171650 0
M  V30 44 C 1.170118 0.349890 0.760107 0
M  V30 45 H -2.077670 -5.832477 1.909081 0
M  V30 46 H -2.883857 -4.767051 0.690796 0
M  V30 47 H -2.370800 -4.153557 2.356977 0
M  V30 48 H 1.025581 -6.439147 4.581348 0
M  V30 49 H 3.267822 -5.876174 3.785375 0
M  V30 50 H 3.595997 -4.683727 1.754487 0
M  V30 51 H 1.576873 -5.440018 -1.185962 0
M  V30 52 H 2.431041 -4.409174 -3.171212 0
M  V30 53 H 3.234110 -2.073567 -3.068130 0
M  V30 54 H 3.137470 -0.850651 -0.920284 0
M  V30 55 H 3.122405 -1.117634 1.408519 0
M  V30 56 H 2.188688 -2.378345 2.357162 0
M  V30 57 H -4.814903 -2.866682 2.514939 0
M  V30 58 H -7.178401 -3.524530 2.730431 0
M  V30 59 H -8.033983 -1.041331 -0.606887 0
M  V30 60 H -5.713277 -0.386120 -0.831403 0
M  V30 61 H -3.707544 0.209770 -1.060345 0
M  V30 62 H -1.493165 1.490961 -1.084983 0
M  V30 63 H -0.676829 0.095580 -1.776607 0
M  V30 64 H 0.076662 2.727120 -1.407416 0
M  V30 65 H 3.329023 5.831415 0.046893 0
M  V30 66 H 4.191983 4.318556 0.297974 0
M  V30 67 H 5.328306 4.665023 -1.613684 0
M  V30 68 H 4.427547 6.186244 -1.874599 0
M  V30 69 H 4.142133 4.463902 -3.657135 0
M  V30 70 H 2.558117 6.275985 -3.126883 0
M  V30 71 H 1.739801 4.836473 -3.785447 0
M  V30 72 H 0.564977 4.638572 -1.875602 0
M  V30 73 H 1.453566 6.044800 -1.176119 0
M  V30 74 H 3.611412 2.575873 1.098745 0
M  V30 75 H 2.902238 0.454383 1.912903 0
M  V30 END ATOM
M  V30 BEGIN BOND
M  V30 1 1 1 2
M  V30 2 1 2 3
M  V30 3 2 3 4
M  V30 4 1 4 5
M  V30 5 2 5 6
M  V30 6 1 6 7
M  V30 7 2 7 8
M  V30 8 1 8 9
M  V30 9 2 9 10
M  V30 10 1 10 11
M  V30 11 2 11 12
M  V30 12 1 12 13
M  V30 13 2 13 14
M  V30 14 1 14 15
M  V30 15 1 15 16
M  V30 16 1 16 17
M  V30 17 2 17 18
M  V30 18 1 17 19
M  V30 19 1 19 20
M  V30 20 1 20 21
M  V30 21 1 21 22
M  V30 22 2 22 23
M  V30 23 1 23 24
M  V30 24 2 24 25
M  V30 25 1 25 26
M  V30 26 3 26 27
M  V30 27 1 25 28
M  V30 28 2 28 29
M  V30 29 2 21 30
M  V30 30 1 30 31
M  V30 31 1 31 32
M  V30 32 1 32 33
M  V30 33 2 33 34
M  V30 34 1 34 35
M  V30 35 1 35 36
M  V30 36 1 36 37
M  V30 37 1 37 38
M  V30 38 1 38 39
M  V30 39 1 39 40
M  V30 40 1 40 41
M  V30 41 2 35 42
M  V30 42 1 42 43
M  V30 43 2 43 44
M  V30 44 1 8 3
M  V30 45 1 14 9
M  V30 46 1 44 16
M  V30 47 2 31 19
M  V30 48 1 44 33
M  V30 49 1 29 22
M  V30 50 1 41 36
M  V30 51 1 1 45
M  V30 52 1 1 46
M  V30 53 1 1 47
M  V30 54 1 5 48
M  V30 55 1 6 49
M  V30 56 1 7 50
M  V30 57 1 10 51
M  V30 58 1 11 52
M  V30 59 1 12 53
M  V30 60 1 13 54
M  V30 61 1 15 55
M  V30 62 1 15 56
M  V30 63 1 23 57
M  V30 64 1 24 58
M  V30 65 1 28 59
M  V30 66 1 29 60
M  V30 67 1 30 61
M  V30 68 1 32 62
M  V30 69 1 32 63
M  V30 70 1 34 64
M  V30 71 1 37 65
M  V30 72 1 37 66
M  V30 73 1 38 67
M  V30 74 1 38 68
M  V30 75 1 39 69
M  V30 76 1 40 70
M  V30 77 1 40 71
M  V30 78 1 41 72
M  V30 79 1 41 73
M  V30 80 1 42 74
M  V30 81 1 43 75
M  V30 END BOND
M  V30 END CTAB
M  END
>  <Dataset>  (723) 
ChEMBL_Kinases

>  <Ligand_Instance>  (723) 
nan

>  <PDB_ID>  (723) 
nan

>  <Standardized_SMILES>  (723) 
COc1ncccc1-c1ccccc1CN1C(=O)c2oc(-c3ccc(C#N)cc3)cc2Cc2cc(N3CCNCC3)ccc21

>  <Name>  (723) 
nan

>  <Pocket>  (723) 
nan

>  <ATP_Site>  (723) 
nan

>  <Peripheral>  (723) 
nan

>  <Num_H_Atoms_ProtBoundConf>  (723) 
nan

>  <Num_Resolved_Atoms>  (723) 
nan

>  <Num_Not_Resolved_Atoms>  (723) 
nan

$$$$
CHEMBL2385544
     RDKit          3D

  0  0  0  0  0  0  0  0  0  0999 V3000
M  V30 BEGIN CTAB
M  V30 COUNTS 71 77 0 0 0
M  V30 BEGIN ATOM
M  V30 1 N 10.167572 -5.552892 0.171444 0
M  V30 2 C 9.161739 -4.982069 0.195709 0
M  V30 3 C 7.884886 -4.286607 0.227374 0
M  V30 4 C 7.678760 -3.191929 1.065651 0
M  V30 5 C 6.453332 -2.519555 1.100324 0
M  V30 6 C 5.456788 -2.990067 0.266067 0
M  V30 7 C 4.128737 -2.332809 0.241782 0
M  V30 8 C 3.731324 -1.242927 0.987108 0
M  V30 9 C 2.411946 -0.971015 0.642067 0
M  V30 10 C 2.079673 -1.917009 -0.299512 0
M  V30 11 O 3.099689 -2.684099 -0.502151 0
M  V30 12 C 0.765358 -2.011420 -0.949905 0
M  V30 13 O 0.773886 -2.659479 -2.027184 0
M  V30 14 N -0.482548 -1.449459 -0.479306 0
M  V30 15 C -1.647352 -2.189542 -0.934690 0
M  V30 16 C -2.143682 -1.628096 -2.215574 0
M  V30 17 C -1.443055 -0.697375 -2.952685 0
M  V30 18 C -1.918691 -0.176287 -4.137222 0
M  V30 19 C -3.156841 -0.584029 -4.641681 0
M  V30 20 C -3.813346 -1.511566 -3.869699 0
M  V30 21 C -3.372587 -2.069783 -2.662269 0
M  V30 22 C -4.258178 -3.040491 -2.038079 0
M  V30 23 C -5.549145 -2.526517 -1.896474 0
M  V30 24 C -6.594732 -3.250818 -1.336203 0
M  V30 25 C -6.344568 -4.526804 -0.904542 0
M  V30 26 N -5.089845 -5.014723 -1.047280 0
M  V30 27 C -4.087671 -4.321066 -1.583829 0
M  V30 28 C -0.644800 -0.300273 0.333252 0
M  V30 29 C -1.952293 0.129146 0.307665 0
M  V30 30 C -2.269827 1.242010 1.060955 0
M  V30 31 C -1.348331 1.928289 1.823205 0
M  V30 32 N -1.702104 3.072597 2.609035 0
M  V30 33 C -3.074048 3.461808 2.859617 0
M  V30 34 C -3.223913 3.744920 4.342528 0
M  V30 35 N -2.276800 4.707163 4.813084 0
M  V30 36 C -1.327918 5.111862 3.802030 0
M  V30 37 C -0.662680 3.891382 3.177146 0
M  V30 38 C -0.052221 1.455845 1.812371 0
M  V30 39 C 0.330375 0.330373 1.067200 0
M  V30 40 C 1.774919 0.172603 1.327357 0
M  V30 41 C 5.657367 -4.073661 -0.565165 0
M  V30 42 C 6.871114 -4.733083 -0.594176 0
M  V30 43 H 8.505861 -2.887269 1.685407 0
M  V30 44 H 6.299763 -1.670647 1.753240 0
M  V30 45 H 4.397619 -0.756226 1.687902 0
M  V30 46 H -1.336406 -3.237883 -1.215065 0
M  V30 47 H -2.471119 -2.201309 -0.225906 0
M  V30 48 H -0.484513 -0.331207 -2.624155 0
M  V30 49 H -1.383126 0.558076 -4.733423 0
M  V30 50 H -3.578989 -0.212843 -5.559906 0
M  V30 51 H -4.788077 -1.826967 -4.274451 0
M  V30 52 H -5.868078 -1.523319 -2.203439 0
M  V30 53 H -7.592746 -2.858386 -1.223997 0
M  V30 54 H -7.140972 -5.108486 -0.465161 0
M  V30 55 H -3.093295 -4.682981 -1.716332 0
M  V30 56 H -2.717806 -0.355862 -0.272493 0
M  V30 57 H -3.301161 1.556600 1.020086 0
M  V30 58 H -3.261594 4.401351 2.321072 0
M  V30 59 H -3.810007 2.667972 2.616472 0
M  V30 60 H -4.249271 4.164205 4.483062 0
M  V30 61 H -3.182803 2.811041 4.941540 0
M  V30 62 H -1.734713 4.279839 5.611333 0
M  V30 63 H -0.578280 5.780591 4.292517 0
M  V30 64 H -1.855319 5.696956 3.013499 0
M  V30 65 H 0.056173 4.257357 2.416377 0
M  V30 66 H -0.106586 3.381111 3.977099 0
M  V30 67 H 0.654489 2.031096 2.432886 0
M  V30 68 H 2.345437 1.082650 0.964613 0
M  V30 69 H 1.944573 0.087034 2.420361 0
M  V30 70 H 4.897776 -4.452755 -1.218206 0
M  V30 71 H 7.080153 -5.591724 -1.230674 0
M  V30 END ATOM
M  V30 BEGIN BOND
M  V30 1 3 1 2
M  V30 2 1 2 3
M  V30 3 2 3 4
M  V30 4 1 4 5
M  V30 5 2 5 6
M  V30 6 1 6 7
M  V30 7 2 7 8
M  V30 8 1 8 9
M  V30 9 2 9 10
M  V30 10 1 10 11
M  V30 11 1 10 12
M  V30 12 2 12 13
M  V30 13 1 12 14
M  V30 14 1 14 15
M  V30 15 1 15 16
M  V30 16 2 16 17
M  V30 17 1 17 18
M  V30 18 2 18 19
M  V30 19 1 19 20
M  V30 20 2 20 21
M  V30 21 1 21 22
M  V30 22 2 22 23
M  V30 23 1 23 24
M  V30 24 2 24 25
M  V30 25 1 25 26
M  V30 26 2 26 27
M  V30 27 1 14 28
M  V30 28 2 28 29
M  V30 29 1 29 30
M  V30 30 2 30 31
M  V30 31 1 31 32
M  V30 32 1 32 33
M  V30 33 1 33 34
M  V30 34 1 34 35
M  V30 35 1 35 36
M  V30 36 1 36 37
M  V30 37 1 31 38
M  V30 38 2 38 39
M  V30 39 1 39 40
M  V30 40 1 6 41
M  V30 41 2 41 42
M  V30 42 1 42 3
M  V30 43 1 11 7
M  V30 44 1 21 16
M  V30 45 1 27 22
M  V30 46 1 39 28
M  V30 47 1 40 9
M  V30 48 1 37 32
M  V30 49 1 4 43
M  V30 50 1 5 44
M  V30 51 1 8 45
M  V30 52 1 15 46
M  V30 53 1 15 47
M  V30 54 1 17 48
M  V30 55 1 18 49
M  V30 56 1 19 50
M  V30 57 1 20 51
M  V30 58 1 23 52
M  V30 59 1 24 53
M  V30 60 1 25 54
M  V30 61 1 27 55
M  V30 62 1 29 56
M  V30 63 1 30 57
M  V30 64 1 33 58
M  V30 65 1 33 59
M  V30 66 1 34 60
M  V30 67 1 34 61
M  V30 68 1 35 62
M  V30 69 1 36 63
M  V30 70 1 36 64
M  V30 71 1 37 65
M  V30 72 1 37 66
M  V30 73 1 38 67
M  V30 74 1 40 68
M  V30 75 1 40 69
M  V30 76 1 41 70
M  V30 77 1 42 71
M  V30 END BOND
M  V30 END CTAB
M  END
>  <Dataset>  (724) 
ChEMBL_Kinases

>  <Ligand_Instance>  (724) 
nan

>  <PDB_ID>  (724) 
nan

>  <Standardized_SMILES>  (724) 
N#Cc1ccc(-c2cc3c(o2)C(=O)N(Cc2ccccc2-c2cccnc2)c2ccc(N4CCNCC4)cc2C3)cc1

>  <Name>  (724) 
nan

>  <Pocket>  (724) 
nan

>  <ATP_Site>  (724) 
nan

>  <Peripheral>  (724) 
nan

>  <Num_H_Atoms_ProtBoundConf>  (724) 
nan

>  <Num_Resolved_Atoms>  (724) 
nan

>  <Num_Not_Resolved_Atoms>  (724) 
nan

$$$$
CHEMBL2385542
     RDKit          3D

  0  0  0  0  0  0  0  0  0  0999 V3000
M  V30 BEGIN CTAB
M  V30 COUNTS 75 81 0 0 0
M  V30 BEGIN ATOM
M  V30 1 C 1.213109 2.752416 6.125663 0
M  V30 2 O 1.025212 1.369525 6.129305 0
M  V30 3 C 1.360606 0.496076 5.106291 0
M  V30 4 C 1.090657 -0.829779 5.317022 0
M  V30 5 N 1.431507 -1.663786 4.294838 0
M  V30 6 C 1.995894 -1.170801 3.166635 0
M  V30 7 C 2.273994 0.183766 2.944857 0
M  V30 8 C 2.912941 0.418519 1.666281 0
M  V30 9 C 4.150057 -0.188738 1.608151 0
M  V30 10 C 4.963083 -0.043783 0.499117 0
M  V30 11 C 4.481724 0.734500 -0.546038 0
M  V30 12 C 3.221025 1.314637 -0.413210 0
M  V30 13 C 2.388046 1.184632 0.684359 0
M  V30 14 C 1.058261 1.806345 0.676210 0
M  V30 15 N -0.033158 0.934649 0.360592 0
M  V30 16 C -0.724604 0.270676 1.419953 0
M  V30 17 O -0.841687 0.965740 2.480655 0
M  V30 18 C -1.310256 -1.057770 1.479421 0
M  V30 19 O -1.448939 -1.785107 2.563225 0
M  V30 20 C -2.025428 -2.940817 2.225421 0
M  V30 21 C -2.332044 -3.994404 3.185319 0
M  V30 22 C -2.925156 -5.187483 2.837432 0
M  V30 23 C -3.199651 -6.166115 3.788777 0
M  V30 24 C -2.885862 -5.977627 5.126533 0
M  V30 25 C -3.138930 -6.943038 6.158578 0
M  V30 26 N -3.346051 -7.710338 6.983730 0
M  V30 27 C -2.290804 -4.791635 5.504086 0
M  V30 28 C -2.039057 -3.853339 4.525217 0
M  V30 29 C -2.250183 -2.917331 0.865861 0
M  V30 30 C -1.791599 -1.699287 0.359695 0
M  V30 31 C -1.925878 -1.444584 -1.074445 0
M  V30 32 C -1.201546 -0.284655 -1.592487 0
M  V30 33 C -1.424830 -0.299305 -2.964709 0
M  V30 34 C -0.880066 0.664602 -3.807793 0
M  V30 35 N -1.085840 0.690409 -5.207013 0
M  V30 36 C -0.407857 1.548839 -6.159688 0
M  V30 37 C 0.151832 0.662448 -7.276528 0
M  V30 38 N 0.118332 -0.742606 -6.925662 0
M  V30 39 C -1.307420 -1.102809 -6.860857 0
M  V30 40 C -2.023082 -0.141861 -5.933705 0
M  V30 41 C -0.110077 1.626095 -3.188947 0
M  V30 42 C 0.110801 1.640844 -1.830625 0
M  V30 43 C -0.430938 0.685130 -1.004563 0
M  V30 44 C 1.922936 1.039801 3.997785 0
M  V30 45 H 1.204635 3.079751 7.200493 0
M  V30 46 H 0.381120 3.228519 5.578263 0
M  V30 47 H 2.177558 3.083834 5.672323 0
M  V30 48 H 0.644471 -1.200000 6.215090 0
M  V30 49 H 2.207896 -1.967799 2.449278 0
M  V30 50 H 4.594459 -0.808047 2.375434 0
M  V30 51 H 5.934637 -0.498354 0.412106 0
M  V30 52 H 5.113707 0.852853 -1.416796 0
M  V30 53 H 2.975970 1.890431 -1.291179 0
M  V30 54 H 0.912185 1.988987 1.811745 0
M  V30 55 H 0.994655 2.853729 0.350625 0
M  V30 56 H -3.179897 -5.363399 1.811443 0
M  V30 57 H -3.664602 -7.110874 3.541590 0
M  V30 58 H -2.010158 -4.552634 6.521354 0
M  V30 59 H -1.566901 -2.912323 4.827405 0
M  V30 60 H -2.709695 -3.755338 0.384806 0
M  V30 61 H -1.633631 -2.362658 -1.634526 0
M  V30 62 H -3.006058 -1.292044 -1.373840 0
M  V30 63 H -2.021410 -1.046104 -3.453071 0
M  V30 64 H 0.373758 2.177611 -5.742744 0
M  V30 65 H -1.208581 2.171514 -6.649379 0
M  V30 66 H 1.192905 0.997807 -7.455407 0
M  V30 67 H -0.393742 0.782694 -8.221813 0
M  V30 68 H 0.580061 -0.912117 -6.002865 0
M  V30 69 H -1.679703 -1.037244 -7.899775 0
M  V30 70 H -1.348174 -2.147318 -6.552179 0
M  V30 71 H -2.670049 0.512014 -6.592344 0
M  V30 72 H -2.755714 -0.663249 -5.288413 0
M  V30 73 H 0.357820 2.420101 -3.749949 0
M  V30 74 H 0.705092 2.393800 -1.405928 0
M  V30 75 H 2.164430 2.062093 3.784362 0
M  V30 END ATOM
M  V30 BEGIN BOND
M  V30 1 1 1 2
M  V30 2 1 2 3
M  V30 3 2 3 4
M  V30 4 1 4 5
M  V30 5 2 5 6
M  V30 6 1 6 7
M  V30 7 1 7 8
M  V30 8 2 8 9
M  V30 9 1 9 10
M  V30 10 2 10 11
M  V30 11 1 11 12
M  V30 12 2 12 13
M  V30 13 1 13 14
M  V30 14 1 14 15
M  V30 15 1 15 16
M  V30 16 2 16 17
M  V30 17 1 16 18
M  V30 18 1 18 19
M  V30 19 1 19 20
M  V30 20 1 20 21
M  V30 21 2 21 22
M  V30 22 1 22 23
M  V30 23 2 23 24
M  V30 24 1 24 25
M  V30 25 3 25 26
M  V30 26 1 24 27
M  V30 27 2 27 28
M  V30 28 2 20 29
M  V30 29 1 29 30
M  V30 30 1 30 31
M  V30 31 1 31 32
M  V30 32 2 32 33
M  V30 33 1 33 34
M  V30 34 1 34 35
M  V30 35 1 35 36
M  V30 36 1 36 37
M  V30 37 1 37 38
M  V30 38 1 38 39
M  V30 39 1 39 40
M  V30 40 2 34 41
M  V30 41 1 41 42
M  V30 42 2 42 43
M  V30 43 2 7 44
M  V30 44 1 44 3
M  V30 45 1 13 8
M  V30 46 1 43 15
M  V30 47 2 30 18
M  V30 48 1 43 32
M  V30 49 1 28 21
M  V30 50 1 40 35
M  V30 51 1 1 45
M  V30 52 1 1 46
M  V30 53 1 1 47
M  V30 54 1 4 48
M  V30 55 1 6 49
M  V30 56 1 9 50
M  V30 57 1 10 51
M  V30 58 1 11 52
M  V30 59 1 12 53
M  V30 60 1 14 54
M  V30 61 1 14 55
M  V30 62 1 22 56
M  V30 63 1 23 57
M  V30 64 1 27 58
M  V30 65 1 28 59
M  V30 66 1 29 60
M  V30 67 1 31 61
M  V30 68 1 31 62
M  V30 69 1 33 63
M  V30 70 1 36 64
M  V30 71 1 36 65
M  V30 72 1 37 66
M  V30 73 1 37 67
M  V30 74 1 38 68
M  V30 75 1 39 69
M  V30 76 1 39 70
M  V30 77 1 40 71
M  V30 78 1 40 72
M  V30 79 1 41 73
M  V30 80 1 42 74
M  V30 81 1 44 75
M  V30 END BOND
M  V30 END CTAB
M  END
>  <Dataset>  (725) 
ChEMBL_Kinases

>  <Ligand_Instance>  (725) 
nan

>  <PDB_ID>  (725) 
nan

>  <Standardized_SMILES>  (725) 
COc1cncc(-c2ccccc2CN2C(=O)c3oc(-c4ccc(C#N)cc4)cc3Cc3cc(N4CCNCC4)ccc32)c1

>  <Name>  (725) 
nan

>  <Pocket>  (725) 
nan

>  <ATP_Site>  (725) 
nan

>  <Peripheral>  (725) 
nan

>  <Num_H_Atoms_ProtBoundConf>  (725) 
nan

>  <Num_Resolved_Atoms>  (725) 
nan

>  <Num_Not_Resolved_Atoms>  (725) 
nan

$$$$
CHEMBL2385541
     RDKit          3D

  0  0  0  0  0  0  0  0  0  0999 V3000
M  V30 BEGIN CTAB
M  V30 COUNTS 74 80 0 0 0
M  V30 BEGIN ATOM
M  V30 1 C 0.239105 0.503986 5.767529 0
M  V30 2 O 0.834044 -0.274582 4.737987 0
M  V30 3 C 1.631212 0.351240 3.779462 0
M  V30 4 C 2.232684 -0.369372 2.755310 0
M  V30 5 C 3.040512 0.215073 1.772407 0
M  V30 6 C 3.581666 -0.744280 0.836239 0
M  V30 7 C 4.346471 -1.729384 1.419293 0
M  V30 8 C 4.980172 -2.683556 0.650946 0
M  V30 9 C 4.859040 -2.668194 -0.716726 0
M  V30 10 C 4.076095 -1.652497 -1.228635 0
M  V30 11 C 3.414190 -0.668407 -0.520912 0
M  V30 12 C 2.544200 0.313425 -1.276223 0
M  V30 13 N 1.176905 -0.146794 -1.289048 0
M  V30 14 C 0.929918 -1.022640 -2.434850 0
M  V30 15 O 1.599069 -0.907093 -3.485586 0
M  V30 16 C -0.069833 -2.105047 -2.539575 0
M  V30 17 O -0.204393 -2.885311 -3.586070 0
M  V30 18 C -1.187367 -3.759864 -3.377863 0
M  V30 19 C -1.583455 -4.775998 -4.373761 0
M  V30 20 C -0.878559 -4.786341 -5.559159 0
M  V30 21 C -1.238802 -5.744565 -6.513183 0
M  V30 22 C -2.269587 -6.596028 -6.182822 0
M  V30 23 Cl -2.732073 -7.810301 -7.381325 0
M  V30 24 C -2.968070 -6.577710 -4.995051 0
M  V30 25 C -2.618046 -5.623251 -4.030074 0
M  V30 26 C -1.695193 -3.503733 -2.119881 0
M  V30 27 C -0.996664 -2.450569 -1.564966 0
M  V30 28 C -1.330628 -1.963839 -0.209359 0
M  V30 29 C -0.871098 -0.595785 0.087597 0
M  V30 30 C -1.699009 0.010283 1.025858 0
M  V30 31 C -1.469788 1.297173 1.465597 0
M  V30 32 N -2.333651 1.923679 2.427703 0
M  V30 33 C -2.095857 3.154058 3.153183 0
M  V30 34 C -3.238392 4.105092 2.864385 0
M  V30 35 N -4.130046 3.564747 1.887508 0
M  V30 36 C -4.742336 2.318532 2.237901 0
M  V30 37 C -3.654423 1.438179 2.855514 0
M  V30 38 C -0.407296 2.054133 0.998574 0
M  V30 39 C 0.430588 1.477663 0.066522 0
M  V30 40 C 0.173329 0.190015 -0.350724 0
M  V30 41 C 3.203717 1.578171 1.889529 0
M  V30 42 C 2.593063 2.265098 2.917460 0
M  V30 43 N 1.822636 1.676580 3.846553 0
M  V30 44 H 1.084293 0.965459 6.333753 0
M  V30 45 H -0.327349 -0.189039 6.419519 0
M  V30 46 H -0.435190 1.221256 5.293622 0
M  V30 47 H 2.015354 -1.433297 2.790213 0
M  V30 48 H 4.488655 -1.806178 2.487833 0
M  V30 49 H 5.576663 -3.451912 1.123071 0
M  V30 50 H 5.322746 -3.375146 -1.387473 0
M  V30 51 H 3.967545 -1.623266 -2.308436 0
M  V30 52 H 2.975620 0.281500 -2.328533 0
M  V30 53 H 2.751266 1.269029 -0.809399 0
M  V30 54 H -0.082632 -4.112955 -5.788473 0
M  V30 55 H -0.727121 -5.801952 -7.450801 0
M  V30 56 H -3.776542 -7.302007 -4.825049 0
M  V30 57 H -3.143173 -5.584723 -3.097204 0
M  V30 58 H -2.527934 -4.109303 -1.727521 0
M  V30 59 H -0.892485 -2.711252 0.510005 0
M  V30 60 H -2.455427 -1.988934 -0.124784 0
M  V30 61 H -2.516239 -0.580278 1.381175 0
M  V30 62 H -1.119092 3.582424 2.937423 0
M  V30 63 H -2.177584 2.901075 4.254008 0
M  V30 64 H -2.818685 5.044962 2.440941 0
M  V30 65 H -3.833244 4.369286 3.754109 0
M  V30 66 H -3.756568 3.596087 0.916566 0
M  V30 67 H -5.122745 1.868858 1.294909 0
M  V30 68 H -5.579056 2.500788 2.922563 0
M  V30 69 H -3.852810 0.419063 2.474792 0
M  V30 70 H -3.781664 1.427939 3.940443 0
M  V30 71 H -0.153425 3.064844 1.282910 0
M  V30 72 H 1.254203 2.012736 -0.322187 0
M  V30 73 H 3.833910 2.003446 1.131107 0
M  V30 74 H 2.750872 3.334297 2.965100 0
M  V30 END ATOM
M  V30 BEGIN BOND
M  V30 1 1 1 2
M  V30 2 1 2 3
M  V30 3 2 3 4
M  V30 4 1 4 5
M  V30 5 1 5 6
M  V30 6 2 6 7
M  V30 7 1 7 8
M  V30 8 2 8 9
M  V30 9 1 9 10
M  V30 10 2 10 11
M  V30 11 1 11 12
M  V30 12 1 12 13
M  V30 13 1 13 14
M  V30 14 2 14 15
M  V30 15 1 14 16
M  V30 16 1 16 17
M  V30 17 1 17 18
M  V30 18 1 18 19
M  V30 19 2 19 20
M  V30 20 1 20 21
M  V30 21 2 21 22
M  V30 22 1 22 23
M  V30 23 1 22 24
M  V30 24 2 24 25
M  V30 25 2 18 26
M  V30 26 1 26 27
M  V30 27 1 27 28
M  V30 28 1 28 29
M  V30 29 2 29 30
M  V30 30 1 30 31
M  V30 31 1 31 32
M  V30 32 1 32 33
M  V30 33 1 33 34
M  V30 34 1 34 35
M  V30 35 1 35 36
M  V30 36 1 36 37
M  V30 37 2 31 38
M  V30 38 1 38 39
M  V30 39 2 39 40
M  V30 40 2 5 41
M  V30 41 1 41 42
M  V30 42 2 42 43
M  V30 43 1 43 3
M  V30 44 1 11 6
M  V30 45 1 40 13
M  V30 46 2 27 16
M  V30 47 1 40 29
M  V30 48 1 25 19
M  V30 49 1 37 32
M  V30 50 1 1 44
M  V30 51 1 1 45
M  V30 52 1 1 46
M  V30 53 1 4 47
M  V30 54 1 7 48
M  V30 55 1 8 49
M  V30 56 1 9 50
M  V30 57 1 10 51
M  V30 58 1 12 52
M  V30 59 1 12 53
M  V30 60 1 20 54
M  V30 61 1 21 55
M  V30 62 1 24 56
M  V30 63 1 25 57
M  V30 64 1 26 58
M  V30 65 1 28 59
M  V30 66 1 28 60
M  V30 67 1 30 61
M  V30 68 1 33 62
M  V30 69 1 33 63
M  V30 70 1 34 64
M  V30 71 1 34 65
M  V30 72 1 35 66
M  V30 73 1 36 67
M  V30 74 1 36 68
M  V30 75 1 37 69
M  V30 76 1 37 70
M  V30 77 1 38 71
M  V30 78 1 39 72
M  V30 79 1 41 73
M  V30 80 1 42 74
M  V30 END BOND
M  V30 END CTAB
M  END
>  <Dataset>  (726) 
ChEMBL_Kinases

>  <Ligand_Instance>  (726) 
nan

>  <PDB_ID>  (726) 
nan

>  <Standardized_SMILES>  (726) 
COc1cc(-c2ccccc2CN2C(=O)c3oc(-c4ccc(Cl)cc4)cc3Cc3cc(N4CCNCC4)ccc32)ccn1

>  <Name>  (726) 
nan

>  <Pocket>  (726) 
nan

>  <ATP_Site>  (726) 
nan

>  <Peripheral>  (726) 
nan

>  <Num_H_Atoms_ProtBoundConf>  (726) 
nan

>  <Num_Resolved_Atoms>  (726) 
nan

>  <Num_Not_Resolved_Atoms>  (726) 
nan

$$$$
CHEMBL2381250
     RDKit          3D

  0  0  0  0  0  0  0  0  0  0999 V3000
M  V30 BEGIN CTAB
M  V30 COUNTS 55 59 0 0 0
M  V30 BEGIN ATOM
M  V30 1 O -0.717067 0.887929 4.347309 0
M  V30 2 C -1.062680 0.270753 3.317233 0
M  V30 3 N -0.074273 -0.434495 2.581535 0
M  V30 4 C 1.300943 -0.649808 2.699442 0
M  V30 5 C 1.637812 -1.791458 3.394419 0
M  V30 6 C 2.962748 -2.120278 3.588079 0
M  V30 7 C 3.909977 -1.251330 3.052660 0
M  V30 8 C 3.528831 -0.121915 2.365476 0
M  V30 9 C 2.213789 0.226785 2.159905 0
M  V30 10 N 1.900071 1.403428 1.444883 0
M  V30 11 C 2.885255 2.346996 0.966676 0
M  V30 12 C 2.972445 2.261819 -0.564201 0
M  V30 13 N 1.641429 2.462165 -1.126467 0
M  V30 14 C 0.718930 2.878495 -0.083179 0
M  V30 15 C 0.620755 1.892737 1.055218 0
M  V30 16 C -2.461156 0.293323 2.904716 0
M  V30 17 C -3.349284 1.025353 3.712445 0
M  V30 18 S -4.975555 0.740450 2.769053 0
M  V30 19 C -4.097725 -0.278630 1.530183 0
M  V30 20 N -4.876483 -0.904718 0.348646 0
M  V30 21 C -4.131704 -1.682194 -0.573062 0
M  V30 22 C -2.783664 -1.956452 -0.552476 0
M  V30 23 C -2.611528 -2.737435 -1.661849 0
M  V30 24 C -1.350374 -3.321904 -2.131321 0
M  V30 25 C -1.325474 -4.093154 -3.273148 0
M  V30 26 C -0.120181 -4.625973 -3.683382 0
M  V30 27 C 1.080402 -4.431352 -3.010659 0
M  V30 28 C 1.042201 -3.651283 -1.859911 0
M  V30 29 C -0.164449 -3.122218 -1.455715 0
M  V30 30 N -3.789420 -2.888205 -2.261807 0
M  V30 31 N -4.751931 -2.250922 -1.618431 0
M  V30 32 N -2.985381 -0.299965 1.853229 0
M  V30 33 H -0.323030 -0.989485 1.708052 0
M  V30 34 H 0.903283 -2.470028 3.812475 0
M  V30 35 H 3.236389 -3.009899 4.129618 0
M  V30 36 H 4.934401 -1.567512 3.239981 0
M  V30 37 H 4.394466 0.409883 2.033084 0
M  V30 38 H 2.649268 3.406174 1.214854 0
M  V30 39 H 3.906825 2.187893 1.353812 0
M  V30 40 H 3.317505 1.265761 -0.887890 0
M  V30 41 H 3.672959 3.021015 -0.957352 0
M  V30 42 H 1.283231 1.646854 -1.645345 0
M  V30 43 H -0.284799 2.919482 -0.601458 0
M  V30 44 H 0.940260 3.892568 0.253674 0
M  V30 45 H 0.219574 2.465985 1.943854 0
M  V30 46 H -0.105885 1.112669 0.728486 0
M  V30 47 H -3.284209 1.605654 4.598125 0
M  V30 48 H -5.880954 -0.705258 0.325959 0
M  V30 49 H -2.034970 -1.641996 0.154739 0
M  V30 50 H -2.230913 -4.294500 -3.861835 0
M  V30 51 H -0.109720 -5.235137 -4.588221 0
M  V30 52 H 2.017567 -4.855354 -3.344129 0
M  V30 53 H 1.947035 -3.450082 -1.271590 0
M  V30 54 H -0.253939 -2.507507 -0.567851 0
M  V30 55 H -5.756519 -2.224659 -1.899296 0
M  V30 END ATOM
M  V30 BEGIN BOND
M  V30 1 2 1 2
M  V30 2 1 2 3
M  V30 3 1 3 4
M  V30 4 2 4 5
M  V30 5 1 5 6
M  V30 6 2 6 7
M  V30 7 1 7 8
M  V30 8 2 8 9
M  V30 9 1 9 10
M  V30 10 1 10 11
M  V30 11 1 11 12
M  V30 12 1 12 13
M  V30 13 1 13 14
M  V30 14 1 14 15
M  V30 15 1 2 16
M  V30 16 2 16 17
M  V30 17 1 17 18
M  V30 18 1 18 19
M  V30 19 1 19 20
M  V30 20 1 20 21
M  V30 21 2 21 22
M  V30 22 1 22 23
M  V30 23 1 23 24
M  V30 24 2 24 25
M  V30 25 1 25 26
M  V30 26 2 26 27
M  V30 27 1 27 28
M  V30 28 2 28 29
M  V30 29 2 23 30
M  V30 30 1 30 31
M  V30 31 2 19 32
M  V30 32 1 9 4
M  V30 33 1 15 10
M  V30 34 1 32 16
M  V30 35 1 31 21
M  V30 36 1 29 24
M  V30 37 1 3 33
M  V30 38 1 5 34
M  V30 39 1 6 35
M  V30 40 1 7 36
M  V30 41 1 8 37
M  V30 42 1 11 38
M  V30 43 1 11 39
M  V30 44 1 12 40
M  V30 45 1 12 41
M  V30 46 1 13 42
M  V30 47 1 14 43
M  V30 48 1 14 44
M  V30 49 1 15 45
M  V30 50 1 15 46
M  V30 51 1 17 47
M  V30 52 1 20 48
M  V30 53 1 22 49
M  V30 54 1 25 50
M  V30 55 1 26 51
M  V30 56 1 27 52
M  V30 57 1 28 53
M  V30 58 1 29 54
M  V30 59 1 31 55
M  V30 END BOND
M  V30 END CTAB
M  END
>  <Dataset>  (727) 
ChEMBL_Kinases

>  <Ligand_Instance>  (727) 
nan

>  <PDB_ID>  (727) 
nan

>  <Standardized_SMILES>  (727) 
O=C(Nc1ccccc1N1CCNCC1)c1csc(Nc2cc(-c3ccccc3)n[nH]2)n1

>  <Name>  (727) 
nan

>  <Pocket>  (727) 
nan

>  <ATP_Site>  (727) 
nan

>  <Peripheral>  (727) 
nan

>  <Num_H_Atoms_ProtBoundConf>  (727) 
nan

>  <Num_Resolved_Atoms>  (727) 
nan

>  <Num_Not_Resolved_Atoms>  (727) 
nan

$$$$
CHEMBL2381341
     RDKit          3D

  0  0  0  0  0  0  0  0  0  0999 V3000
M  V30 BEGIN CTAB
M  V30 COUNTS 58 61 0 0 0
M  V30 BEGIN ATOM
M  V30 1 C 8.679775 -1.985936 0.527725 0
M  V30 2 N 7.260720 -1.741818 0.432208 0
M  V30 3 C 6.592875 -0.711228 1.149281 0
M  V30 4 O 7.404774 -0.044894 1.875156 0
M  V30 5 C 5.166542 -0.427974 1.084221 0
M  V30 6 C 4.272967 -1.158159 0.289525 0
M  V30 7 C 2.951352 -0.773353 0.327851 0
M  V30 8 C 2.475172 0.263577 1.084435 0
M  V30 9 C 3.378650 0.961379 1.856526 0
M  V30 10 C 4.716158 0.620930 1.858552 0
M  V30 11 N 2.714219 1.983864 2.590238 0
M  V30 12 C 1.331131 1.924645 2.261582 0
M  V30 13 O 0.432648 2.655160 2.701882 0
M  V30 14 C 1.176810 0.853390 1.319837 0
M  V30 15 C 0.143045 0.417901 0.661984 0
M  V30 16 N -1.113880 1.018309 0.933119 0
M  V30 17 C -2.475760 0.768431 0.614427 0
M  V30 18 C -2.958791 1.318897 -0.564199 0
M  V30 19 C -4.259327 1.200443 -1.066410 0
M  V30 20 C -5.099531 0.454452 -0.273683 0
M  V30 21 C -4.697494 -0.121590 0.903937 0
M  V30 22 C -5.643851 -0.917916 1.721518 0
M  V30 23 N -5.632990 -2.318525 1.353605 0
M  V30 24 C -4.326307 -2.926513 1.522929 0
M  V30 25 C -6.168608 -2.544570 0.031714 0
M  V30 26 C -3.397545 0.037756 1.337767 0
M  V30 27 C -0.051741 -0.508602 -0.428650 0
M  V30 28 C -0.858263 -1.616666 -0.278012 0
M  V30 29 C -1.185661 -2.535623 -1.255655 0
M  V30 30 C -0.638729 -2.300553 -2.500106 0
M  V30 31 C 0.181691 -1.230753 -2.779548 0
M  V30 32 C 0.446059 -0.373634 -1.736182 0
M  V30 33 H 9.209821 -1.052830 0.789612 0
M  V30 34 H 8.948118 -2.775053 1.247296 0
M  V30 35 H 9.066202 -2.335751 -0.457935 0
M  V30 36 H 6.697226 -2.354944 -0.196655 0
M  V30 37 H 4.710898 -1.962063 -0.283910 0
M  V30 38 H 2.388547 -1.430647 -0.295837 0
M  V30 39 H 5.402199 1.187335 2.474706 0
M  V30 40 H 3.141365 2.662562 3.252025 0
M  V30 41 H -1.347673 1.867735 1.484677 0
M  V30 42 H -2.277362 1.913685 -1.190411 0
M  V30 43 H -4.520048 1.675474 -1.999695 0
M  V30 44 H -6.125411 0.347875 -0.648141 0
M  V30 45 H -6.680547 -0.559034 1.606745 0
M  V30 46 H -5.421531 -0.867492 2.808087 0
M  V30 47 H -3.917630 -2.601318 2.497436 0
M  V30 48 H -3.637921 -2.725908 0.693708 0
M  V30 49 H -4.491439 -4.039547 1.510536 0
M  V30 50 H -5.648702 -2.000321 -0.768747 0
M  V30 51 H -5.995704 -3.636666 -0.180137 0
M  V30 52 H -7.258692 -2.417884 0.031653 0
M  V30 53 H -3.003864 -0.391989 2.267036 0
M  V30 54 H -1.310738 -1.842235 0.699985 0
M  V30 55 H -1.827135 -3.383354 -1.061658 0
M  V30 56 H -0.863553 -2.992561 -3.305468 0
M  V30 57 H 0.605874 -1.046750 -3.740236 0
M  V30 58 H 1.086195 0.483000 -1.904980 0
M  V30 END ATOM
M  V30 BEGIN BOND
M  V30 1 1 1 2
M  V30 2 1 2 3
M  V30 3 2 3 4
M  V30 4 1 3 5
M  V30 5 2 5 6
M  V30 6 1 6 7
M  V30 7 2 7 8
M  V30 8 1 8 9
M  V30 9 2 9 10
M  V30 10 1 9 11
M  V30 11 1 11 12
M  V30 12 2 12 13
M  V30 13 1 12 14
M  V30 14 2 14 15
M  V30 15 1 15 16
M  V30 16 1 16 17
M  V30 17 2 17 18
M  V30 18 1 18 19
M  V30 19 2 19 20
M  V30 20 1 20 21
M  V30 21 1 21 22
M  V30 22 1 22 23
M  V30 23 1 23 24
M  V30 24 1 23 25
M  V30 25 2 21 26
M  V30 26 1 15 27
M  V30 27 2 27 28
M  V30 28 1 28 29
M  V30 29 2 29 30
M  V30 30 1 30 31
M  V30 31 2 31 32
M  V30 32 1 10 5
M  V30 33 1 26 17
M  V30 34 1 32 27
M  V30 35 1 14 8
M  V30 36 1 1 33
M  V30 37 1 1 34
M  V30 38 1 1 35
M  V30 39 1 2 36
M  V30 40 1 6 37
M  V30 41 1 7 38
M  V30 42 1 10 39
M  V30 43 1 11 40
M  V30 44 1 16 41
M  V30 45 1 18 42
M  V30 46 1 19 43
M  V30 47 1 20 44
M  V30 48 1 22 45
M  V30 49 1 22 46
M  V30 50 1 24 47
M  V30 51 1 24 48
M  V30 52 1 24 49
M  V30 53 1 25 50
M  V30 54 1 25 51
M  V30 55 1 25 52
M  V30 56 1 26 53
M  V30 57 1 28 54
M  V30 58 1 29 55
M  V30 59 1 30 56
M  V30 60 1 31 57
M  V30 61 1 32 58
M  V30 END BOND
M  V30 END CTAB
M  END
>  <Dataset>  (728) 
ChEMBL_Kinases

>  <Ligand_Instance>  (728) 
nan

>  <PDB_ID>  (728) 
nan

>  <Standardized_SMILES>  (728) 
CNC(=O)c1ccc2c(c1)NC(=O)/C2=C(\Nc1cccc(CN(C)C)c1)c1ccccc1

>  <Name>  (728) 
nan

>  <Pocket>  (728) 
nan

>  <ATP_Site>  (728) 
nan

>  <Peripheral>  (728) 
nan

>  <Num_H_Atoms_ProtBoundConf>  (728) 
nan

>  <Num_Resolved_Atoms>  (728) 
nan

>  <Num_Not_Resolved_Atoms>  (728) 
nan

$$$$
CHEMBL2381597
     RDKit          3D

  0  0  0  0  0  0  0  0  0  0999 V3000
M  V30 BEGIN CTAB
M  V30 COUNTS 39 42 0 0 0
M  V30 BEGIN ATOM
M  V30 1 N 3.677327 -3.902468 3.992268 0
M  V30 2 C 2.538459 -3.225246 3.478907 0
M  V30 3 O 1.560034 -3.519045 4.214515 0
M  V30 4 C 2.559808 -2.358846 2.307129 0
M  V30 5 C 3.721455 -2.142934 1.599516 0
M  V30 6 N 3.710967 -1.334716 0.521888 0
M  V30 7 C 2.590803 -0.724546 0.110412 0
M  V30 8 N 2.634809 0.096515 -1.042215 0
M  V30 9 C 1.704596 0.989386 -1.633577 0
M  V30 10 C 1.346521 1.138776 -2.952462 0
M  V30 11 C 0.431975 2.084908 -3.334824 0
M  V30 12 C -0.153792 2.912364 -2.407730 0
M  V30 13 N 0.184132 2.783647 -1.098434 0
M  V30 14 C 1.092710 1.843823 -0.719087 0
M  V30 15 C 1.460118 -0.978979 0.857361 0
M  V30 16 N 0.204741 -0.536926 0.705032 0
M  V30 17 C -0.635271 -1.011010 1.634022 0
M  V30 18 C -2.049007 -0.654260 1.657495 0
M  V30 19 C -2.522301 0.202072 0.683568 0
M  V30 20 C -3.851962 0.600776 0.626700 0
M  V30 21 C -4.675303 0.084458 1.610993 0
M  V30 22 Cl -6.359621 0.558940 1.578550 0
M  V30 23 C -4.239257 -0.758911 2.581276 0
M  V30 24 C -2.898860 -1.148293 2.622021 0
M  V30 25 C 0.151015 -1.811298 2.429942 0
M  V30 26 N 1.406985 -1.774046 1.939654 0
M  V30 27 H 4.128622 -4.574115 3.304108 0
M  V30 28 H 4.158701 -3.859579 4.932804 0
M  V30 29 H 4.647596 -2.612940 1.893981 0
M  V30 30 H 3.474652 0.116587 -1.638781 0
M  V30 31 H 1.842647 0.460324 -3.618158 0
M  V30 32 H 0.170617 2.178843 -4.388489 0
M  V30 33 H -0.885540 3.660789 -2.754199 0
M  V30 34 H 1.199438 1.954608 0.353450 0
M  V30 35 H -1.899014 0.633498 -0.117020 0
M  V30 36 H -4.209463 1.275549 -0.146314 0
M  V30 37 H -4.917211 -1.136841 3.329764 0
M  V30 38 H -2.483227 -1.805957 3.351822 0
M  V30 39 H -0.231935 -2.345712 3.280229 0
M  V30 END ATOM
M  V30 BEGIN BOND
M  V30 1 1 1 2
M  V30 2 2 2 3
M  V30 3 1 2 4
M  V30 4 2 4 5
M  V30 5 1 5 6
M  V30 6 2 6 7
M  V30 7 1 7 8
M  V30 8 1 8 9
M  V30 9 2 9 10
M  V30 10 1 10 11
M  V30 11 2 11 12
M  V30 12 1 12 13
M  V30 13 2 13 14
M  V30 14 1 7 15
M  V30 15 2 15 16
M  V30 16 1 16 17
M  V30 17 1 17 18
M  V30 18 2 18 19
M  V30 19 1 19 20
M  V30 20 2 20 21
M  V30 21 1 21 22
M  V30 22 1 21 23
M  V30 23 2 23 24
M  V30 24 2 17 25
M  V30 25 1 25 26
M  V30 26 1 26 4
M  V30 27 1 14 9
M  V30 28 1 26 15
M  V30 29 1 24 18
M  V30 30 1 1 27
M  V30 31 1 1 28
M  V30 32 1 5 29
M  V30 33 1 8 30
M  V30 34 1 10 31
M  V30 35 1 11 32
M  V30 36 1 12 33
M  V30 37 1 14 34
M  V30 38 1 19 35
M  V30 39 1 20 36
M  V30 40 1 23 37
M  V30 41 1 24 38
M  V30 42 1 25 39
M  V30 END BOND
M  V30 END CTAB
M  END
>  <Dataset>  (729) 
ChEMBL_Kinases

>  <Ligand_Instance>  (729) 
nan

>  <PDB_ID>  (729) 
nan

>  <Standardized_SMILES>  (729) 
NC(=O)c1cnc(Nc2cccnc2)c2nc(-c3ccc(Cl)cc3)cn12

>  <Name>  (729) 
nan

>  <Pocket>  (729) 
nan

>  <ATP_Site>  (729) 
nan

>  <Peripheral>  (729) 
nan

>  <Num_H_Atoms_ProtBoundConf>  (729) 
nan

>  <Num_Resolved_Atoms>  (729) 
nan

>  <Num_Not_Resolved_Atoms>  (729) 
nan

$$$$
CHEMBL2381607
     RDKit          3D

  0  0  0  0  0  0  0  0  0  0999 V3000
M  V30 BEGIN CTAB
M  V30 COUNTS 48 51 0 0 0
M  V30 BEGIN ATOM
M  V30 1 N 1.382489 -5.252573 -1.018878 0
M  V30 2 C 2.084848 -4.050205 -1.314056 0
M  V30 3 O 3.146078 -4.150513 -1.977518 0
M  V30 4 C 1.583250 -2.757634 -0.859314 0
M  V30 5 C 2.298557 -1.619022 -1.168294 0
M  V30 6 N 1.756906 -0.477214 -0.706717 0
M  V30 7 C 0.616712 -0.412978 -0.000814 0
M  V30 8 N 0.094955 0.842973 0.462075 0
M  V30 9 C 0.773413 2.117255 0.201188 0 CFG=1
M  V30 10 C -0.016342 3.249232 0.765726 0
M  V30 11 C 0.781790 4.126153 1.673409 0
M  V30 12 C 2.083688 4.603571 1.089026 0 CFG=2
M  V30 13 N 1.847176 5.703274 0.164350 0
M  V30 14 C 2.817537 3.445900 0.412310 0
M  V30 15 C 2.155788 2.130938 0.777807 0
M  V30 16 N -0.069825 -1.530984 0.292928 0
M  V30 17 C -1.205046 -1.805484 0.958346 0
M  V30 18 C -1.448314 -3.164443 0.953710 0
M  V30 19 C -2.584057 -3.866160 1.571798 0
M  V30 20 C -3.554251 -3.142195 2.249479 0
M  V30 21 C -4.629696 -3.823315 2.832887 0
M  V30 22 C -4.641198 -5.199718 2.684190 0
M  V30 23 Cl -5.975092 -6.099532 3.401621 0
M  V30 24 C -3.680815 -5.926966 2.012160 0
M  V30 25 C -2.621880 -5.248319 1.438673 0
M  V30 26 N -0.420734 -3.695556 0.262969 0
M  V30 27 C 0.409988 -2.715133 -0.135614 0
M  V30 28 H 1.620401 -6.140963 -0.531539 0
M  V30 29 H 0.381026 -5.307090 -1.350420 0
M  V30 30 H 3.212312 -1.683280 -1.735104 0
M  V30 31 H -0.791647 0.868418 1.001500 0
M  V30 32 H 0.839640 2.206608 -0.907639 0
M  V30 33 H -0.514643 3.816310 -0.055918 0
M  V30 34 H -0.848439 2.822940 1.393596 0
M  V30 35 H 1.001007 3.625772 2.637530 0
M  V30 36 H 0.184435 5.034128 1.906810 0
M  V30 37 H 2.733568 4.906290 1.937165 0
M  V30 38 H 2.434528 5.508335 -0.681848 0
M  V30 39 H 2.275028 6.564200 0.599217 0
M  V30 40 H 3.905736 3.461230 0.640852 0
M  V30 41 H 2.705572 3.630259 -0.688294 0
M  V30 42 H 2.797454 1.293684 0.463135 0
M  V30 43 H 2.109942 2.095628 1.894198 0
M  V30 44 H -1.809523 -1.027623 1.417418 0
M  V30 45 H -3.499972 -2.056997 2.339359 0
M  V30 46 H -5.415459 -3.309974 3.373356 0
M  V30 47 H -3.712346 -6.992626 1.910848 0
M  V30 48 H -1.850522 -5.763811 0.907054 0
M  V30 END ATOM
M  V30 BEGIN BOND
M  V30 1 1 1 2
M  V30 2 2 2 3
M  V30 3 1 2 4
M  V30 4 2 4 5
M  V30 5 1 5 6
M  V30 6 2 6 7
M  V30 7 1 7 8
M  V30 8 1 8 9
M  V30 9 1 9 10
M  V30 10 1 10 11
M  V30 11 1 11 12
M  V30 12 1 12 13
M  V30 13 1 12 14
M  V30 14 1 14 15
M  V30 15 1 7 16
M  V30 16 1 16 17
M  V30 17 2 17 18
M  V30 18 1 18 19
M  V30 19 2 19 20
M  V30 20 1 20 21
M  V30 21 2 21 22
M  V30 22 1 22 23
M  V30 23 1 22 24
M  V30 24 2 24 25
M  V30 25 1 18 26
M  V30 26 2 26 27
M  V30 27 1 27 4
M  V30 28 1 15 9
M  V30 29 1 27 16
M  V30 30 1 25 19
M  V30 31 1 1 28
M  V30 32 1 1 29
M  V30 33 1 5 30
M  V30 34 1 8 31
M  V30 35 1 9 32 CFG=3
M  V30 36 1 10 33
M  V30 37 1 10 34
M  V30 38 1 11 35
M  V30 39 1 11 36
M  V30 40 1 12 37 CFG=1
M  V30 41 1 13 38
M  V30 42 1 13 39
M  V30 43 1 14 40
M  V30 44 1 14 41
M  V30 45 1 15 42
M  V30 46 1 15 43
M  V30 47 1 17 44
M  V30 48 1 20 45
M  V30 49 1 21 46
M  V30 50 1 24 47
M  V30 51 1 25 48
M  V30 END BOND
M  V30 END CTAB
M  END
>  <Dataset>  (730) 
ChEMBL_Kinases

>  <Ligand_Instance>  (730) 
nan

>  <PDB_ID>  (730) 
nan

>  <Standardized_SMILES>  (730) 
NC(=O)c1cnc(N[C@H]2CC[C@H](N)CC2)n2cc(-c3ccc(Cl)cc3)nc12

>  <Name>  (730) 
nan

>  <Pocket>  (730) 
nan

>  <ATP_Site>  (730) 
nan

>  <Peripheral>  (730) 
nan

>  <Num_H_Atoms_ProtBoundConf>  (730) 
nan

>  <Num_Resolved_Atoms>  (730) 
nan

>  <Num_Not_Resolved_Atoms>  (730) 
nan

$$$$
CHEMBL2381612
     RDKit          3D

  0  0  0  0  0  0  0  0  0  0999 V3000
M  V30 BEGIN CTAB
M  V30 COUNTS 48 51 0 0 0
M  V30 BEGIN ATOM
M  V30 1 N -0.115920 -6.122101 1.293003 0
M  V30 2 C 1.092188 -5.537921 0.838715 0
M  V30 3 O 2.057774 -6.324722 0.716682 0
M  V30 4 C 1.220184 -4.124999 0.530809 0
M  V30 5 N 2.430000 -3.751605 0.116447 0
M  V30 6 C 2.737572 -2.487567 -0.213655 0
M  V30 7 C 1.789606 -1.481590 -0.138561 0
M  V30 8 N 2.059012 -0.134005 -0.482599 0
M  V30 9 C 1.202966 1.011748 -0.441977 0 CFG=1
M  V30 10 C 0.705113 1.396155 0.916837 0
M  V30 11 C 1.125736 2.806517 1.320632 0
M  V30 12 C 2.592007 3.024563 1.136542 0 CFG=2
M  V30 13 N 2.892489 4.441844 1.302690 0
M  V30 14 C 3.080031 2.604793 -0.229384 0
M  V30 15 C 1.885274 2.208285 -1.054774 0
M  V30 16 C 0.543883 -1.923658 0.299060 0
M  V30 17 N -0.612969 -1.272808 0.498292 0
M  V30 18 C -1.589954 -2.086893 0.929639 0
M  V30 19 C -2.961292 -1.685945 1.237380 0
M  V30 20 C -3.294615 -0.356370 1.074568 0
M  V30 21 C -4.576349 0.077721 1.350729 0
M  V30 22 C -5.513099 -0.862479 1.795047 0
M  V30 23 Cl -7.144757 -0.306193 2.145872 0
M  V30 24 C -5.149180 -2.194271 1.949693 0
M  V30 25 C -3.860533 -2.638937 1.673635 0
M  V30 26 C -1.014655 -3.337172 1.009241 0
M  V30 27 N 0.262412 -3.196364 0.623412 0
M  V30 28 H -1.002252 -6.551481 1.619703 0
M  V30 29 H -1.043128 -6.627791 1.166680 0
M  V30 30 H 3.736904 -2.229262 -0.546339 0
M  V30 31 H 3.043461 0.012746 -0.816665 0
M  V30 32 H 0.350042 0.776027 -1.140459 0
M  V30 33 H 0.930770 0.699058 1.724042 0
M  V30 34 H -0.421291 1.466471 0.851141 0
M  V30 35 H 0.909347 2.871774 2.412526 0
M  V30 36 H 0.512741 3.578619 0.840441 0
M  V30 37 H 3.171909 2.495914 1.943949 0
M  V30 38 H 2.401730 5.024906 0.586644 0
M  V30 39 H 3.923342 4.587702 1.313149 0
M  V30 40 H 3.781686 1.750761 -0.119634 0
M  V30 41 H 3.602941 3.458578 -0.742898 0
M  V30 42 H 1.187953 3.085984 -1.028362 0
M  V30 43 H 2.143357 2.034099 -2.119938 0
M  V30 44 H -2.545249 0.353434 0.727297 0
M  V30 45 H -4.815750 1.124823 1.216022 0
M  V30 46 H -5.878877 -2.919845 2.294483 0
M  V30 47 H -3.562061 -3.672521 1.789145 0
M  V30 48 H -1.526475 -4.233235 1.325824 0
M  V30 END ATOM
M  V30 BEGIN BOND
M  V30 1 1 1 2
M  V30 2 2 2 3
M  V30 3 1 2 4
M  V30 4 2 4 5
M  V30 5 1 5 6
M  V30 6 2 6 7
M  V30 7 1 7 8
M  V30 8 1 8 9
M  V30 9 1 9 10
M  V30 10 1 10 11
M  V30 11 1 11 12
M  V30 12 1 12 13
M  V30 13 1 12 14
M  V30 14 1 14 15
M  V30 15 1 7 16
M  V30 16 2 16 17
M  V30 17 1 17 18
M  V30 18 1 18 19
M  V30 19 2 19 20
M  V30 20 1 20 21
M  V30 21 2 21 22
M  V30 22 1 22 23
M  V30 23 1 22 24
M  V30 24 2 24 25
M  V30 25 2 18 26
M  V30 26 1 26 27
M  V30 27 1 27 4
M  V30 28 1 15 9
M  V30 29 1 27 16
M  V30 30 1 25 19
M  V30 31 1 1 28
M  V30 32 1 1 29
M  V30 33 1 6 30
M  V30 34 1 8 31
M  V30 35 1 9 32 CFG=3
M  V30 36 1 10 33
M  V30 37 1 10 34
M  V30 38 1 11 35
M  V30 39 1 11 36
M  V30 40 1 12 37 CFG=1
M  V30 41 1 13 38
M  V30 42 1 13 39
M  V30 43 1 14 40
M  V30 44 1 14 41
M  V30 45 1 15 42
M  V30 46 1 15 43
M  V30 47 1 20 44
M  V30 48 1 21 45
M  V30 49 1 24 46
M  V30 50 1 25 47
M  V30 51 1 26 48
M  V30 END BOND
M  V30 END CTAB
M  END
>  <Dataset>  (731) 
ChEMBL_Kinases

>  <Ligand_Instance>  (731) 
nan

>  <PDB_ID>  (731) 
nan

>  <Standardized_SMILES>  (731) 
NC(=O)c1ncc(N[C@H]2CC[C@H](N)CC2)c2nc(-c3ccc(Cl)cc3)cn12

>  <Name>  (731) 
nan

>  <Pocket>  (731) 
nan

>  <ATP_Site>  (731) 
nan

>  <Peripheral>  (731) 
nan

>  <Num_H_Atoms_ProtBoundConf>  (731) 
nan

>  <Num_Resolved_Atoms>  (731) 
nan

>  <Num_Not_Resolved_Atoms>  (731) 
nan

$$$$
CHEMBL2382219
     RDKit          3D

  0  0  0  0  0  0  0  0  0  0999 V3000
M  V30 BEGIN CTAB
M  V30 COUNTS 58 62 0 0 0
M  V30 BEGIN ATOM
M  V30 1 C -0.001307 -1.747760 4.052092 0
M  V30 2 C 1.281472 -1.912441 4.369589 0
M  V30 3 C 2.163721 -2.664830 3.427885 0
M  V30 4 N 3.220272 -1.753030 3.026673 0
M  V30 5 C 4.395840 -1.608767 3.663999 0
M  V30 6 C 4.871647 -2.314972 4.873776 0
M  V30 7 N 5.109501 -0.679480 3.002482 0
M  V30 8 C 4.347704 -0.273443 1.967502 0
M  V30 9 C 4.621700 0.655038 1.005048 0
M  V30 10 C 3.739087 0.972995 -0.001065 0
M  V30 11 C 2.543900 0.287820 0.021347 0
M  V30 12 N 1.617112 0.592778 -0.990173 0
M  V30 13 C 0.357371 0.214683 -1.496783 0
M  V30 14 N -0.810471 0.711113 -1.017484 0
M  V30 15 C -1.974872 0.318424 -1.547443 0
M  V30 16 N -3.181404 0.853653 -1.019777 0
M  V30 17 C -3.242443 1.741502 0.145082 0
M  V30 18 C -3.820111 0.901268 1.259185 0
M  V30 19 N -4.790968 -0.002633 0.776808 0
M  V30 20 C -4.635398 -1.380568 1.078392 0
M  V30 21 C -5.453691 0.321084 -0.428359 0
M  V30 22 C -4.486488 0.573231 -1.586475 0
M  V30 23 N -2.043183 -0.550868 -2.538500 0
M  V30 24 C -0.982838 -1.111137 -3.098122 0
M  V30 25 C -1.011230 -2.011573 -4.122924 0
M  V30 26 C 0.141340 -2.548327 -4.649887 0
M  V30 27 C 1.346862 -2.139822 -4.099077 0
M  V30 28 C 1.400704 -1.231921 -3.063936 0
M  V30 29 C 0.230795 -0.694482 -2.537649 0
M  V30 30 C 2.217469 -0.654897 0.965158 0
M  V30 31 C 3.139964 -0.936488 1.954038 0
M  V30 32 H 0.216289 -2.294303 3.164085 0
M  V30 33 H -0.630468 -1.187786 4.766977 0
M  V30 34 H 1.822534 -1.578948 5.236454 0
M  V30 35 H 1.614760 -2.989823 2.533813 0
M  V30 36 H 2.636006 -3.516923 3.975741 0
M  V30 37 H 4.531858 -3.372301 4.830938 0
M  V30 38 H 5.998027 -2.340739 4.901114 0
M  V30 39 H 4.550796 -1.819945 5.794739 0
M  V30 40 H 5.580200 1.181898 1.013571 0
M  V30 41 H 3.956185 1.713315 -0.771332 0
M  V30 42 H 1.765343 1.351615 -1.713666 0
M  V30 43 H -2.205768 2.081360 0.415260 0
M  V30 44 H -3.919457 2.571732 -0.102604 0
M  V30 45 H -2.963057 0.293809 1.678175 0
M  V30 46 H -4.167796 1.549194 2.066975 0
M  V30 47 H -5.596185 -1.771778 1.496045 0
M  V30 48 H -4.389104 -1.913135 0.122103 0
M  V30 49 H -3.820165 -1.487779 1.831199 0
M  V30 50 H -6.170496 1.164275 -0.343638 0
M  V30 51 H -6.059676 -0.555731 -0.740150 0
M  V30 52 H -4.829077 1.498161 -2.130013 0
M  V30 53 H -4.466125 -0.237795 -2.319207 0
M  V30 54 H -2.014535 -2.252103 -4.465806 0
M  V30 55 H 0.076058 -3.261618 -5.465760 0
M  V30 56 H 2.214572 -2.592506 -4.550270 0
M  V30 57 H 2.404847 -0.998664 -2.728497 0
M  V30 58 H 1.296979 -1.197486 0.999621 0
M  V30 END ATOM
M  V30 BEGIN BOND
M  V30 1 2 1 2
M  V30 2 1 2 3
M  V30 3 1 3 4
M  V30 4 1 4 5
M  V30 5 1 5 6
M  V30 6 2 5 7
M  V30 7 1 7 8
M  V30 8 2 8 9
M  V30 9 1 9 10
M  V30 10 2 10 11
M  V30 11 1 11 12
M  V30 12 1 12 13
M  V30 13 2 13 14
M  V30 14 1 14 15
M  V30 15 1 15 16
M  V30 16 1 16 17
M  V30 17 1 17 18
M  V30 18 1 18 19
M  V30 19 1 19 20
M  V30 20 1 19 21
M  V30 21 1 21 22
M  V30 22 2 15 23
M  V30 23 1 23 24
M  V30 24 2 24 25
M  V30 25 1 25 26
M  V30 26 2 26 27
M  V30 27 1 27 28
M  V30 28 2 28 29
M  V30 29 1 11 30
M  V30 30 2 30 31
M  V30 31 1 31 4
M  V30 32 1 31 8
M  V30 33 1 29 13
M  V30 34 1 22 16
M  V30 35 1 29 24
M  V30 36 1 1 32
M  V30 37 1 1 33
M  V30 38 1 2 34
M  V30 39 1 3 35
M  V30 40 1 3 36
M  V30 41 1 6 37
M  V30 42 1 6 38
M  V30 43 1 6 39
M  V30 44 1 9 40
M  V30 45 1 10 41
M  V30 46 1 12 42
M  V30 47 1 17 43
M  V30 48 1 17 44
M  V30 49 1 18 45
M  V30 50 1 18 46
M  V30 51 1 20 47
M  V30 52 1 20 48
M  V30 53 1 20 49
M  V30 54 1 21 50
M  V30 55 1 21 51
M  V30 56 1 22 52
M  V30 57 1 22 53
M  V30 58 1 25 54
M  V30 59 1 26 55
M  V30 60 1 27 56
M  V30 61 1 28 57
M  V30 62 1 30 58
M  V30 END BOND
M  V30 END CTAB
M  END
>  <Dataset>  (732) 
ChEMBL_Kinases

>  <Ligand_Instance>  (732) 
nan

>  <PDB_ID>  (732) 
nan

>  <Standardized_SMILES>  (732) 
C=CCn1c(C)nc2ccc(Nc3nc(N4CCN(C)CC4)nc4ccccc34)cc21

>  <Name>  (732) 
nan

>  <Pocket>  (732) 
nan

>  <ATP_Site>  (732) 
nan

>  <Peripheral>  (732) 
nan

>  <Num_H_Atoms_ProtBoundConf>  (732) 
nan

>  <Num_Resolved_Atoms>  (732) 
nan

>  <Num_Not_Resolved_Atoms>  (732) 
nan

$$$$
CHEMBL23828
     RDKit          3D

  0  0  0  0  0  0  0  0  0  0999 V3000
M  V30 BEGIN CTAB
M  V30 COUNTS 42 45 0 0 0
M  V30 BEGIN ATOM
M  V30 1 O -0.618471 -2.581212 4.246924 0
M  V30 2 C 0.534115 -2.080039 3.660844 0
M  V30 3 C 0.261170 -1.410427 2.361550 0
M  V30 4 N 1.074292 -1.413078 1.291205 0
M  V30 5 C 0.534445 -0.713836 0.273054 0
M  V30 6 C 1.112512 -0.487248 -1.055997 0
M  V30 7 C 1.392432 -1.563053 -1.908475 0
M  V30 8 C 1.942729 -1.328789 -3.170674 0
M  V30 9 C 2.200120 -0.017345 -3.549568 0
M  V30 10 F 2.739712 0.174380 -4.794303 0
M  V30 11 C 1.924474 1.047649 -2.709025 0
M  V30 12 C 1.380837 0.823855 -1.460907 0
M  V30 13 C -0.699791 -0.238151 0.729019 0
M  V30 14 C -1.610448 0.571515 -0.070350 0
M  V30 15 C -1.944202 1.838552 0.356602 0
M  V30 16 C -2.813266 2.612328 -0.406594 0
M  V30 17 N -3.316905 2.110055 -1.554638 0
M  V30 18 C -3.000069 0.869273 -1.988107 0
M  V30 19 C -2.131346 0.052184 -1.257623 0
M  V30 20 N -0.826134 -0.682574 1.997623 0
M  V30 21 C 1.264070 -1.118805 4.592400 0
M  V30 22 C 2.540775 -0.917188 3.765401 0
M  V30 23 C 2.835161 -2.314809 3.220254 0
M  V30 24 C 1.592673 -3.141369 3.463848 0
M  V30 25 H -1.355703 -2.726556 3.610671 0
M  V30 26 H 1.174941 -2.586826 -1.573680 0
M  V30 27 H 2.155715 -2.179726 -3.824182 0
M  V30 28 H 2.136045 2.077083 -3.028810 0
M  V30 29 H 1.179764 1.685615 -0.833141 0
M  V30 30 H -1.576783 2.292147 1.258906 0
M  V30 31 H -3.125467 3.612579 -0.145340 0
M  V30 32 H -3.404544 0.462853 -2.911820 0
M  V30 33 H -1.861105 -0.935671 -1.575492 0
M  V30 34 H -1.663990 -0.481070 2.607966 0
M  V30 35 H 0.725053 -0.179979 4.745443 0
M  V30 36 H 1.543215 -1.668349 5.500021 0
M  V30 37 H 3.349196 -0.583952 4.444843 0
M  V30 38 H 2.379548 -0.195011 2.932787 0
M  V30 39 H 3.125752 -2.248991 2.158250 0
M  V30 40 H 3.713518 -2.733350 3.781567 0
M  V30 41 H 1.316939 -3.679494 2.527754 0
M  V30 42 H 1.683914 -3.815715 4.323509 0
M  V30 END ATOM
M  V30 BEGIN BOND
M  V30 1 1 1 2
M  V30 2 1 2 3
M  V30 3 2 3 4
M  V30 4 1 4 5
M  V30 5 1 5 6
M  V30 6 2 6 7
M  V30 7 1 7 8
M  V30 8 2 8 9
M  V30 9 1 9 10
M  V30 10 1 9 11
M  V30 11 2 11 12
M  V30 12 2 5 13
M  V30 13 1 13 14
M  V30 14 2 14 15
M  V30 15 1 15 16
M  V30 16 2 16 17
M  V30 17 1 17 18
M  V30 18 2 18 19
M  V30 19 1 13 20
M  V30 20 1 2 21
M  V30 21 1 21 22
M  V30 22 1 22 23
M  V30 23 1 23 24
M  V30 24 1 24 2
M  V30 25 1 20 3
M  V30 26 1 12 6
M  V30 27 1 19 14
M  V30 28 1 1 25
M  V30 29 1 7 26
M  V30 30 1 8 27
M  V30 31 1 11 28
M  V30 32 1 12 29
M  V30 33 1 15 30
M  V30 34 1 16 31
M  V30 35 1 18 32
M  V30 36 1 19 33
M  V30 37 1 20 34
M  V30 38 1 21 35
M  V30 39 1 21 36
M  V30 40 1 22 37
M  V30 41 1 22 38
M  V30 42 1 23 39
M  V30 43 1 23 40
M  V30 44 1 24 41
M  V30 45 1 24 42
M  V30 END BOND
M  V30 END CTAB
M  END
>  <Dataset>  (733) 
ChEMBL_Kinases

>  <Ligand_Instance>  (733) 
nan

>  <PDB_ID>  (733) 
nan

>  <Standardized_SMILES>  (733) 
OC1(c2nc(-c3ccc(F)cc3)c(-c3ccncc3)[nH]2)CCCC1

>  <Name>  (733) 
nan

>  <Pocket>  (733) 
nan

>  <ATP_Site>  (733) 
nan

>  <Peripheral>  (733) 
nan

>  <Num_H_Atoms_ProtBoundConf>  (733) 
nan

>  <Num_Resolved_Atoms>  (733) 
nan

>  <Num_Not_Resolved_Atoms>  (733) 
nan

$$$$
CHEMBL2385085
     RDKit          3D

  0  0  0  0  0  0  0  0  0  0999 V3000
M  V30 BEGIN CTAB
M  V30 COUNTS 70 76 0 0 0
M  V30 BEGIN ATOM
M  V30 1 O 2.112808 -0.671623 2.414876 0
M  V30 2 C 1.334507 -0.409979 1.497744 0
M  V30 3 C 1.572119 0.775402 0.700036 0
M  V30 4 O 2.715976 1.402288 0.601680 0
M  V30 5 C 2.547502 2.441346 -0.225224 0
M  V30 6 C 3.666255 3.322460 -0.528246 0
M  V30 7 C 4.885538 3.133787 0.082298 0
M  V30 8 C 5.945515 3.976290 -0.253793 0
M  V30 9 C 5.720607 4.959991 -1.184297 0
M  V30 10 Cl 7.077680 5.986417 -1.567161 0
M  V30 11 C 4.526443 5.184830 -1.817579 0
M  V30 12 C 3.493045 4.338035 -1.466814 0
M  V30 13 C 1.237510 2.455823 -0.655444 0
M  V30 14 C 0.567571 1.383276 -0.071518 0
M  V30 15 C -0.880054 1.069864 -0.303067 0
M  V30 16 C -1.030559 -0.417683 -0.533393 0
M  V30 17 C -1.806087 -0.667995 -1.682850 0
M  V30 18 C -2.006740 -1.998864 -2.042407 0
M  V30 19 N -2.798535 -2.308618 -3.196556 0
M  V30 20 C -3.709552 -1.440441 -3.883503 0
M  V30 21 C -3.500926 -1.311885 -5.353646 0
M  V30 22 N -3.092856 -2.497033 -6.039139 0
M  V30 23 C -2.121203 -3.236143 -5.262564 0
M  V30 24 C -2.809576 -3.559181 -3.920785 0
M  V30 25 C -1.495837 -3.086073 -1.344291 0
M  V30 26 C -0.760963 -2.764946 -0.247314 0
M  V30 27 C -0.488815 -1.490712 0.214205 0
M  V30 28 N 0.328914 -1.397375 1.434008 0
M  V30 29 C -0.134702 -2.426628 2.306721 0
M  V30 30 C -1.222113 -1.941699 3.200831 0
M  V30 31 C -2.471224 -1.675386 2.620082 0
M  V30 32 C -3.538934 -1.156843 3.302690 0
M  V30 33 C -3.423222 -0.857827 4.669821 0
M  V30 34 C -2.209012 -1.109304 5.266824 0
M  V30 35 C -1.179111 -1.629079 4.530273 0
M  V30 36 C 0.054292 -1.942904 5.215260 0
M  V30 37 C -0.197678 -3.144667 5.918006 0
M  V30 38 C 0.732110 -3.786166 6.716016 0
M  V30 39 N 1.984902 -3.239159 6.850368 0
M  V30 40 C 2.294633 -2.081232 6.200678 0
M  V30 41 C 1.325643 -1.502054 5.428398 0
M  V30 42 H 5.082494 2.368248 0.814843 0
M  V30 43 H 6.914638 3.820493 0.243725 0
M  V30 44 H 4.403046 5.986524 -2.562223 0
M  V30 45 H 2.541107 4.526780 -1.983191 0
M  V30 46 H 0.827752 3.197477 -1.341125 0
M  V30 47 H -1.409025 1.360953 0.626875 0
M  V30 48 H -1.225848 1.585320 -1.188455 0
M  V30 49 H -2.203580 0.157437 -2.230261 0
M  V30 50 H -4.747204 -1.865217 -3.724765 0
M  V30 51 H -3.726850 -0.417458 -3.435822 0
M  V30 52 H -2.788023 -0.490400 -5.619687 0
M  V30 53 H -4.482161 -0.959089 -5.781662 0
M  V30 54 H -3.870441 -3.124155 -6.324793 0
M  V30 55 H -1.891291 -4.174642 -5.801879 0
M  V30 56 H -1.221434 -2.636880 -5.103519 0
M  V30 57 H -2.147974 -4.340031 -3.456771 0
M  V30 58 H -3.801334 -3.933539 -4.197382 0
M  V30 59 H -1.629991 -4.118375 -1.573371 0
M  V30 60 H -0.321021 -3.571629 0.315823 0
M  V30 61 H -0.530819 -3.344945 1.877971 0
M  V30 62 H 0.698777 -2.690033 3.058762 0
M  V30 63 H -2.759318 -1.838202 1.591662 0
M  V30 64 H -4.533104 -0.923059 2.924390 0
M  V30 65 H -4.234882 -0.448503 5.245030 0
M  V30 66 H -2.088537 -0.893656 6.313153 0
M  V30 67 H -1.098851 -3.782384 5.990352 0
M  V30 68 H 0.705067 -4.685343 7.305711 0
M  V30 69 H 3.194330 -1.491664 6.163346 0
M  V30 70 H 1.380380 -0.586659 4.880541 0
M  V30 END ATOM
M  V30 BEGIN BOND
M  V30 1 2 1 2
M  V30 2 1 2 3
M  V30 3 1 3 4
M  V30 4 1 4 5
M  V30 5 1 5 6
M  V30 6 2 6 7
M  V30 7 1 7 8
M  V30 8 2 8 9
M  V30 9 1 9 10
M  V30 10 1 9 11
M  V30 11 2 11 12
M  V30 12 2 5 13
M  V30 13 1 13 14
M  V30 14 1 14 15
M  V30 15 1 15 16
M  V30 16 2 16 17
M  V30 17 1 17 18
M  V30 18 1 18 19
M  V30 19 1 19 20
M  V30 20 1 20 21
M  V30 21 1 21 22
M  V30 22 1 22 23
M  V30 23 1 23 24
M  V30 24 2 18 25
M  V30 25 1 25 26
M  V30 26 2 26 27
M  V30 27 1 27 28
M  V30 28 1 28 29
M  V30 29 1 29 30
M  V30 30 2 30 31
M  V30 31 1 31 32
M  V30 32 2 32 33
M  V30 33 1 33 34
M  V30 34 2 34 35
M  V30 35 1 35 36
M  V30 36 2 36 37
M  V30 37 1 37 38
M  V30 38 2 38 39
M  V30 39 1 39 40
M  V30 40 2 40 41
M  V30 41 1 28 2
M  V30 42 1 35 30
M  V30 43 1 41 36
M  V30 44 2 14 3
M  V30 45 1 27 16
M  V30 46 1 12 6
M  V30 47 1 24 19
M  V30 48 1 7 42
M  V30 49 1 8 43
M  V30 50 1 11 44
M  V30 51 1 12 45
M  V30 52 1 13 46
M  V30 53 1 15 47
M  V30 54 1 15 48
M  V30 55 1 17 49
M  V30 56 1 20 50
M  V30 57 1 20 51
M  V30 58 1 21 52
M  V30 59 1 21 53
M  V30 60 1 22 54
M  V30 61 1 23 55
M  V30 62 1 23 56
M  V30 63 1 24 57
M  V30 64 1 24 58
M  V30 65 1 25 59
M  V30 66 1 26 60
M  V30 67 1 29 61
M  V30 68 1 29 62
M  V30 69 1 31 63
M  V30 70 1 32 64
M  V30 71 1 33 65
M  V30 72 1 34 66
M  V30 73 1 37 67
M  V30 74 1 38 68
M  V30 75 1 40 69
M  V30 76 1 41 70
M  V30 END BOND
M  V30 END CTAB
M  END
>  <Dataset>  (734) 
ChEMBL_Kinases

>  <Ligand_Instance>  (734) 
nan

>  <PDB_ID>  (734) 
nan

>  <Standardized_SMILES>  (734) 
O=C1c2oc(-c3ccc(Cl)cc3)cc2Cc2cc(N3CCNCC3)ccc2N1Cc1ccccc1-c1ccncc1

>  <Name>  (734) 
nan

>  <Pocket>  (734) 
nan

>  <ATP_Site>  (734) 
nan

>  <Peripheral>  (734) 
nan

>  <Num_H_Atoms_ProtBoundConf>  (734) 
nan

>  <Num_Resolved_Atoms>  (734) 
nan

>  <Num_Not_Resolved_Atoms>  (734) 
nan

$$$$
CHEMBL2385540
     RDKit          3D

  0  0  0  0  0  0  0  0  0  0999 V3000
M  V30 BEGIN CTAB
M  V30 COUNTS 71 77 0 0 0
M  V30 BEGIN ATOM
M  V30 1 N 8.696820 -5.610739 -4.922199 0
M  V30 2 C 7.766635 -5.066537 -4.478771 0
M  V30 3 C 6.620655 -4.373682 -3.911155 0
M  V30 4 C 6.880429 -3.188997 -3.239140 0
M  V30 5 C 5.798241 -2.516483 -2.693071 0
M  V30 6 C 4.508676 -3.000775 -2.809617 0
M  V30 7 C 3.362167 -2.270537 -2.221427 0
M  V30 8 C 3.406028 -1.089249 -1.514288 0
M  V30 9 C 2.106542 -0.726150 -1.128043 0
M  V30 10 C 1.345699 -1.756046 -1.651919 0
M  V30 11 O 2.096241 -2.641475 -2.282668 0
M  V30 12 C -0.105347 -1.817606 -1.503046 0
M  V30 13 O -0.650665 -2.693580 -2.213047 0
M  V30 14 N -0.982340 -1.028150 -0.670304 0
M  V30 15 C -2.391153 -1.303197 -0.913139 0
M  V30 16 C -2.875225 -2.397637 -0.032363 0
M  V30 17 C -1.933737 -3.159486 0.673960 0
M  V30 18 C -2.209668 -4.203300 1.530976 0
M  V30 19 C -3.536700 -4.530952 1.712211 0
M  V30 20 C -4.500208 -3.810428 1.039181 0
M  V30 21 C -4.182872 -2.759693 0.179366 0
M  V30 22 C -5.253945 -2.048293 -0.495507 0
M  V30 23 C -5.513320 -1.690361 -1.798264 0
M  V30 24 N -6.623049 -0.999671 -2.103925 0
M  V30 25 C -7.547158 -0.604459 -1.232896 0
M  V30 26 C -7.350075 -0.930100 0.091348 0
M  V30 27 F -8.295560 -0.524095 0.969989 0
M  V30 28 C -6.210069 -1.646566 0.450183 0
M  V30 29 C -0.517511 -0.087198 0.280693 0
M  V30 30 C -1.544843 0.140757 1.169388 0
M  V30 31 C -1.365826 1.019009 2.213262 0
M  V30 32 C -0.189136 1.718635 2.449717 0
M  V30 33 N 0.004042 2.620734 3.513332 0
M  V30 34 C 1.285984 3.196358 3.901721 0
M  V30 35 C 1.075581 4.694588 4.028156 0
M  V30 36 N -0.134589 5.115174 3.330785 0
M  V30 37 C -1.317389 4.558219 3.967279 0
M  V30 38 C -1.063228 3.102182 4.363982 0
M  V30 39 C 0.791068 1.440175 1.521355 0
M  V30 40 C 0.680584 0.567216 0.444181 0
M  V30 41 C 1.916402 0.506259 -0.362448 0
M  V30 42 C 4.263555 -4.181012 -3.480873 0
M  V30 43 C 5.342487 -4.871438 -4.036964 0
M  V30 44 H 7.864970 -2.759956 -3.115174 0
M  V30 45 H 5.895534 -1.571639 -2.142636 0
M  V30 46 H 4.336370 -0.552426 -1.309797 0
M  V30 47 H -2.486333 -1.681231 -1.966103 0
M  V30 48 H -3.061266 -0.444896 -0.743840 0
M  V30 49 H -0.886372 -2.915785 0.545397 0
M  V30 50 H -1.391070 -4.723151 2.025576 0
M  V30 51 H -3.757740 -5.344271 2.379895 0
M  V30 52 H -5.548996 -4.051322 1.167821 0
M  V30 53 H -4.740540 -2.042469 -2.453844 0
M  V30 54 H -8.397156 -0.048990 -1.633114 0
M  V30 55 H -6.193227 -1.829467 1.533375 0
M  V30 56 H -2.493198 -0.347576 1.080387 0
M  V30 57 H -2.202516 1.164834 2.885676 0
M  V30 58 H 2.120101 2.939714 3.256496 0
M  V30 59 H 1.552585 2.833716 4.943584 0
M  V30 60 H 1.935897 5.221428 3.566862 0
M  V30 61 H 0.925302 4.994700 5.097871 0
M  V30 62 H -0.191703 6.152916 3.437289 0
M  V30 63 H -1.611788 5.166658 4.832860 0
M  V30 64 H -2.131485 4.538337 3.209311 0
M  V30 65 H -0.706448 3.032050 5.428878 0
M  V30 66 H -1.983840 2.512523 4.337933 0
M  V30 67 H 1.760480 1.916409 1.581540 0
M  V30 68 H 2.764907 0.574735 0.381329 0
M  V30 69 H 2.050102 1.409335 -0.998960 0
M  V30 70 H 3.284343 -4.617905 -3.609619 0
M  V30 71 H 5.276139 -5.807112 -4.585384 0
M  V30 END ATOM
M  V30 BEGIN BOND
M  V30 1 3 1 2
M  V30 2 1 2 3
M  V30 3 2 3 4
M  V30 4 1 4 5
M  V30 5 2 5 6
M  V30 6 1 6 7
M  V30 7 2 7 8
M  V30 8 1 8 9
M  V30 9 2 9 10
M  V30 10 1 10 11
M  V30 11 1 10 12
M  V30 12 2 12 13
M  V30 13 1 12 14
M  V30 14 1 14 15
M  V30 15 1 15 16
M  V30 16 2 16 17
M  V30 17 1 17 18
M  V30 18 2 18 19
M  V30 19 1 19 20
M  V30 20 2 20 21
M  V30 21 1 21 22
M  V30 22 2 22 23
M  V30 23 1 23 24
M  V30 24 2 24 25
M  V30 25 1 25 26
M  V30 26 1 26 27
M  V30 27 2 26 28
M  V30 28 1 14 29
M  V30 29 2 29 30
M  V30 30 1 30 31
M  V30 31 2 31 32
M  V30 32 1 32 33
M  V30 33 1 33 34
M  V30 34 1 34 35
M  V30 35 1 35 36
M  V30 36 1 36 37
M  V30 37 1 37 38
M  V30 38 1 32 39
M  V30 39 2 39 40
M  V30 40 1 40 41
M  V30 41 1 6 42
M  V30 42 2 42 43
M  V30 43 1 43 3
M  V30 44 1 11 7
M  V30 45 1 21 16
M  V30 46 1 28 22
M  V30 47 1 40 29
M  V30 48 1 41 9
M  V30 49 1 38 33
M  V30 50 1 4 44
M  V30 51 1 5 45
M  V30 52 1 8 46
M  V30 53 1 15 47
M  V30 54 1 15 48
M  V30 55 1 17 49
M  V30 56 1 18 50
M  V30 57 1 19 51
M  V30 58 1 20 52
M  V30 59 1 23 53
M  V30 60 1 25 54
M  V30 61 1 28 55
M  V30 62 1 30 56
M  V30 63 1 31 57
M  V30 64 1 34 58
M  V30 65 1 34 59
M  V30 66 1 35 60
M  V30 67 1 35 61
M  V30 68 1 36 62
M  V30 69 1 37 63
M  V30 70 1 37 64
M  V30 71 1 38 65
M  V30 72 1 38 66
M  V30 73 1 39 67
M  V30 74 1 41 68
M  V30 75 1 41 69
M  V30 76 1 42 70
M  V30 77 1 43 71
M  V30 END BOND
M  V30 END CTAB
M  END
>  <Dataset>  (735) 
ChEMBL_Kinases

>  <Ligand_Instance>  (735) 
nan

>  <PDB_ID>  (735) 
nan

>  <Standardized_SMILES>  (735) 
N#Cc1ccc(-c2cc3c(o2)C(=O)N(Cc2ccccc2-c2cncc(F)c2)c2ccc(N4CCNCC4)cc2C3)cc1

>  <Name>  (735) 
nan

>  <Pocket>  (735) 
nan

>  <ATP_Site>  (735) 
nan

>  <Peripheral>  (735) 
nan

>  <Num_H_Atoms_ProtBoundConf>  (735) 
nan

>  <Num_Resolved_Atoms>  (735) 
nan

>  <Num_Not_Resolved_Atoms>  (735) 
nan

$$$$
CHEMBL2385532
     RDKit          3D

  0  0  0  0  0  0  0  0  0  0999 V3000
M  V30 BEGIN CTAB
M  V30 COUNTS 55 59 0 0 0
M  V30 BEGIN ATOM
M  V30 1 C 2.269240 -4.654352 3.248374 0
M  V30 2 C 2.644292 -3.655506 2.490716 0
M  V30 3 C 2.899549 -3.092549 1.129648 0
M  V30 4 N 2.096355 -1.940837 0.849095 0
M  V30 5 C 2.679813 -0.671815 1.223906 0
M  V30 6 O 3.859496 -0.783655 1.701146 0
M  V30 7 C 2.188142 0.693138 1.163288 0
M  V30 8 O 2.674205 1.738723 1.775578 0
M  V30 9 C 1.947977 2.811219 1.468003 0
M  V30 10 C 2.226420 4.147213 1.988346 0
M  V30 11 C 3.298470 4.299572 2.842862 0
M  V30 12 C 3.551099 5.586931 3.331175 0
M  V30 13 C 2.723751 6.642101 2.940636 0
M  V30 14 Cl 2.955000 8.283176 3.493647 0
M  V30 15 C 1.658241 6.426017 2.076520 0
M  V30 16 C 1.393013 5.168358 1.585405 0
M  V30 17 C 0.946636 2.405514 0.609664 0
M  V30 18 C 1.089094 1.027281 0.400800 0
M  V30 19 C 0.141453 0.352627 -0.480492 0
M  V30 20 C 0.007485 -1.093738 -0.305956 0
M  V30 21 C -1.223676 -1.496657 -0.838986 0
M  V30 22 C -1.658605 -2.801302 -0.837461 0
M  V30 23 N -2.906564 -3.118108 -1.392512 0
M  V30 24 C -3.726783 -2.070002 -1.939301 0
M  V30 25 C -5.034167 -2.648140 -2.374815 0
M  V30 26 N -5.692135 -3.399051 -1.314612 0
M  V30 27 C -4.825241 -4.442265 -0.796945 0
M  V30 28 C -3.476856 -4.436907 -1.477402 0
M  V30 29 C -0.793251 -3.706051 -0.268805 0
M  V30 30 C 0.427523 -3.357113 0.268014 0
M  V30 31 C 0.814765 -2.046979 0.242494 0
M  V30 32 H 2.092196 -5.037672 4.246326 0
M  V30 33 H 2.000665 -5.526086 2.659087 0
M  V30 34 H 2.842146 -2.952790 3.317435 0
M  V30 35 H 3.970661 -2.727841 1.221847 0
M  V30 36 H 3.002674 -3.834255 0.331739 0
M  V30 37 H 3.947908 3.501242 3.156292 0
M  V30 38 H 4.382344 5.801867 4.015887 0
M  V30 39 H 0.989107 7.226599 1.748333 0
M  V30 40 H 0.559992 5.000732 0.910004 0
M  V30 41 H 0.217444 3.068377 0.205830 0
M  V30 42 H 0.339377 0.562973 -1.557937 0
M  V30 43 H -0.884560 0.781327 -0.281201 0
M  V30 44 H -1.874860 -0.749260 -1.277497 0
M  V30 45 H -3.227938 -1.640689 -2.826092 0
M  V30 46 H -3.855730 -1.244281 -1.198119 0
M  V30 47 H -4.923030 -3.235213 -3.289533 0
M  V30 48 H -5.720193 -1.775261 -2.577127 0
M  V30 49 H -6.514322 -3.849306 -1.732239 0
M  V30 50 H -4.745622 -4.292671 0.297702 0
M  V30 51 H -5.250002 -5.455337 -0.951549 0
M  V30 52 H -3.652211 -4.653742 -2.554112 0
M  V30 53 H -2.882334 -5.222981 -1.017467 0
M  V30 54 H -1.070641 -4.749185 -0.233468 0
M  V30 55 H 1.047269 -4.104325 0.691077 0
M  V30 END ATOM
M  V30 BEGIN BOND
M  V30 1 2 1 2
M  V30 2 1 2 3
M  V30 3 1 3 4
M  V30 4 1 4 5
M  V30 5 2 5 6
M  V30 6 1 5 7
M  V30 7 1 7 8
M  V30 8 1 8 9
M  V30 9 1 9 10
M  V30 10 2 10 11
M  V30 11 1 11 12
M  V30 12 2 12 13
M  V30 13 1 13 14
M  V30 14 1 13 15
M  V30 15 2 15 16
M  V30 16 2 9 17
M  V30 17 1 17 18
M  V30 18 1 18 19
M  V30 19 1 19 20
M  V30 20 2 20 21
M  V30 21 1 21 22
M  V30 22 1 22 23
M  V30 23 1 23 24
M  V30 24 1 24 25
M  V30 25 1 25 26
M  V30 26 1 26 27
M  V30 27 1 27 28
M  V30 28 2 22 29
M  V30 29 1 29 30
M  V30 30 2 30 31
M  V30 31 1 31 4
M  V30 32 2 18 7
M  V30 33 1 31 20
M  V30 34 1 16 10
M  V30 35 1 28 23
M  V30 36 1 1 32
M  V30 37 1 1 33
M  V30 38 1 2 34
M  V30 39 1 3 35
M  V30 40 1 3 36
M  V30 41 1 11 37
M  V30 42 1 12 38
M  V30 43 1 15 39
M  V30 44 1 16 40
M  V30 45 1 17 41
M  V30 46 1 19 42
M  V30 47 1 19 43
M  V30 48 1 21 44
M  V30 49 1 24 45
M  V30 50 1 24 46
M  V30 51 1 25 47
M  V30 52 1 25 48
M  V30 53 1 26 49
M  V30 54 1 27 50
M  V30 55 1 27 51
M  V30 56 1 28 52
M  V30 57 1 28 53
M  V30 58 1 29 54
M  V30 59 1 30 55
M  V30 END BOND
M  V30 END CTAB
M  END
>  <Dataset>  (736) 
ChEMBL_Kinases

>  <Ligand_Instance>  (736) 
nan

>  <PDB_ID>  (736) 
nan

>  <Standardized_SMILES>  (736) 
C=CCN1C(=O)c2oc(-c3ccc(Cl)cc3)cc2Cc2cc(N3CCNCC3)ccc21

>  <Name>  (736) 
nan

>  <Pocket>  (736) 
nan

>  <ATP_Site>  (736) 
nan

>  <Peripheral>  (736) 
nan

>  <Num_H_Atoms_ProtBoundConf>  (736) 
nan

>  <Num_Resolved_Atoms>  (736) 
nan

>  <Num_Not_Resolved_Atoms>  (736) 
nan

$$$$
CHEMBL2385533
     RDKit          3D

  0  0  0  0  0  0  0  0  0  0999 V3000
M  V30 BEGIN CTAB
M  V30 COUNTS 58 63 0 0 0
M  V30 BEGIN ATOM
M  V30 1 O 2.819547 -2.183927 -1.947451 0
M  V30 2 C 1.927097 -1.633265 -1.253367 0
M  V30 3 C 2.385772 -0.408003 -0.611811 0
M  V30 4 O 3.597531 0.083672 -0.660427 0
M  V30 5 C 3.644841 1.214436 0.043328 0
M  V30 6 C 4.813101 2.070023 0.238444 0
M  V30 7 C 4.716857 3.230710 1.002458 0
M  V30 8 C 5.863486 4.016373 1.159929 0
M  V30 9 C 7.064734 3.635778 0.562482 0
M  V30 10 Cl 8.468239 4.661226 0.796102 0
M  V30 11 C 7.149183 2.480261 -0.194654 0
M  V30 12 C 6.012148 1.712748 -0.343571 0
M  V30 13 C 2.381054 1.442387 0.564377 0
M  V30 14 C 1.555269 0.392733 0.143685 0
M  V30 15 C 0.161523 0.384199 0.552909 0
M  V30 16 C -0.544832 -0.887270 0.496731 0
M  V30 17 C -1.615236 -0.866725 1.402548 0
M  V30 18 C -2.480864 -1.947038 1.571292 0
M  V30 19 N -3.554518 -1.902797 2.492068 0
M  V30 20 C -3.718366 -0.685751 3.254655 0
M  V30 21 C -5.007364 -0.710955 4.059196 0
M  V30 22 N -6.033076 -1.485983 3.354418 0
M  V30 23 C -5.636406 -2.861240 3.410083 0
M  V30 24 C -4.400123 -3.077461 2.596107 0
M  V30 25 C -2.221838 -3.070681 0.777076 0
M  V30 26 C -1.162826 -3.060291 -0.103289 0
M  V30 27 C -0.323668 -2.013820 -0.267035 0
M  V30 28 N 0.658045 -2.339999 -1.252715 0
M  V30 29 C 0.441492 -3.340482 -2.244568 0
M  V30 30 C -0.178118 -2.863495 -3.530989 0
M  V30 31 C -1.535487 -2.213392 -3.485719 0
M  V30 32 C -0.270249 -1.471999 -3.937763 0
M  V30 33 H 3.773607 3.489282 1.446386 0
M  V30 34 H 5.774284 4.918189 1.757577 0
M  V30 35 H 8.119458 2.243430 -0.632913 0
M  V30 36 H 6.142882 0.833227 -0.939538 0
M  V30 37 H 2.141747 2.294433 1.177006 0
M  V30 38 H -0.386994 1.169480 -0.045871 0
M  V30 39 H 0.083984 0.762909 1.609213 0
M  V30 40 H -1.773556 0.039010 2.000437 0
M  V30 41 H -3.722379 0.201235 2.568746 0
M  V30 42 H -2.865021 -0.577206 3.943012 0
M  V30 43 H -4.874141 -1.212832 5.042892 0
M  V30 44 H -5.440383 0.291108 4.223013 0
M  V30 45 H -6.902753 -1.381755 3.936405 0
M  V30 46 H -5.403347 -3.117028 4.465155 0
M  V30 47 H -6.467875 -3.501376 3.040835 0
M  V30 48 H -3.828215 -3.972011 2.921504 0
M  V30 49 H -4.741468 -3.302397 1.548682 0
M  V30 50 H -2.891217 -3.906124 0.907517 0
M  V30 51 H -1.061948 -3.946667 -0.651015 0
M  V30 52 H 1.527211 -3.542212 -2.614658 0
M  V30 53 H 0.179848 -4.346469 -1.951647 0
M  V30 54 H -0.077508 -3.606941 -4.356009 0
M  V30 55 H -2.011973 -1.904708 -2.561365 0
M  V30 56 H -2.270023 -2.444686 -4.288216 0
M  V30 57 H -0.015241 -0.610284 -3.293488 0
M  V30 58 H -0.241321 -1.207429 -5.010919 0
M  V30 END ATOM
M  V30 BEGIN BOND
M  V30 1 2 1 2
M  V30 2 1 2 3
M  V30 3 1 3 4
M  V30 4 1 4 5
M  V30 5 1 5 6
M  V30 6 2 6 7
M  V30 7 1 7 8
M  V30 8 2 8 9
M  V30 9 1 9 10
M  V30 10 1 9 11
M  V30 11 2 11 12
M  V30 12 2 5 13
M  V30 13 1 13 14
M  V30 14 1 14 15
M  V30 15 1 15 16
M  V30 16 2 16 17
M  V30 17 1 17 18
M  V30 18 1 18 19
M  V30 19 1 19 20
M  V30 20 1 20 21
M  V30 21 1 21 22
M  V30 22 1 22 23
M  V30 23 1 23 24
M  V30 24 2 18 25
M  V30 25 1 25 26
M  V30 26 2 26 27
M  V30 27 1 27 28
M  V30 28 1 28 29
M  V30 29 1 29 30
M  V30 30 1 30 31
M  V30 31 1 31 32
M  V30 32 1 28 2
M  V30 33 1 32 30
M  V30 34 2 14 3
M  V30 35 1 27 16
M  V30 36 1 12 6
M  V30 37 1 24 19
M  V30 38 1 7 33
M  V30 39 1 8 34
M  V30 40 1 11 35
M  V30 41 1 12 36
M  V30 42 1 13 37
M  V30 43 1 15 38
M  V30 44 1 15 39
M  V30 45 1 17 40
M  V30 46 1 20 41
M  V30 47 1 20 42
M  V30 48 1 21 43
M  V30 49 1 21 44
M  V30 50 1 22 45
M  V30 51 1 23 46
M  V30 52 1 23 47
M  V30 53 1 24 48
M  V30 54 1 24 49
M  V30 55 1 25 50
M  V30 56 1 26 51
M  V30 57 1 29 52
M  V30 58 1 29 53
M  V30 59 1 30 54
M  V30 60 1 31 55
M  V30 61 1 31 56
M  V30 62 1 32 57
M  V30 63 1 32 58
M  V30 END BOND
M  V30 END CTAB
M  END
>  <Dataset>  (737) 
ChEMBL_Kinases

>  <Ligand_Instance>  (737) 
nan

>  <PDB_ID>  (737) 
nan

>  <Standardized_SMILES>  (737) 
O=C1c2oc(-c3ccc(Cl)cc3)cc2Cc2cc(N3CCNCC3)ccc2N1CC1CC1

>  <Name>  (737) 
nan

>  <Pocket>  (737) 
nan

>  <ATP_Site>  (737) 
nan

>  <Peripheral>  (737) 
nan

>  <Num_H_Atoms_ProtBoundConf>  (737) 
nan

>  <Num_Resolved_Atoms>  (737) 
nan

>  <Num_Not_Resolved_Atoms>  (737) 
nan

$$$$
CHEMBL2385534
     RDKit          3D

  0  0  0  0  0  0  0  0  0  0999 V3000
M  V30 BEGIN CTAB
M  V30 COUNTS 54 58 0 0 0
M  V30 BEGIN ATOM
M  V30 1 O 2.609693 -3.427591 -1.100706 0
M  V30 2 C 1.778313 -2.528668 -0.751058 0
M  V30 3 C 2.388963 -1.238892 -0.424869 0
M  V30 4 O 3.521264 -0.787797 -0.910949 0
M  V30 5 C 3.764124 0.416500 -0.392955 0
M  V30 6 C 4.932308 1.261053 -0.681469 0
M  V30 7 C 5.035824 2.485877 -0.060868 0
M  V30 8 C 6.109076 3.321467 -0.292424 0
M  V30 9 C 7.059109 2.852990 -1.176235 0
M  V30 10 Cl 8.430949 3.925451 -1.469742 0
M  V30 11 C 6.983525 1.631743 -1.813073 0
M  V30 12 C 5.884257 0.802845 -1.560763 0
M  V30 13 C 2.720531 0.717240 0.457653 0
M  V30 14 C 1.809823 -0.347714 0.454195 0
M  V30 15 C 0.592168 -0.335144 1.259486 0
M  V30 16 C -0.523477 -1.140949 0.791370 0
M  V30 17 C -1.683100 -0.607046 1.368774 0
M  V30 18 C -2.931775 -1.143924 1.134293 0
M  V30 19 N -4.099279 -0.605331 1.716375 0
M  V30 20 C -3.949683 0.540371 2.577247 0
M  V30 21 C -5.219783 0.955094 3.259883 0
M  V30 22 N -5.990975 -0.267056 3.513628 0
M  V30 23 C -6.508681 -0.660782 2.207243 0
M  V30 24 C -5.372295 -1.226031 1.420791 0
M  V30 25 C -2.983975 -2.255313 0.285917 0
M  V30 26 C -1.818832 -2.754172 -0.265323 0
M  V30 27 C -0.586613 -2.236634 -0.043579 0
M  V30 28 N 0.397091 -2.969341 -0.748684 0
M  V30 29 C 0.068261 -4.152175 -1.467250 0
M  V30 30 C 0.162219 -5.417543 -0.652096 0
M  V30 31 F 1.468951 -5.603340 -0.169744 0
M  V30 32 F -0.604456 -5.402549 0.495398 0
M  V30 33 H 4.284002 2.848640 0.634071 0
M  V30 34 H 6.205948 4.283757 0.185001 0
M  V30 35 H 7.763117 1.325262 -2.494527 0
M  V30 36 H 5.788672 -0.161350 -2.040098 0
M  V30 37 H 2.662926 1.644723 1.016355 0
M  V30 38 H 0.248881 0.741805 1.291081 0
M  V30 39 H 0.874619 -0.555654 2.329450 0
M  V30 40 H -1.650400 0.259206 2.031224 0
M  V30 41 H -3.559779 1.441738 2.038193 0
M  V30 42 H -3.195125 0.325974 3.376620 0
M  V30 43 H -4.998275 1.477770 4.206259 0
M  V30 44 H -5.791679 1.572131 2.539756 0
M  V30 45 H -5.276024 -0.989653 3.769831 0
M  V30 46 H -7.332712 -1.392723 2.292387 0
M  V30 47 H -6.830139 0.291704 1.706477 0
M  V30 48 H -5.329090 -2.324133 1.641495 0
M  V30 49 H -5.637908 -1.151869 0.334653 0
M  V30 50 H -3.977236 -2.654821 0.120689 0
M  V30 51 H -1.988280 -3.589039 -0.881272 0
M  V30 52 H -0.728054 -4.112420 -2.212954 0
M  V30 53 H 0.961762 -4.283834 -2.182929 0
M  V30 54 H -0.047791 -6.323305 -1.253525 0
M  V30 END ATOM
M  V30 BEGIN BOND
M  V30 1 2 1 2
M  V30 2 1 2 3
M  V30 3 1 3 4
M  V30 4 1 4 5
M  V30 5 1 5 6
M  V30 6 2 6 7
M  V30 7 1 7 8
M  V30 8 2 8 9
M  V30 9 1 9 10
M  V30 10 1 9 11
M  V30 11 2 11 12
M  V30 12 2 5 13
M  V30 13 1 13 14
M  V30 14 1 14 15
M  V30 15 1 15 16
M  V30 16 2 16 17
M  V30 17 1 17 18
M  V30 18 1 18 19
M  V30 19 1 19 20
M  V30 20 1 20 21
M  V30 21 1 21 22
M  V30 22 1 22 23
M  V30 23 1 23 24
M  V30 24 2 18 25
M  V30 25 1 25 26
M  V30 26 2 26 27
M  V30 27 1 27 28
M  V30 28 1 28 29
M  V30 29 1 29 30
M  V30 30 1 30 31
M  V30 31 1 30 32
M  V30 32 1 28 2
M  V30 33 2 14 3
M  V30 34 1 27 16
M  V30 35 1 12 6
M  V30 36 1 24 19
M  V30 37 1 7 33
M  V30 38 1 8 34
M  V30 39 1 11 35
M  V30 40 1 12 36
M  V30 41 1 13 37
M  V30 42 1 15 38
M  V30 43 1 15 39
M  V30 44 1 17 40
M  V30 45 1 20 41
M  V30 46 1 20 42
M  V30 47 1 21 43
M  V30 48 1 21 44
M  V30 49 1 22 45
M  V30 50 1 23 46
M  V30 51 1 23 47
M  V30 52 1 24 48
M  V30 53 1 24 49
M  V30 54 1 25 50
M  V30 55 1 26 51
M  V30 56 1 29 52
M  V30 57 1 29 53
M  V30 58 1 30 54
M  V30 END BOND
M  V30 END CTAB
M  END
>  <Dataset>  (738) 
ChEMBL_Kinases

>  <Ligand_Instance>  (738) 
nan

>  <PDB_ID>  (738) 
nan

>  <Standardized_SMILES>  (738) 
O=C1c2oc(-c3ccc(Cl)cc3)cc2Cc2cc(N3CCNCC3)ccc2N1CC(F)F

>  <Name>  (738) 
nan

>  <Pocket>  (738) 
nan

>  <ATP_Site>  (738) 
nan

>  <Peripheral>  (738) 
nan

>  <Num_H_Atoms_ProtBoundConf>  (738) 
nan

>  <Num_Resolved_Atoms>  (738) 
nan

>  <Num_Not_Resolved_Atoms>  (738) 
nan

$$$$
CHEMBL2385535
     RDKit          3D

  0  0  0  0  0  0  0  0  0  0999 V3000
M  V30 BEGIN CTAB
M  V30 COUNTS 60 65 0 0 0
M  V30 BEGIN ATOM
M  V30 1 O 3.269155 -2.719671 0.227352 0
M  V30 2 C 2.202305 -2.048666 0.401428 0
M  V30 3 C 2.408197 -0.773540 1.080486 0
M  V30 4 O 3.498614 -0.043376 1.032336 0
M  V30 5 C 3.336694 1.047093 1.764546 0
M  V30 6 C 4.348752 2.084895 1.937573 0
M  V30 7 C 5.553937 1.911889 1.291545 0
M  V30 8 C 6.550724 2.847138 1.409441 0
M  V30 9 C 6.335938 3.985114 2.194211 0
M  V30 10 Cl 7.584041 5.196503 2.366243 0
M  V30 11 C 5.107678 4.093295 2.811395 0
M  V30 12 C 4.074457 3.183463 2.725243 0
M  V30 13 C 2.058136 0.997731 2.309003 0
M  V30 14 C 1.455599 -0.171419 1.872621 0
M  V30 15 C 0.108168 -0.522209 2.268315 0
M  V30 16 C -0.666838 -1.419994 1.435737 0
M  V30 17 C -2.027936 -1.305833 1.752361 0
M  V30 18 C -3.006960 -2.021032 1.145327 0
M  V30 19 N -4.384940 -1.891327 1.474788 0
M  V30 20 C -4.939131 -0.939940 2.414173 0
M  V30 21 C -5.909700 -0.056143 1.618192 0
M  V30 22 N -7.027018 -0.878733 1.190560 0
M  V30 23 C -6.515593 -1.839502 0.242778 0
M  V30 24 C -5.456887 -2.683190 0.934442 0
M  V30 25 C -2.578179 -2.893993 0.169302 0
M  V30 26 C -1.245597 -3.027937 -0.163859 0
M  V30 27 C -0.281299 -2.305075 0.453157 0
M  V30 28 N 0.981705 -2.652619 -0.095835 0
M  V30 29 C 1.164686 -3.596534 -1.154194 0
M  V30 30 C 1.144424 -2.999192 -2.519631 0
M  V30 31 C 2.328303 -2.523703 -3.107025 0
M  V30 32 C 2.457197 -1.955940 -4.347737 0
M  V30 33 C 1.306809 -1.838888 -5.097645 0
M  V30 34 C 0.161880 -2.314027 -4.494726 0
M  V30 35 N 0.074427 -2.863361 -3.278640 0
M  V30 36 H 5.756719 1.032331 0.668479 0
M  V30 37 H 7.499737 2.714501 0.902896 0
M  V30 38 H 4.998372 5.000729 3.409325 0
M  V30 39 H 3.135093 3.334543 3.238592 0
M  V30 40 H 1.647846 1.766399 2.958129 0
M  V30 41 H 0.185897 -1.009295 3.285948 0
M  V30 42 H -0.541923 0.378364 2.481511 0
M  V30 43 H -2.279084 -0.601822 2.527048 0
M  V30 44 H -5.501502 -1.471841 3.225689 0
M  V30 45 H -4.218874 -0.265242 2.871315 0
M  V30 46 H -5.376989 0.290542 0.728014 0
M  V30 47 H -6.302532 0.781194 2.224009 0
M  V30 48 H -7.724677 -0.244336 0.741509 0
M  V30 49 H -6.140053 -1.298525 -0.626809 0
M  V30 50 H -7.357404 -2.531012 0.018468 0
M  V30 51 H -5.158697 -3.546754 0.335018 0
M  V30 52 H -6.004708 -3.133855 1.817129 0
M  V30 53 H -3.295517 -3.512471 -0.376655 0
M  V30 54 H -1.013352 -3.721042 -0.921470 0
M  V30 55 H 0.684957 -4.576317 -1.058962 0
M  V30 56 H 2.257949 -3.928122 -1.058955 0
M  V30 57 H 3.251053 -2.612065 -2.518533 0
M  V30 58 H 3.421673 -1.624820 -4.697993 0
M  V30 59 H 1.325944 -1.402611 -6.084561 0
M  V30 60 H -0.764997 -2.224717 -5.087536 0
M  V30 END ATOM
M  V30 BEGIN BOND
M  V30 1 2 1 2
M  V30 2 1 2 3
M  V30 3 1 3 4
M  V30 4 1 4 5
M  V30 5 1 5 6
M  V30 6 2 6 7
M  V30 7 1 7 8
M  V30 8 2 8 9
M  V30 9 1 9 10
M  V30 10 1 9 11
M  V30 11 2 11 12
M  V30 12 2 5 13
M  V30 13 1 13 14
M  V30 14 1 14 15
M  V30 15 1 15 16
M  V30 16 2 16 17
M  V30 17 1 17 18
M  V30 18 1 18 19
M  V30 19 1 19 20
M  V30 20 1 20 21
M  V30 21 1 21 22
M  V30 22 1 22 23
M  V30 23 1 23 24
M  V30 24 2 18 25
M  V30 25 1 25 26
M  V30 26 2 26 27
M  V30 27 1 27 28
M  V30 28 1 28 29
M  V30 29 1 29 30
M  V30 30 2 30 31
M  V30 31 1 31 32
M  V30 32 2 32 33
M  V30 33 1 33 34
M  V30 34 2 34 35
M  V30 35 1 28 2
M  V30 36 1 35 30
M  V30 37 2 14 3
M  V30 38 1 27 16
M  V30 39 1 12 6
M  V30 40 1 24 19
M  V30 41 1 7 36
M  V30 42 1 8 37
M  V30 43 1 11 38
M  V30 44 1 12 39
M  V30 45 1 13 40
M  V30 46 1 15 41
M  V30 47 1 15 42
M  V30 48 1 17 43
M  V30 49 1 20 44
M  V30 50 1 20 45
M  V30 51 1 21 46
M  V30 52 1 21 47
M  V30 53 1 22 48
M  V30 54 1 23 49
M  V30 55 1 23 50
M  V30 56 1 24 51
M  V30 57 1 24 52
M  V30 58 1 25 53
M  V30 59 1 26 54
M  V30 60 1 29 55
M  V30 61 1 29 56
M  V30 62 1 31 57
M  V30 63 1 32 58
M  V30 64 1 33 59
M  V30 65 1 34 60
M  V30 END BOND
M  V30 END CTAB
M  END
>  <Dataset>  (739) 
ChEMBL_Kinases

>  <Ligand_Instance>  (739) 
nan

>  <PDB_ID>  (739) 
nan

>  <Standardized_SMILES>  (739) 
O=C1c2oc(-c3ccc(Cl)cc3)cc2Cc2cc(N3CCNCC3)ccc2N1Cc1ccccn1

>  <Name>  (739) 
nan

>  <Pocket>  (739) 
nan

>  <ATP_Site>  (739) 
nan

>  <Peripheral>  (739) 
nan

>  <Num_H_Atoms_ProtBoundConf>  (739) 
nan

>  <Num_Resolved_Atoms>  (739) 
nan

>  <Num_Not_Resolved_Atoms>  (739) 
nan

$$$$
CHEMBL2385536
     RDKit          3D

  0  0  0  0  0  0  0  0  0  0999 V3000
M  V30 BEGIN CTAB
M  V30 COUNTS 61 66 0 0 0
M  V30 BEGIN ATOM
M  V30 1 O 3.573518 -1.582255 -0.347932 0
M  V30 2 C 2.402658 -1.272320 0.061452 0
M  V30 3 C 2.361808 -0.191506 1.044293 0
M  V30 4 O 3.249435 0.786927 1.097232 0
M  V30 5 C 2.929136 1.602777 2.100860 0
M  V30 6 C 3.631865 2.812093 2.523170 0
M  V30 7 C 3.160068 3.544815 3.592273 0
M  V30 8 C 3.847753 4.684320 3.967283 0
M  V30 9 C 4.991831 5.050513 3.251626 0
M  V30 10 Cl 5.765915 6.525969 3.842726 0
M  V30 11 C 5.467942 4.318341 2.179114 0
M  V30 12 C 4.762391 3.186500 1.826965 0
M  V30 13 C 1.771943 1.084144 2.694135 0
M  V30 14 C 1.403367 -0.072340 2.015868 0
M  V30 15 C 0.236212 -0.864564 2.382264 0
M  V30 16 C -0.473387 -1.507708 1.248011 0
M  V30 17 C -1.846129 -1.620812 1.504502 0
M  V30 18 C -2.753189 -2.171241 0.649934 0
M  V30 19 N -4.135002 -2.266179 0.955323 0
M  V30 20 C -4.763750 -1.865001 2.195585 0
M  V30 21 C -5.421114 -3.087553 2.798886 0
M  V30 22 N -6.194396 -3.856533 1.874217 0
M  V30 23 C -5.539978 -4.140192 0.621456 0
M  V30 24 C -5.131318 -2.788853 0.046491 0
M  V30 25 C -2.259678 -2.638220 -0.535061 0
M  V30 26 C -0.912534 -2.562873 -0.863722 0
M  V30 27 C -0.037357 -1.995966 0.037767 0
M  V30 28 N 1.288670 -2.015903 -0.489287 0
M  V30 29 C 1.596277 -2.814983 -1.645824 0
M  V30 30 C 1.425236 -2.090503 -2.932473 0
M  V30 31 C 1.006107 -0.766516 -2.955666 0
M  V30 32 C 0.827410 -0.036068 -4.116549 0
M  V30 33 C 1.096550 -0.713904 -5.296881 0
M  V30 34 C 1.515083 -2.031339 -5.306370 0
M  V30 35 C 1.677883 -2.716847 -4.109958 0
M  V30 36 Br 2.253642 -4.533730 -4.091163 0
M  V30 37 H 2.268612 3.226308 4.120951 0
M  V30 38 H 3.458853 5.235537 4.802343 0
M  V30 39 H 6.369909 4.674595 1.674018 0
M  V30 40 H 5.163789 2.643800 0.988017 0
M  V30 41 H 1.265132 1.529777 3.542541 0
M  V30 42 H 0.614080 -1.717418 3.014281 0
M  V30 43 H -0.480528 -0.331536 3.036617 0
M  V30 44 H -2.151815 -1.227119 2.462571 0
M  V30 45 H -5.618893 -1.169651 1.955528 0
M  V30 46 H -4.091759 -1.452271 2.941734 0
M  V30 47 H -6.145997 -2.679460 3.559463 0
M  V30 48 H -4.718654 -3.731213 3.332094 0
M  V30 49 H -6.395878 -4.771423 2.326003 0
M  V30 50 H -4.662320 -4.791754 0.759608 0
M  V30 51 H -6.306644 -4.595955 -0.037419 0
M  V30 52 H -4.833204 -2.848441 -0.995988 0
M  V30 53 H -6.082433 -2.183868 0.067590 0
M  V30 54 H -2.864320 -3.095397 -1.295500 0
M  V30 55 H -0.543607 -2.929449 -1.786400 0
M  V30 56 H 1.237087 -3.851193 -1.634509 0
M  V30 57 H 2.719568 -2.985210 -1.629706 0
M  V30 58 H 0.800715 -0.252999 -2.030949 0
M  V30 59 H 0.496446 1.002461 -4.084880 0
M  V30 60 H 0.977055 -0.200585 -6.244131 0
M  V30 61 H 1.722123 -2.550645 -6.228995 0
M  V30 END ATOM
M  V30 BEGIN BOND
M  V30 1 2 1 2
M  V30 2 1 2 3
M  V30 3 1 3 4
M  V30 4 1 4 5
M  V30 5 1 5 6
M  V30 6 2 6 7
M  V30 7 1 7 8
M  V30 8 2 8 9
M  V30 9 1 9 10
M  V30 10 1 9 11
M  V30 11 2 11 12
M  V30 12 2 5 13
M  V30 13 1 13 14
M  V30 14 1 14 15
M  V30 15 1 15 16
M  V30 16 2 16 17
M  V30 17 1 17 18
M  V30 18 1 18 19
M  V30 19 1 19 20
M  V30 20 1 20 21
M  V30 21 1 21 22
M  V30 22 1 22 23
M  V30 23 1 23 24
M  V30 24 2 18 25
M  V30 25 1 25 26
M  V30 26 2 26 27
M  V30 27 1 27 28
M  V30 28 1 28 29
M  V30 29 1 29 30
M  V30 30 2 30 31
M  V30 31 1 31 32
M  V30 32 2 32 33
M  V30 33 1 33 34
M  V30 34 2 34 35
M  V30 35 1 35 36
M  V30 36 1 28 2
M  V30 37 1 35 30
M  V30 38 2 14 3
M  V30 39 1 27 16
M  V30 40 1 12 6
M  V30 41 1 24 19
M  V30 42 1 7 37
M  V30 43 1 8 38
M  V30 44 1 11 39
M  V30 45 1 12 40
M  V30 46 1 13 41
M  V30 47 1 15 42
M  V30 48 1 15 43
M  V30 49 1 17 44
M  V30 50 1 20 45
M  V30 51 1 20 46
M  V30 52 1 21 47
M  V30 53 1 21 48
M  V30 54 1 22 49
M  V30 55 1 23 50
M  V30 56 1 23 51
M  V30 57 1 24 52
M  V30 58 1 24 53
M  V30 59 1 25 54
M  V30 60 1 26 55
M  V30 61 1 29 56
M  V30 62 1 29 57
M  V30 63 1 31 58
M  V30 64 1 32 59
M  V30 65 1 33 60
M  V30 66 1 34 61
M  V30 END BOND
M  V30 END CTAB
M  END
>  <Dataset>  (740) 
ChEMBL_Kinases

>  <Ligand_Instance>  (740) 
nan

>  <PDB_ID>  (740) 
nan

>  <Standardized_SMILES>  (740) 
O=C1c2oc(-c3ccc(Cl)cc3)cc2Cc2cc(N3CCNCC3)ccc2N1Cc1ccccc1Br

>  <Name>  (740) 
nan

>  <Pocket>  (740) 
nan

>  <ATP_Site>  (740) 
nan

>  <Peripheral>  (740) 
nan

>  <Num_H_Atoms_ProtBoundConf>  (740) 
nan

>  <Num_Resolved_Atoms>  (740) 
nan

>  <Num_Not_Resolved_Atoms>  (740) 
nan

$$$$
CHEMBL2385537
     RDKit          3D

  0  0  0  0  0  0  0  0  0  0999 V3000
M  V30 BEGIN CTAB
M  V30 COUNTS 49 53 0 0 0
M  V30 BEGIN ATOM
M  V30 1 O 1.272819 -3.865818 3.935075 0
M  V30 2 C 1.089815 -2.883441 3.185352 0
M  V30 3 N 2.194200 -1.962988 3.035793 0
M  V30 4 C 2.198357 -0.849814 2.146898 0
M  V30 5 C 3.496657 -0.535564 1.801635 0
M  V30 6 C 3.697170 0.541925 0.925859 0
M  V30 7 C 2.675837 1.315252 0.381717 0
M  V30 8 C 3.048656 2.421921 -0.519308 0
M  V30 9 C 2.833829 2.131997 -1.983424 0
M  V30 10 C 1.403788 2.299419 -2.378501 0
M  V30 11 N 0.942371 3.632601 -2.104443 0
M  V30 12 C 1.137887 4.066698 -0.759931 0
M  V30 13 C 2.465202 3.738459 -0.178371 0
M  V30 14 C 1.420353 0.921679 0.787684 0
M  V30 15 C 1.139810 -0.122599 1.642614 0
M  V30 16 C -0.319574 -0.258305 1.859568 0
M  V30 17 C -0.765539 -1.663781 2.029596 0
M  V30 18 C -2.023034 -2.084939 1.575941 0
M  V30 19 C -2.196767 -3.427459 1.852757 0
M  V30 20 C -3.370510 -4.233913 1.538606 0
M  V30 21 C -4.443848 -3.651913 0.902432 0
M  V30 22 C -5.575831 -4.375370 0.585123 0
M  V30 23 C -5.603601 -5.718766 0.927905 0
M  V30 24 Cl -7.068942 -6.564300 0.493110 0
M  V30 25 C -4.515686 -6.306005 1.572021 0
M  V30 26 C -3.385073 -5.569013 1.885123 0
M  V30 27 O -1.092335 -3.820727 2.452894 0
M  V30 28 C -0.254287 -2.832794 2.568257 0
M  V30 29 H 3.034792 -2.133156 3.618629 0
M  V30 30 H 4.306584 -1.110172 2.202376 0
M  V30 31 H 4.763572 0.711347 0.713042 0
M  V30 32 H 4.176463 2.534310 -0.362640 0
M  V30 33 H 3.245928 1.143378 -2.281344 0
M  V30 34 H 3.407837 2.929146 -2.538792 0
M  V30 35 H 0.750016 1.505322 -1.929969 0
M  V30 36 H 1.317196 2.190525 -3.504005 0
M  V30 37 H -0.079834 3.658622 -2.318336 0
M  V30 38 H 1.056410 5.194250 -0.778439 0
M  V30 39 H 0.258625 3.750536 -0.166370 0
M  V30 40 H 2.424713 3.950911 0.910858 0
M  V30 41 H 3.179256 4.523550 -0.572201 0
M  V30 42 H 0.596331 1.471412 0.416038 0
M  V30 43 H -0.839036 0.166428 0.965875 0
M  V30 44 H -0.678229 0.372013 2.720784 0
M  V30 45 H -2.753766 -1.443338 1.078061 0
M  V30 46 H -4.397145 -2.587255 0.641869 0
M  V30 47 H -6.390217 -3.852327 0.080918 0
M  V30 48 H -4.626928 -7.347571 1.797457 0
M  V30 49 H -2.561392 -6.077822 2.389805 0
M  V30 END ATOM
M  V30 BEGIN BOND
M  V30 1 2 1 2
M  V30 2 1 2 3
M  V30 3 1 3 4
M  V30 4 2 4 5
M  V30 5 1 5 6
M  V30 6 2 6 7
M  V30 7 1 7 8
M  V30 8 1 8 9
M  V30 9 1 9 10
M  V30 10 1 10 11
M  V30 11 1 11 12
M  V30 12 1 12 13
M  V30 13 1 7 14
M  V30 14 2 14 15
M  V30 15 1 15 16
M  V30 16 1 16 17
M  V30 17 1 17 18
M  V30 18 2 18 19
M  V30 19 1 19 20
M  V30 20 2 20 21
M  V30 21 1 21 22
M  V30 22 2 22 23
M  V30 23 1 23 24
M  V30 24 1 23 25
M  V30 25 2 25 26
M  V30 26 1 19 27
M  V30 27 1 27 28
M  V30 28 1 28 2
M  V30 29 1 15 4
M  V30 30 2 28 17
M  V30 31 1 13 8
M  V30 32 1 26 20
M  V30 33 1 3 29
M  V30 34 1 5 30
M  V30 35 1 6 31
M  V30 36 1 8 32
M  V30 37 1 9 33
M  V30 38 1 9 34
M  V30 39 1 10 35
M  V30 40 1 10 36
M  V30 41 1 11 37
M  V30 42 1 12 38
M  V30 43 1 12 39
M  V30 44 1 13 40
M  V30 45 1 13 41
M  V30 46 1 14 42
M  V30 47 1 16 43
M  V30 48 1 16 44
M  V30 49 1 18 45
M  V30 50 1 21 46
M  V30 51 1 22 47
M  V30 52 1 25 48
M  V30 53 1 26 49
M  V30 END BOND
M  V30 END CTAB
M  END
>  <Dataset>  (741) 
ChEMBL_Kinases

>  <Ligand_Instance>  (741) 
nan

>  <PDB_ID>  (741) 
nan

>  <Standardized_SMILES>  (741) 
O=C1Nc2ccc(C3CCNCC3)cc2Cc2cc(-c3ccc(Cl)cc3)oc21

>  <Name>  (741) 
nan

>  <Pocket>  (741) 
nan

>  <ATP_Site>  (741) 
nan

>  <Peripheral>  (741) 
nan

>  <Num_H_Atoms_ProtBoundConf>  (741) 
nan

>  <Num_Resolved_Atoms>  (741) 
nan

>  <Num_Not_Resolved_Atoms>  (741) 
nan

$$$$
CHEMBL2385538
     RDKit          3D

  0  0  0  0  0  0  0  0  0  0999 V3000
M  V30 BEGIN CTAB
M  V30 COUNTS 50 54 0 0 0
M  V30 BEGIN ATOM
M  V30 1 N 7.815727 -3.809478 -5.699841 0
M  V30 2 C 6.951092 -3.335324 -5.134126 0
M  V30 3 C 5.860372 -2.718205 -4.425390 0
M  V30 4 C 6.026152 -1.443020 -3.920758 0
M  V30 5 C 5.034772 -0.757634 -3.220805 0
M  V30 6 C 3.847918 -1.445823 -3.057750 0
M  V30 7 C 2.777105 -0.765463 -2.328175 0
M  V30 8 C 1.505769 -1.215680 -2.026188 0
M  V30 9 C 0.812440 -0.231993 -1.310163 0
M  V30 10 C 1.745499 0.784932 -1.223816 0
M  V30 11 O 2.865229 0.447473 -1.819046 0
M  V30 12 C 1.502063 2.067097 -0.552092 0
M  V30 13 O 2.213154 3.019032 -0.956488 0
M  V30 14 N 0.550518 2.321733 0.495930 0
M  V30 15 C -0.395206 1.405601 1.042656 0
M  V30 16 C -0.829173 1.807379 2.289627 0
M  V30 17 C -1.749707 1.026540 2.956865 0
M  V30 18 C -2.281330 -0.146811 2.467595 0
M  V30 19 C -3.268303 -1.006537 3.165232 0
M  V30 20 C -4.524740 -0.333799 3.567866 0
M  V30 21 C -4.584882 0.173132 4.972537 0
M  V30 22 N -4.177838 -0.869933 5.895869 0
M  V30 23 C -2.763322 -1.118407 5.638069 0
M  V30 24 C -2.610602 -1.729746 4.287889 0
M  V30 25 C -1.779969 -0.470011 1.197564 0
M  V30 26 C -0.862224 0.245390 0.455782 0
M  V30 27 C -0.584758 -0.424354 -0.843535 0
M  V30 28 C 3.639979 -2.719712 -3.545105 0
M  V30 29 C 4.643512 -3.369658 -4.234002 0
M  V30 30 H 6.964884 -0.935916 -4.066391 0
M  V30 31 H 5.226542 0.240544 -2.850329 0
M  V30 32 H 1.130328 -2.186124 -2.312712 0
M  V30 33 H 0.563255 3.283379 0.890724 0
M  V30 34 H -0.442173 2.720845 2.717737 0
M  V30 35 H -2.050615 1.380954 3.906194 0
M  V30 36 H -3.551564 -1.799145 2.399081 0
M  V30 37 H -5.368351 -1.084755 3.482684 0
M  V30 38 H -4.835841 0.465188 2.858809 0
M  V30 39 H -5.672539 0.350931 5.208367 0
M  V30 40 H -4.082064 1.139781 5.139858 0
M  V30 41 H -4.249518 -0.493301 6.868993 0
M  V30 42 H -2.368906 -1.845630 6.385261 0
M  V30 43 H -2.258882 -0.156157 5.696937 0
M  V30 44 H -1.512654 -1.799263 4.020185 0
M  V30 45 H -2.926016 -2.809677 4.291520 0
M  V30 46 H -2.160962 -1.394675 0.745232 0
M  V30 47 H -0.781446 -1.507773 -0.743004 0
M  V30 48 H -1.329444 0.002017 -1.570151 0
M  V30 49 H 2.690207 -3.233526 -3.398164 0
M  V30 50 H 4.538031 -4.365854 -4.637769 0
M  V30 END ATOM
M  V30 BEGIN BOND
M  V30 1 3 1 2
M  V30 2 1 2 3
M  V30 3 2 3 4
M  V30 4 1 4 5
M  V30 5 2 5 6
M  V30 6 1 6 7
M  V30 7 2 7 8
M  V30 8 1 8 9
M  V30 9 2 9 10
M  V30 10 1 10 11
M  V30 11 1 10 12
M  V30 12 2 12 13
M  V30 13 1 12 14
M  V30 14 1 14 15
M  V30 15 2 15 16
M  V30 16 1 16 17
M  V30 17 2 17 18
M  V30 18 1 18 19
M  V30 19 1 19 20
M  V30 20 1 20 21
M  V30 21 1 21 22
M  V30 22 1 22 23
M  V30 23 1 23 24
M  V30 24 1 18 25
M  V30 25 2 25 26
M  V30 26 1 26 27
M  V30 27 1 6 28
M  V30 28 2 28 29
M  V30 29 1 29 3
M  V30 30 1 11 7
M  V30 31 1 26 15
M  V30 32 1 27 9
M  V30 33 1 24 19
M  V30 34 1 4 30
M  V30 35 1 5 31
M  V30 36 1 8 32
M  V30 37 1 14 33
M  V30 38 1 16 34
M  V30 39 1 17 35
M  V30 40 1 19 36
M  V30 41 1 20 37
M  V30 42 1 20 38
M  V30 43 1 21 39
M  V30 44 1 21 40
M  V30 45 1 22 41
M  V30 46 1 23 42
M  V30 47 1 23 43
M  V30 48 1 24 44
M  V30 49 1 24 45
M  V30 50 1 25 46
M  V30 51 1 27 47
M  V30 52 1 27 48
M  V30 53 1 28 49
M  V30 54 1 29 50
M  V30 END BOND
M  V30 END CTAB
M  END
>  <Dataset>  (742) 
ChEMBL_Kinases

>  <Ligand_Instance>  (742) 
nan

>  <PDB_ID>  (742) 
nan

>  <Standardized_SMILES>  (742) 
N#Cc1ccc(-c2cc3c(o2)C(=O)Nc2ccc(C4CCNCC4)cc2C3)cc1

>  <Name>  (742) 
nan

>  <Pocket>  (742) 
nan

>  <ATP_Site>  (742) 
nan

>  <Peripheral>  (742) 
nan

>  <Num_H_Atoms_ProtBoundConf>  (742) 
nan

>  <Num_Resolved_Atoms>  (742) 
nan

>  <Num_Not_Resolved_Atoms>  (742) 
nan

$$$$
CHEMBL2385539
     RDKit          3D

  0  0  0  0  0  0  0  0  0  0999 V3000
M  V30 BEGIN CTAB
M  V30 COUNTS 72 78 0 0 0
M  V30 BEGIN ATOM
M  V30 1 N 10.416618 -1.006426 -3.603183 0
M  V30 2 C 9.301190 -1.018935 -3.338574 0
M  V30 3 C 7.909237 -1.038200 -3.002257 0
M  V30 4 C 7.089988 -2.154706 -3.049410 0
M  V30 5 C 5.767796 -2.260322 -2.747904 0
M  V30 6 C 5.171225 -1.064583 -2.335540 0
M  V30 7 C 3.734034 -1.067732 -1.984592 0
M  V30 8 C 3.002390 0.023428 -1.563714 0
M  V30 9 C 1.700287 -0.382380 -1.334603 0
M  V30 10 C 1.722691 -1.748924 -1.642841 0
M  V30 11 O 2.930130 -2.136063 -2.024203 0
M  V30 12 C 0.503337 -2.570557 -1.527387 0
M  V30 13 O 0.575454 -3.630663 -2.240973 0
M  V30 14 N -0.714094 -2.353354 -0.746587 0
M  V30 15 C -1.259583 -3.570250 -0.237415 0
M  V30 16 C -0.675864 -3.939447 1.089935 0
M  V30 17 C 0.441615 -4.779720 1.116772 0
M  V30 18 C 1.184961 -5.201662 2.195946 0
M  V30 19 C 0.757908 -4.719069 3.428642 0
M  V30 20 C -0.335717 -3.883600 3.508677 0
M  V30 21 C -0.999182 -3.533742 2.355164 0
M  V30 22 C -2.179274 -2.721855 2.560301 0
M  V30 23 C -2.113579 -1.478950 3.184683 0
M  V30 24 C -3.209611 -0.700935 3.436990 0
M  V30 25 C -4.449130 -1.152234 3.061139 0
M  V30 26 C -4.513369 -2.379852 2.444675 0
M  V30 27 F -5.736530 -2.844961 2.065593 0
M  V30 28 C -3.424685 -3.186125 2.177930 0
M  V30 29 C -1.203748 -1.035965 -0.600655 0
M  V30 30 C -2.539313 -1.131585 -0.366868 0
M  V30 31 C -3.367958 -0.071857 -0.159964 0
M  V30 32 C -2.795887 1.203806 -0.193014 0
M  V30 33 N -3.514245 2.407630 0.035674 0
M  V30 34 C -3.164696 3.753193 -0.350174 0
M  V30 35 C -3.511761 4.656904 0.819497 0
M  V30 36 N -3.353682 3.967557 2.092201 0
M  V30 37 C -4.389164 2.942127 2.165409 0
M  V30 38 C -4.783335 2.443300 0.778348 0
M  V30 39 C -1.419725 1.306012 -0.435871 0
M  V30 40 C -0.613679 0.203324 -0.640457 0
M  V30 41 C 0.758624 0.629083 -0.871149 0
M  V30 42 C 5.862873 0.125123 -2.241291 0
M  V30 43 C 7.190656 0.071180 -2.579491 0
M  V30 44 H 7.563141 -3.094650 -3.372448 0
M  V30 45 H 5.234192 -3.193959 -2.825524 0
M  V30 46 H 3.444990 1.025271 -1.447714 0
M  V30 47 H -0.877112 -4.389305 -0.923632 0
M  V30 48 H -2.324376 -3.749802 -0.300718 0
M  V30 49 H 0.793333 -5.166382 0.161683 0
M  V30 50 H 2.033010 -5.860125 2.078818 0
M  V30 51 H 1.292945 -5.003905 4.317023 0
M  V30 52 H -0.654537 -3.519821 4.470313 0
M  V30 53 H -1.116933 -1.162558 3.468001 0
M  V30 54 H -3.014771 0.252042 3.934428 0
M  V30 55 H -5.307699 -0.527418 3.261909 0
M  V30 56 H -3.577009 -4.129067 1.698303 0
M  V30 57 H -3.032898 -2.083056 -0.348920 0
M  V30 58 H -4.428344 -0.166309 0.023549 0
M  V30 59 H -3.862157 4.029824 -1.197840 0
M  V30 60 H -2.141932 3.896402 -0.701314 0
M  V30 61 H -4.590391 4.972098 0.792952 0
M  V30 62 H -2.851165 5.548516 0.766056 0
M  V30 63 H -2.442033 3.486188 2.115691 0
M  V30 64 H -4.027255 2.051900 2.731466 0
M  V30 65 H -5.277974 3.401281 2.634616 0
M  V30 66 H -5.505312 3.119420 0.279430 0
M  V30 67 H -5.267628 1.470723 0.863028 0
M  V30 68 H -0.967450 2.276815 -0.461219 0
M  V30 69 H 1.158100 1.018231 0.106234 0
M  V30 70 H 0.735812 1.534166 -1.531009 0
M  V30 71 H 5.406762 1.051578 -1.922349 0
M  V30 72 H 7.733759 1.025757 -2.499635 0
M  V30 END ATOM
M  V30 BEGIN BOND
M  V30 1 3 1 2
M  V30 2 1 2 3
M  V30 3 2 3 4
M  V30 4 1 4 5
M  V30 5 2 5 6
M  V30 6 1 6 7
M  V30 7 2 7 8
M  V30 8 1 8 9
M  V30 9 2 9 10
M  V30 10 1 10 11
M  V30 11 1 10 12
M  V30 12 2 12 13
M  V30 13 1 12 14
M  V30 14 1 14 15
M  V30 15 1 15 16
M  V30 16 2 16 17
M  V30 17 1 17 18
M  V30 18 2 18 19
M  V30 19 1 19 20
M  V30 20 2 20 21
M  V30 21 1 21 22
M  V30 22 2 22 23
M  V30 23 1 23 24
M  V30 24 2 24 25
M  V30 25 1 25 26
M  V30 26 1 26 27
M  V30 27 2 26 28
M  V30 28 1 14 29
M  V30 29 2 29 30
M  V30 30 1 30 31
M  V30 31 2 31 32
M  V30 32 1 32 33
M  V30 33 1 33 34
M  V30 34 1 34 35
M  V30 35 1 35 36
M  V30 36 1 36 37
M  V30 37 1 37 38
M  V30 38 1 32 39
M  V30 39 2 39 40
M  V30 40 1 40 41
M  V30 41 1 6 42
M  V30 42 2 42 43
M  V30 43 1 43 3
M  V30 44 1 11 7
M  V30 45 1 21 16
M  V30 46 1 28 22
M  V30 47 1 40 29
M  V30 48 1 41 9
M  V30 49 1 38 33
M  V30 50 1 4 44
M  V30 51 1 5 45
M  V30 52 1 8 46
M  V30 53 1 15 47
M  V30 54 1 15 48
M  V30 55 1 17 49
M  V30 56 1 18 50
M  V30 57 1 19 51
M  V30 58 1 20 52
M  V30 59 1 23 53
M  V30 60 1 24 54
M  V30 61 1 25 55
M  V30 62 1 28 56
M  V30 63 1 30 57
M  V30 64 1 31 58
M  V30 65 1 34 59
M  V30 66 1 34 60
M  V30 67 1 35 61
M  V30 68 1 35 62
M  V30 69 1 36 63
M  V30 70 1 37 64
M  V30 71 1 37 65
M  V30 72 1 38 66
M  V30 73 1 38 67
M  V30 74 1 39 68
M  V30 75 1 41 69
M  V30 76 1 41 70
M  V30 77 1 42 71
M  V30 78 1 43 72
M  V30 END BOND
M  V30 END CTAB
M  END
>  <Dataset>  (743) 
ChEMBL_Kinases

>  <Ligand_Instance>  (743) 
nan

>  <PDB_ID>  (743) 
nan

>  <Standardized_SMILES>  (743) 
N#Cc1ccc(-c2cc3c(o2)C(=O)N(Cc2ccccc2-c2cccc(F)c2)c2ccc(N4CCNCC4)cc2C3)cc1

>  <Name>  (743) 
nan

>  <Pocket>  (743) 
nan

>  <ATP_Site>  (743) 
nan

>  <Peripheral>  (743) 
nan

>  <Num_H_Atoms_ProtBoundConf>  (743) 
nan

>  <Num_Resolved_Atoms>  (743) 
nan

>  <Num_Not_Resolved_Atoms>  (743) 
nan

$$$$
CHEMBL2385531
     RDKit          3D

  0  0  0  0  0  0  0  0  0  0999 V3000
M  V30 BEGIN CTAB
M  V30 COUNTS 51 55 0 0 0
M  V30 BEGIN ATOM
M  V30 1 C 2.451629 -4.148469 0.997606 0
M  V30 2 N 1.983758 -2.775618 1.009734 0
M  V30 3 C 3.000275 -1.753799 0.986433 0
M  V30 4 O 4.190855 -2.129385 0.938578 0
M  V30 5 C 2.786779 -0.297406 1.013227 0
M  V30 6 O 3.645457 0.584449 0.592538 0
M  V30 7 C 3.175243 1.805875 0.743727 0
M  V30 8 C 3.849047 3.050290 0.387982 0
M  V30 9 C 5.110955 2.980446 -0.166580 0
M  V30 10 C 5.723650 4.185792 -0.493397 0
M  V30 11 C 5.080316 5.395340 -0.265212 0
M  V30 12 Cl 5.916713 6.877997 -0.703770 0
M  V30 13 C 3.812740 5.444707 0.292827 0
M  V30 14 C 3.207198 4.248729 0.616045 0
M  V30 15 C 1.917860 1.665220 1.306320 0
M  V30 16 C 1.629727 0.308551 1.496783 0
M  V30 17 C 0.357407 -0.172597 2.081957 0
M  V30 18 C -0.101355 -1.464630 1.508341 0
M  V30 19 C -1.497310 -1.533528 1.432918 0
M  V30 20 C -2.184326 -2.616487 0.942337 0
M  V30 21 N -3.595514 -2.677035 0.872202 0
M  V30 22 C -4.549740 -1.681795 1.313638 0
M  V30 23 C -5.189358 -1.074021 0.081373 0
M  V30 24 N -5.705811 -2.107706 -0.800522 0
M  V30 25 C -5.662153 -3.411865 -0.162986 0
M  V30 26 C -4.294821 -3.801324 0.319684 0
M  V30 27 C -1.471805 -3.705870 0.494806 0
M  V30 28 C -0.086490 -3.696425 0.544211 0
M  V30 29 C 0.570493 -2.590719 1.043579 0
M  V30 30 H 3.501938 -4.119989 1.396561 0
M  V30 31 H 1.906896 -4.812669 1.678146 0
M  V30 32 H 2.567333 -4.539458 -0.035109 0
M  V30 33 H 5.639945 2.058241 -0.357391 0
M  V30 34 H 6.706056 4.205239 -0.928601 0
M  V30 35 H 3.396802 6.421277 0.431255 0
M  V30 36 H 2.228887 4.273924 1.047180 0
M  V30 37 H 1.302541 2.521427 1.538563 0
M  V30 38 H -0.412494 0.596099 1.876157 0
M  V30 39 H 0.406303 -0.302106 3.185987 0
M  V30 40 H -2.015916 -0.663287 1.791544 0
M  V30 41 H -4.028722 -0.886272 1.854600 0
M  V30 42 H -5.352730 -2.132711 1.936212 0
M  V30 43 H -6.064564 -0.474205 0.406409 0
M  V30 44 H -4.462609 -0.479674 -0.496935 0
M  V30 45 H -5.146699 -2.179322 -1.685083 0
M  V30 46 H -6.419102 -3.397569 0.635073 0
M  V30 47 H -5.991524 -4.158460 -0.908169 0
M  V30 48 H -4.467543 -4.516902 1.175704 0
M  V30 49 H -3.775010 -4.294008 -0.530950 0
M  V30 50 H -1.869285 -4.622157 0.086430 0
M  V30 51 H 0.525779 -4.532843 0.202702 0
M  V30 END ATOM
M  V30 BEGIN BOND
M  V30 1 1 1 2
M  V30 2 1 2 3
M  V30 3 2 3 4
M  V30 4 1 3 5
M  V30 5 1 5 6
M  V30 6 1 6 7
M  V30 7 1 7 8
M  V30 8 2 8 9
M  V30 9 1 9 10
M  V30 10 2 10 11
M  V30 11 1 11 12
M  V30 12 1 11 13
M  V30 13 2 13 14
M  V30 14 2 7 15
M  V30 15 1 15 16
M  V30 16 1 16 17
M  V30 17 1 17 18
M  V30 18 2 18 19
M  V30 19 1 19 20
M  V30 20 1 20 21
M  V30 21 1 21 22
M  V30 22 1 22 23
M  V30 23 1 23 24
M  V30 24 1 24 25
M  V30 25 1 25 26
M  V30 26 2 20 27
M  V30 27 1 27 28
M  V30 28 2 28 29
M  V30 29 1 29 2
M  V30 30 2 16 5
M  V30 31 1 29 18
M  V30 32 1 14 8
M  V30 33 1 26 21
M  V30 34 1 1 30
M  V30 35 1 1 31
M  V30 36 1 1 32
M  V30 37 1 9 33
M  V30 38 1 10 34
M  V30 39 1 13 35
M  V30 40 1 14 36
M  V30 41 1 15 37
M  V30 42 1 17 38
M  V30 43 1 17 39
M  V30 44 1 19 40
M  V30 45 1 22 41
M  V30 46 1 22 42
M  V30 47 1 23 43
M  V30 48 1 23 44
M  V30 49 1 24 45
M  V30 50 1 25 46
M  V30 51 1 25 47
M  V30 52 1 26 48
M  V30 53 1 26 49
M  V30 54 1 27 50
M  V30 55 1 28 51
M  V30 END BOND
M  V30 END CTAB
M  END
>  <Dataset>  (744) 
ChEMBL_Kinases

>  <Ligand_Instance>  (744) 
nan

>  <PDB_ID>  (744) 
nan

>  <Standardized_SMILES>  (744) 
CN1C(=O)c2oc(-c3ccc(Cl)cc3)cc2Cc2cc(N3CCNCC3)ccc21

>  <Name>  (744) 
nan

>  <Pocket>  (744) 
nan

>  <ATP_Site>  (744) 
nan

>  <Peripheral>  (744) 
nan

>  <Num_H_Atoms_ProtBoundConf>  (744) 
nan

>  <Num_Resolved_Atoms>  (744) 
nan

>  <Num_Not_Resolved_Atoms>  (744) 
nan

$$$$
CHEMBL2376928
     RDKit          3D

  0  0  0  0  0  0  0  0  0  0999 V3000
M  V30 BEGIN CTAB
M  V30 COUNTS 59 63 0 0 0
M  V30 BEGIN ATOM
M  V30 1 O 2.312352 -1.431108 0.412298 0
M  V30 2 C 2.412989 -0.254322 0.838946 0
M  V30 3 N 3.699762 -0.017612 1.442111 0
M  V30 4 C 4.474289 -1.264916 1.349928 0
M  V30 5 C 5.821334 -0.981513 1.992351 0
M  V30 6 N 6.530791 0.070460 1.337747 0
M  V30 7 C 7.813952 0.371463 1.942932 0
M  V30 8 C 8.912009 -0.289367 1.177158 0
M  V30 9 O 8.497696 -1.571158 0.868737 0
M  V30 10 C 7.516574 -1.531469 -0.134248 0
M  V30 11 C 6.792442 -0.204444 -0.059802 0
M  V30 12 C 1.365070 0.760052 0.743212 0
M  V30 13 C 0.202199 0.353561 0.134550 0
M  V30 14 C -0.873706 1.223762 -0.019849 0
M  V30 15 N -2.060681 0.747369 -0.661335 0
M  V30 16 N -2.519057 0.869428 -1.909439 0
M  V30 17 C -3.702220 0.230815 -2.014515 0
M  V30 18 C -3.981943 -0.312191 -0.758189 0
M  V30 19 C -5.097536 -1.060870 -0.378498 0
M  V30 20 C -5.167422 -1.505041 0.943466 0
M  V30 21 N -6.268071 -2.261919 1.377039 0
M  V30 22 C -7.297303 -2.560832 0.443736 0
M  V30 23 C -8.450243 -1.870355 0.121642 0
M  V30 24 Cl -8.633404 -0.382883 1.042618 0
M  V30 25 C -9.301128 -2.365382 -0.824835 0
M  V30 26 C -9.046175 -3.537090 -1.472524 0
M  V30 27 C -7.907723 -4.254460 -1.179553 0
M  V30 28 C -7.025898 -3.764973 -0.215277 0
M  V30 29 Cl -5.621428 -4.783367 0.051933 0
M  V30 30 C -4.112211 -1.157197 1.761789 0
M  V30 31 C -3.022410 -0.423210 1.382328 0
M  V30 32 C -2.932690 0.025818 0.081177 0
M  V30 33 C -0.787222 2.539913 0.447156 0
M  V30 34 C 0.422709 2.890067 1.056585 0
M  V30 35 N 1.456721 2.041925 1.201119 0
M  V30 36 H 3.889131 0.951630 1.837040 0
M  V30 37 H 4.642583 -1.520438 0.285166 0
M  V30 38 H 3.941886 -2.083063 1.838198 0
M  V30 39 H 5.718573 -0.729786 3.060229 0
M  V30 40 H 6.423881 -1.918571 1.900293 0
M  V30 41 H 7.849362 -0.020776 2.997800 0
M  V30 42 H 8.014849 1.474063 1.953552 0
M  V30 43 H 9.283292 0.288734 0.306724 0
M  V30 44 H 9.779846 -0.383777 1.862888 0
M  V30 45 H 6.843906 -2.397888 -0.036416 0
M  V30 46 H 8.078707 -1.640511 -1.086430 0
M  V30 47 H 7.439761 0.576913 -0.515463 0
M  V30 48 H 5.876320 -0.227484 -0.687915 0
M  V30 49 H 0.075308 -0.650975 -0.246693 0
M  V30 50 H -4.305593 0.168181 -2.928045 0
M  V30 51 H -5.872358 -1.278817 -1.102072 0
M  V30 52 H -6.276466 -2.574983 2.386484 0
M  V30 53 H -10.183030 -1.750175 -1.009756 0
M  V30 54 H -9.753373 -3.902683 -2.226756 0
M  V30 55 H -7.762182 -5.174581 -1.726511 0
M  V30 56 H -4.169944 -1.508306 2.802644 0
M  V30 57 H -2.214364 -0.170562 2.054005 0
M  V30 58 H -1.608814 3.223170 0.335397 0
M  V30 59 H 0.535170 3.896794 1.432688 0
M  V30 END ATOM
M  V30 BEGIN BOND
M  V30 1 2 1 2
M  V30 2 1 2 3
M  V30 3 1 3 4
M  V30 4 1 4 5
M  V30 5 1 5 6
M  V30 6 1 6 7
M  V30 7 1 7 8
M  V30 8 1 8 9
M  V30 9 1 9 10
M  V30 10 1 10 11
M  V30 11 1 2 12
M  V30 12 2 12 13
M  V30 13 1 13 14
M  V30 14 1 14 15
M  V30 15 1 15 16
M  V30 16 2 16 17
M  V30 17 1 17 18
M  V30 18 2 18 19
M  V30 19 1 19 20
M  V30 20 1 20 21
M  V30 21 1 21 22
M  V30 22 2 22 23
M  V30 23 1 23 24
M  V30 24 1 23 25
M  V30 25 2 25 26
M  V30 26 1 26 27
M  V30 27 2 27 28
M  V30 28 1 28 29
M  V30 29 2 20 30
M  V30 30 1 30 31
M  V30 31 2 31 32
M  V30 32 2 14 33
M  V30 33 1 33 34
M  V30 34 2 34 35
M  V30 35 1 11 6
M  V30 36 1 35 12
M  V30 37 1 32 15
M  V30 38 1 32 18
M  V30 39 1 28 22
M  V30 40 1 3 36
M  V30 41 1 4 37
M  V30 42 1 4 38
M  V30 43 1 5 39
M  V30 44 1 5 40
M  V30 45 1 7 41
M  V30 46 1 7 42
M  V30 47 1 8 43
M  V30 48 1 8 44
M  V30 49 1 10 45
M  V30 50 1 10 46
M  V30 51 1 11 47
M  V30 52 1 11 48
M  V30 53 1 13 49
M  V30 54 1 17 50
M  V30 55 1 19 51
M  V30 56 1 21 52
M  V30 57 1 25 53
M  V30 58 1 26 54
M  V30 59 1 27 55
M  V30 60 1 30 56
M  V30 61 1 31 57
M  V30 62 1 33 58
M  V30 63 1 34 59
M  V30 END BOND
M  V30 END CTAB
M  END
>  <Dataset>  (745) 
ChEMBL_Kinases

>  <Ligand_Instance>  (745) 
nan

>  <PDB_ID>  (745) 
nan

>  <Standardized_SMILES>  (745) 
O=C(NCCN1CCOCC1)c1cc(-n2ncc3cc(Nc4c(Cl)cccc4Cl)ccc32)ccn1

>  <Name>  (745) 
nan

>  <Pocket>  (745) 
nan

>  <ATP_Site>  (745) 
nan

>  <Peripheral>  (745) 
nan

>  <Num_H_Atoms_ProtBoundConf>  (745) 
nan

>  <Num_Resolved_Atoms>  (745) 
nan

>  <Num_Not_Resolved_Atoms>  (745) 
nan

$$$$
CHEMBL2376921
     RDKit          3D

  0  0  0  0  0  0  0  0  0  0999 V3000
M  V30 BEGIN CTAB
M  V30 COUNTS 57 61 0 0 0
M  V30 BEGIN ATOM
M  V30 1 C 8.107426 -2.994827 0.249880 0
M  V30 2 C 6.859254 -2.810003 1.059222 0
M  V30 3 C 6.457383 -3.869492 1.858499 0
M  V30 4 C 5.336654 -3.802205 2.632704 0
M  V30 5 C 4.569437 -2.657192 2.633668 0
M  V30 6 C 4.957576 -1.578059 1.834823 0
M  V30 7 N 4.158344 -0.396927 1.841439 0
M  V30 8 C 3.068040 -0.148619 0.962672 0
M  V30 9 O 2.822286 -1.066484 0.130310 0
M  V30 10 C 2.292384 1.090682 1.029645 0
M  V30 11 C 2.512006 2.127555 1.915150 0
M  V30 12 C 1.708922 3.254654 1.882728 0
M  V30 13 C 0.663740 3.400107 0.979337 0
M  V30 14 C 0.454020 2.356487 0.098897 0
M  V30 15 N -0.593626 2.409710 -0.866721 0
M  V30 16 N -0.872995 3.244651 -1.867938 0
M  V30 17 C -1.994761 2.850450 -2.493241 0
M  V30 18 C -2.464792 1.711415 -1.872826 0
M  V30 19 C -3.581212 0.956697 -2.166712 0
M  V30 20 C -3.771416 -0.134775 -1.344265 0
M  V30 21 N -4.904029 -0.959428 -1.592273 0
M  V30 22 C -5.471290 -2.111429 -0.981688 0
M  V30 23 C -5.640914 -3.321746 -1.617248 0
M  V30 24 C -6.198851 -4.414733 -0.986184 0
M  V30 25 C -6.599700 -4.281039 0.333126 0
M  V30 26 C -6.420280 -3.059915 0.949542 0
M  V30 27 C -5.866477 -1.947429 0.349050 0
M  V30 28 C -5.757332 -0.725600 1.167989 0
M  V30 29 C -2.925171 -0.462852 -0.305941 0
M  V30 30 C -1.837666 0.343560 -0.084186 0
M  V30 31 C -1.568489 1.455012 -0.855496 0
M  V30 32 C 1.248768 1.230706 0.124214 0
M  V30 33 C 6.101659 -1.674034 1.057607 0
M  V30 34 H 8.481939 -2.057319 -0.168273 0
M  V30 35 H 8.907128 -3.372967 0.942127 0
M  V30 36 H 7.919823 -3.798789 -0.482042 0
M  V30 37 H 7.040180 -4.798802 1.886446 0
M  V30 38 H 4.994917 -4.626694 3.275541 0
M  V30 39 H 3.657131 -2.533970 3.230939 0
M  V30 40 H 4.439436 0.301152 2.564386 0
M  V30 41 H 3.324188 2.008489 2.613239 0
M  V30 42 H 1.936787 4.031542 2.606665 0
M  V30 43 H 0.047269 4.286502 0.968280 0
M  V30 44 H -2.410916 3.385763 -3.342775 0
M  V30 45 H -4.250152 1.206615 -2.979054 0
M  V30 46 H -5.560696 -0.785377 -2.384357 0
M  V30 47 H -5.306212 -3.371992 -2.661040 0
M  V30 48 H -6.324266 -5.346440 -1.490788 0
M  V30 49 H -7.041915 -5.111247 0.867414 0
M  V30 50 H -6.755895 -3.010098 1.995521 0
M  V30 51 H -4.895499 -0.835238 1.872944 0
M  V30 52 H -6.659224 -0.674342 1.818078 0
M  V30 53 H -5.612666 0.190604 0.565512 0
M  V30 54 H -3.044616 -1.305667 0.351113 0
M  V30 55 H -1.143779 0.106945 0.737978 0
M  V30 56 H 1.050792 0.432864 -0.584879 0
M  V30 57 H 6.419361 -0.850187 0.432329 0
M  V30 END ATOM
M  V30 BEGIN BOND
M  V30 1 1 1 2
M  V30 2 2 2 3
M  V30 3 1 3 4
M  V30 4 2 4 5
M  V30 5 1 5 6
M  V30 6 1 6 7
M  V30 7 1 7 8
M  V30 8 2 8 9
M  V30 9 1 8 10
M  V30 10 2 10 11
M  V30 11 1 11 12
M  V30 12 2 12 13
M  V30 13 1 13 14
M  V30 14 1 14 15
M  V30 15 1 15 16
M  V30 16 2 16 17
M  V30 17 1 17 18
M  V30 18 2 18 19
M  V30 19 1 19 20
M  V30 20 1 20 21
M  V30 21 1 21 22
M  V30 22 2 22 23
M  V30 23 1 23 24
M  V30 24 2 24 25
M  V30 25 1 25 26
M  V30 26 2 26 27
M  V30 27 1 27 28
M  V30 28 2 20 29
M  V30 29 1 29 30
M  V30 30 2 30 31
M  V30 31 2 14 32
M  V30 32 2 6 33
M  V30 33 1 33 2
M  V30 34 1 32 10
M  V30 35 1 31 15
M  V30 36 1 31 18
M  V30 37 1 27 22
M  V30 38 1 1 34
M  V30 39 1 1 35
M  V30 40 1 1 36
M  V30 41 1 3 37
M  V30 42 1 4 38
M  V30 43 1 5 39
M  V30 44 1 7 40
M  V30 45 1 11 41
M  V30 46 1 12 42
M  V30 47 1 13 43
M  V30 48 1 17 44
M  V30 49 1 19 45
M  V30 50 1 21 46
M  V30 51 1 23 47
M  V30 52 1 24 48
M  V30 53 1 25 49
M  V30 54 1 26 50
M  V30 55 1 28 51
M  V30 56 1 28 52
M  V30 57 1 28 53
M  V30 58 1 29 54
M  V30 59 1 30 55
M  V30 60 1 32 56
M  V30 61 1 33 57
M  V30 END BOND
M  V30 END CTAB
M  END
>  <Dataset>  (746) 
ChEMBL_Kinases

>  <Ligand_Instance>  (746) 
nan

>  <PDB_ID>  (746) 
nan

>  <Standardized_SMILES>  (746) 
Cc1cccc(NC(=O)c2cccc(-n3ncc4cc(Nc5ccccc5C)ccc43)c2)c1

>  <Name>  (746) 
nan

>  <Pocket>  (746) 
nan

>  <ATP_Site>  (746) 
nan

>  <Peripheral>  (746) 
nan

>  <Num_H_Atoms_ProtBoundConf>  (746) 
nan

>  <Num_Resolved_Atoms>  (746) 
nan

>  <Num_Not_Resolved_Atoms>  (746) 
nan

$$$$
CHEMBL2376918
     RDKit          3D

  0  0  0  0  0  0  0  0  0  0999 V3000
M  V30 BEGIN CTAB
M  V30 COUNTS 63 67 0 0 0
M  V30 BEGIN ATOM
M  V30 1 O 1.959437 1.779925 3.912183 0
M  V30 2 C 1.320965 1.197624 3.014066 0
M  V30 3 N 1.872104 -0.028600 2.538631 0
M  V30 4 C 3.075742 -0.520706 3.080032 0
M  V30 5 C 4.309435 0.296669 2.968864 0
M  V30 6 C 4.875795 0.634701 1.666542 0
M  V30 7 N 4.254113 1.384268 0.676931 0
M  V30 8 C 3.158679 0.932445 -0.079124 0
M  V30 9 C 3.426205 -0.481966 -0.552282 0
M  V30 10 O 4.723810 -0.543167 -1.010278 0
M  V30 11 C 5.249136 0.671142 -1.436363 0
M  V30 12 C 5.311510 1.700620 -0.325475 0
M  V30 13 C 0.085825 1.800509 2.527069 0
M  V30 14 C -0.306406 2.974346 3.135138 0
M  V30 15 C -1.480919 3.614943 2.722638 0
M  V30 16 C -2.212088 3.031973 1.703169 0
M  V30 17 C -1.845186 1.853205 1.071625 0
M  V30 18 N -2.651498 1.317989 0.028163 0
M  V30 19 N -3.149516 2.160559 -0.893014 0
M  V30 20 C -3.883159 1.497948 -1.804024 0
M  V30 21 C -3.862854 0.164461 -1.461863 0
M  V30 22 C -4.412424 -0.985993 -1.991430 0
M  V30 23 C -4.141423 -2.175155 -1.319301 0
M  V30 24 N -4.699710 -3.373444 -1.855237 0
M  V30 25 C -4.608798 -4.700463 -1.350055 0
M  V30 26 C -4.027610 -5.708729 -2.112854 0
M  V30 27 C -3.904422 -7.014982 -1.693903 0
M  V30 28 C -4.385335 -7.326174 -0.453968 0
M  V30 29 C -4.959177 -6.371758 0.320919 0
M  V30 30 C -5.090463 -5.051954 -0.087215 0
M  V30 31 F -5.656643 -4.112395 0.673764 0
M  V30 32 C -3.367420 -2.246552 -0.177698 0
M  V30 33 C -2.815516 -1.074031 0.350218 0
M  V30 34 C -3.090105 0.094696 -0.322262 0
M  V30 35 C -0.678522 1.267684 1.520822 0
M  V30 36 H 1.343295 -0.529278 1.783398 0
M  V30 37 H 2.850961 -0.780981 4.164930 0
M  V30 38 H 3.284487 -1.529504 2.637743 0
M  V30 39 H 5.097192 -0.307988 3.548252 0
M  V30 40 H 4.202236 1.188550 3.661344 0
M  V30 41 H 5.894571 1.156156 1.842759 0
M  V30 42 H 5.287781 -0.368932 1.245645 0
M  V30 43 H 3.216624 1.531933 -1.071459 0
M  V30 44 H 2.150317 1.147138 0.240333 0
M  V30 45 H 2.693696 -0.801826 -1.329236 0
M  V30 46 H 3.311459 -1.209216 0.273448 0
M  V30 47 H 4.732366 1.049223 -2.350823 0
M  V30 48 H 6.290076 0.479845 -1.761669 0
M  V30 49 H 6.308059 1.646815 0.137416 0
M  V30 50 H 5.090494 2.682307 -0.774220 0
M  V30 51 H 0.248863 3.452586 3.936646 0
M  V30 52 H -1.772848 4.519542 3.198632 0
M  V30 53 H -3.112799 3.577785 1.429117 0
M  V30 54 H -4.409850 1.891948 -2.662740 0
M  V30 55 H -5.015107 -0.942282 -2.877506 0
M  V30 56 H -5.261410 -3.385181 -2.720783 0
M  V30 57 H -3.652987 -5.454728 -3.085464 0
M  V30 58 H -3.452588 -7.780482 -2.297330 0
M  V30 59 H -4.300339 -8.344682 -0.102828 0
M  V30 60 H -5.359093 -6.560292 1.314052 0
M  V30 61 H -3.156393 -3.164540 0.342351 0
M  V30 62 H -2.213413 -1.121622 1.236814 0
M  V30 63 H -0.344680 0.365496 1.077047 0
M  V30 END ATOM
M  V30 BEGIN BOND
M  V30 1 2 1 2
M  V30 2 1 2 3
M  V30 3 1 3 4
M  V30 4 1 4 5
M  V30 5 1 5 6
M  V30 6 1 6 7
M  V30 7 1 7 8
M  V30 8 1 8 9
M  V30 9 1 9 10
M  V30 10 1 10 11
M  V30 11 1 11 12
M  V30 12 1 2 13
M  V30 13 2 13 14
M  V30 14 1 14 15
M  V30 15 2 15 16
M  V30 16 1 16 17
M  V30 17 1 17 18
M  V30 18 1 18 19
M  V30 19 2 19 20
M  V30 20 1 20 21
M  V30 21 2 21 22
M  V30 22 1 22 23
M  V30 23 1 23 24
M  V30 24 1 24 25
M  V30 25 2 25 26
M  V30 26 1 26 27
M  V30 27 2 27 28
M  V30 28 1 28 29
M  V30 29 2 29 30
M  V30 30 1 30 31
M  V30 31 2 23 32
M  V30 32 1 32 33
M  V30 33 2 33 34
M  V30 34 2 17 35
M  V30 35 1 12 7
M  V30 36 1 35 13
M  V30 37 1 34 18
M  V30 38 1 34 21
M  V30 39 1 30 25
M  V30 40 1 3 36
M  V30 41 1 4 37
M  V30 42 1 4 38
M  V30 43 1 5 39
M  V30 44 1 5 40
M  V30 45 1 6 41
M  V30 46 1 6 42
M  V30 47 1 8 43
M  V30 48 1 8 44
M  V30 49 1 9 45
M  V30 50 1 9 46
M  V30 51 1 11 47
M  V30 52 1 11 48
M  V30 53 1 12 49
M  V30 54 1 12 50
M  V30 55 1 14 51
M  V30 56 1 15 52
M  V30 57 1 16 53
M  V30 58 1 20 54
M  V30 59 1 22 55
M  V30 60 1 24 56
M  V30 61 1 26 57
M  V30 62 1 27 58
M  V30 63 1 28 59
M  V30 64 1 29 60
M  V30 65 1 32 61
M  V30 66 1 33 62
M  V30 67 1 35 63
M  V30 END BOND
M  V30 END CTAB
M  END
>  <Dataset>  (747) 
ChEMBL_Kinases

>  <Ligand_Instance>  (747) 
nan

>  <PDB_ID>  (747) 
nan

>  <Standardized_SMILES>  (747) 
O=C(NCCCN1CCOCC1)c1cccc(-n2ncc3cc(Nc4ccccc4F)ccc32)c1

>  <Name>  (747) 
nan

>  <Pocket>  (747) 
nan

>  <ATP_Site>  (747) 
nan

>  <Peripheral>  (747) 
nan

>  <Num_H_Atoms_ProtBoundConf>  (747) 
nan

>  <Num_Resolved_Atoms>  (747) 
nan

>  <Num_Not_Resolved_Atoms>  (747) 
nan

$$$$
CHEMBL2376917
     RDKit          3D

  0  0  0  0  0  0  0  0  0  0999 V3000
M  V30 BEGIN CTAB
M  V30 COUNTS 67 71 0 0 0
M  V30 BEGIN ATOM
M  V30 1 C 7.433723 -1.185630 2.854517 0
M  V30 2 O 6.796837 0.060657 2.573960 0
M  V30 3 C 7.176403 0.864869 1.521736 0
M  V30 4 C 8.226133 0.431195 0.707936 0
M  V30 5 C 8.665910 1.192885 -0.375521 0
M  V30 6 C 7.991791 2.376741 -0.564965 0
M  V30 7 C 6.952019 2.850131 0.206685 0
M  V30 8 C 6.537138 2.078334 1.269963 0
M  V30 9 N 5.485935 2.418665 2.164074 0
M  V30 10 C 4.348982 1.607209 2.288559 0
M  V30 11 C 4.186445 0.522206 1.425603 0
M  V30 12 C 3.061143 -0.292674 1.545109 0
M  V30 13 C 2.092094 -0.036098 2.519624 0
M  V30 14 C 2.252931 1.037851 3.373569 0
M  V30 15 C 1.130023 0.999404 4.197437 0
M  V30 16 N 0.370731 -0.057930 3.816457 0
M  V30 17 N 0.942544 -0.697837 2.796900 0
M  V30 18 C 0.384868 -1.853253 2.170579 0
M  V30 19 C 1.175845 -2.962783 1.930443 0
M  V30 20 C 0.580074 -4.048005 1.319484 0
M  V30 21 C -0.751304 -3.963781 0.988499 0
M  V30 22 C -1.570697 -2.880442 1.209797 0
M  V30 23 C -2.968724 -2.777579 0.865589 0
M  V30 24 O -3.581068 -1.711251 1.160311 0
M  V30 25 N -3.764068 -3.749595 0.219919 0
M  V30 26 C -5.088353 -3.936052 -0.248772 0
M  V30 27 C -5.577412 -3.094632 -1.364048 0
M  V30 28 C -5.599041 -1.627788 -1.229341 0
M  V30 29 N -6.192972 -0.988386 -2.442827 0
M  V30 30 C -7.566010 -1.333353 -2.452749 0
M  V30 31 C -8.508463 -0.183873 -2.694598 0
M  V30 32 O -8.082347 0.843464 -1.819619 0
M  V30 33 C -6.957163 1.370049 -2.479252 0
M  V30 34 C -5.848281 0.385055 -2.361062 0
M  V30 35 C -0.947425 -1.818308 1.819017 0
M  V30 36 C 3.385880 1.848884 3.245205 0
M  V30 37 H 7.181488 -1.888773 2.049272 0
M  V30 38 H 8.548408 -1.059065 2.945485 0
M  V30 39 H 7.109316 -1.603742 3.811371 0
M  V30 40 H 8.738753 -0.525718 0.896528 0
M  V30 41 H 9.469874 0.895015 -1.026597 0
M  V30 42 H 8.265295 3.037630 -1.385394 0
M  V30 43 H 6.454092 3.774991 0.026989 0
M  V30 44 H 5.560079 3.293876 2.744401 0
M  V30 45 H 4.879407 0.250221 0.643502 0
M  V30 46 H 2.928383 -1.129708 0.884837 0
M  V30 47 H 0.952696 1.717548 4.986567 0
M  V30 48 H 2.221554 -3.010515 2.199010 0
M  V30 49 H 1.165878 -4.946140 1.109884 0
M  V30 50 H -1.170410 -4.839407 0.513097 0
M  V30 51 H -3.112700 -4.588517 0.054065 0
M  V30 52 H -5.196945 -5.016191 -0.561720 0
M  V30 53 H -5.798401 -3.894419 0.641316 0
M  V30 54 H -6.632158 -3.442980 -1.598696 0
M  V30 55 H -5.028400 -3.370435 -2.324756 0
M  V30 56 H -4.562665 -1.208266 -1.137693 0
M  V30 57 H -6.177455 -1.269087 -0.371474 0
M  V30 58 H -7.721545 -2.057386 -3.283266 0
M  V30 59 H -7.908360 -1.864049 -1.522281 0
M  V30 60 H -8.432353 0.155539 -3.743702 0
M  V30 61 H -9.518170 -0.493282 -2.407910 0
M  V30 62 H -6.677290 2.318097 -1.980592 0
M  V30 63 H -7.265893 1.556491 -3.523489 0
M  V30 64 H -5.238868 0.659951 -1.451184 0
M  V30 65 H -5.141717 0.598727 -3.217491 0
M  V30 66 H -1.513899 -0.912401 2.036334 0
M  V30 67 H 3.458650 2.673432 3.940144 0
M  V30 END ATOM
M  V30 BEGIN BOND
M  V30 1 1 1 2
M  V30 2 1 2 3
M  V30 3 2 3 4
M  V30 4 1 4 5
M  V30 5 2 5 6
M  V30 6 1 6 7
M  V30 7 2 7 8
M  V30 8 1 8 9
M  V30 9 1 9 10
M  V30 10 2 10 11
M  V30 11 1 11 12
M  V30 12 2 12 13
M  V30 13 1 13 14
M  V30 14 1 14 15
M  V30 15 2 15 16
M  V30 16 1 16 17
M  V30 17 1 17 18
M  V30 18 2 18 19
M  V30 19 1 19 20
M  V30 20 2 20 21
M  V30 21 1 21 22
M  V30 22 1 22 23
M  V30 23 2 23 24
M  V30 24 1 23 25
M  V30 25 1 25 26
M  V30 26 1 26 27
M  V30 27 1 27 28
M  V30 28 1 28 29
M  V30 29 1 29 30
M  V30 30 1 30 31
M  V30 31 1 31 32
M  V30 32 1 32 33
M  V30 33 1 33 34
M  V30 34 2 22 35
M  V30 35 2 14 36
M  V30 36 1 8 3
M  V30 37 1 36 10
M  V30 38 1 17 13
M  V30 39 1 35 18
M  V30 40 1 34 29
M  V30 41 1 1 37
M  V30 42 1 1 38
M  V30 43 1 1 39
M  V30 44 1 4 40
M  V30 45 1 5 41
M  V30 46 1 6 42
M  V30 47 1 7 43
M  V30 48 1 9 44
M  V30 49 1 11 45
M  V30 50 1 12 46
M  V30 51 1 15 47
M  V30 52 1 19 48
M  V30 53 1 20 49
M  V30 54 1 21 50
M  V30 55 1 25 51
M  V30 56 1 26 52
M  V30 57 1 26 53
M  V30 58 1 27 54
M  V30 59 1 27 55
M  V30 60 1 28 56
M  V30 61 1 28 57
M  V30 62 1 30 58
M  V30 63 1 30 59
M  V30 64 1 31 60
M  V30 65 1 31 61
M  V30 66 1 33 62
M  V30 67 1 33 63
M  V30 68 1 34 64
M  V30 69 1 34 65
M  V30 70 1 35 66
M  V30 71 1 36 67
M  V30 END BOND
M  V30 END CTAB
M  END
>  <Dataset>  (748) 
ChEMBL_Kinases

>  <Ligand_Instance>  (748) 
nan

>  <PDB_ID>  (748) 
nan

>  <Standardized_SMILES>  (748) 
COc1ccccc1Nc1ccc2c(cnn2-c2cccc(C(=O)NCCCN3CCOCC3)c2)c1

>  <Name>  (748) 
nan

>  <Pocket>  (748) 
nan

>  <ATP_Site>  (748) 
nan

>  <Peripheral>  (748) 
nan

>  <Num_H_Atoms_ProtBoundConf>  (748) 
nan

>  <Num_Resolved_Atoms>  (748) 
nan

>  <Num_Not_Resolved_Atoms>  (748) 
nan

$$$$
CHEMBL2376912
     RDKit          3D

  0  0  0  0  0  0  0  0  0  0999 V3000
M  V30 BEGIN CTAB
M  V30 COUNTS 66 70 0 0 0
M  V30 BEGIN ATOM
M  V30 1 C 7.465614 -1.647201 1.365170 0
M  V30 2 O 6.800364 -2.494880 0.478649 0
M  V30 3 C 5.609746 -2.111398 -0.100373 0
M  V30 4 C 4.954472 -0.928318 0.095158 0
M  V30 5 C 3.772726 -0.728585 -0.577731 0
M  V30 6 N 2.943182 0.415955 -0.499446 0
M  V30 7 C 2.871995 1.659657 -1.165419 0
M  V30 8 O 3.684116 1.977321 -2.068393 0
M  V30 9 C 1.837339 2.620406 -0.816195 0
M  V30 10 C 1.876836 3.839334 -1.447180 0
M  V30 11 C 0.888903 4.789929 -1.157174 0
M  V30 12 C -0.115269 4.517652 -0.252430 0
M  V30 13 C -0.178912 3.301846 0.395303 0
M  V30 14 N -1.178733 2.898956 1.343871 0
M  V30 15 N -1.506403 3.311431 2.564928 0
M  V30 16 C -2.545867 2.573009 3.013186 0
M  V30 17 C -2.877062 1.665912 2.032896 0
M  V30 18 C -3.854619 0.672879 1.953872 0
M  V30 19 C -3.998824 -0.130139 0.845083 0
M  V30 20 N -4.962951 -1.153790 0.689400 0
M  V30 21 C -5.958424 -1.625993 1.559749 0
M  V30 22 C -7.278719 -1.515967 1.106111 0
M  V30 23 C -8.374195 -1.940735 1.844974 0
M  V30 24 C -8.149943 -2.497613 3.087475 0
M  V30 25 C -6.857897 -2.605613 3.532382 0
M  V30 26 C -5.770436 -2.187605 2.804982 0
M  V30 27 C -4.391966 -2.317863 3.296596 0
M  V30 28 C -3.118855 0.107133 -0.182761 0
M  V30 29 C -2.155889 1.064831 -0.140472 0
M  V30 30 C -1.995310 1.882964 0.968059 0
M  V30 31 C 0.816654 2.389208 0.081696 0
M  V30 32 C 3.253155 -1.703789 -1.437756 0
M  V30 33 C 3.915291 -2.905862 -1.638633 0
M  V30 34 O 3.416281 -3.883996 -2.487464 0
M  V30 35 C 2.207200 -3.724780 -3.199840 0
M  V30 36 C 5.104171 -3.098564 -0.956667 0
M  V30 37 O 5.741934 -4.325314 -1.184719 0
M  V30 38 C 5.450625 -5.455481 -0.365531 0
M  V30 39 H 6.891683 -0.816599 1.779611 0
M  V30 40 H 8.317356 -1.187504 0.799662 0
M  V30 41 H 7.841862 -2.218808 2.254006 0
M  V30 42 H 5.324298 -0.157687 0.745473 0
M  V30 43 H 2.292488 0.118958 0.266629 0
M  V30 44 H 2.637212 4.120899 -2.172059 0
M  V30 45 H 0.875136 5.751238 -1.619850 0
M  V30 46 H -0.892861 5.229462 -0.008022 0
M  V30 47 H -3.054363 2.638206 3.948742 0
M  V30 48 H -4.528661 0.517572 2.780334 0
M  V30 49 H -5.001239 -1.695835 -0.198285 0
M  V30 50 H -7.499996 -1.076003 0.125596 0
M  V30 51 H -9.386311 -1.826383 1.432766 0
M  V30 52 H -9.045311 -2.807642 3.611424 0
M  V30 53 H -6.701149 -3.044182 4.507634 0
M  V30 54 H -4.253533 -1.575217 4.132186 0
M  V30 55 H -3.626711 -2.200423 2.520824 0
M  V30 56 H -4.247385 -3.324256 3.779741 0
M  V30 57 H -3.185567 -0.485191 -1.067421 0
M  V30 58 H -1.490636 1.209370 -0.973184 0
M  V30 59 H 0.788287 1.430518 0.577483 0
M  V30 60 H 2.330629 -1.601632 -1.992849 0
M  V30 61 H 1.329995 -3.828190 -2.538872 0
M  V30 62 H 2.087101 -4.488786 -3.989865 0
M  V30 63 H 2.237975 -2.738926 -3.687939 0
M  V30 64 H 4.594698 -5.242498 0.311817 0
M  V30 65 H 6.373632 -5.659173 0.219609 0
M  V30 66 H 5.207824 -6.320522 -1.009311 0
M  V30 END ATOM
M  V30 BEGIN BOND
M  V30 1 1 1 2
M  V30 2 1 2 3
M  V30 3 2 3 4
M  V30 4 1 4 5
M  V30 5 1 5 6
M  V30 6 1 6 7
M  V30 7 2 7 8
M  V30 8 1 7 9
M  V30 9 2 9 10
M  V30 10 1 10 11
M  V30 11 2 11 12
M  V30 12 1 12 13
M  V30 13 1 13 14
M  V30 14 1 14 15
M  V30 15 2 15 16
M  V30 16 1 16 17
M  V30 17 2 17 18
M  V30 18 1 18 19
M  V30 19 1 19 20
M  V30 20 1 20 21
M  V30 21 2 21 22
M  V30 22 1 22 23
M  V30 23 2 23 24
M  V30 24 1 24 25
M  V30 25 2 25 26
M  V30 26 1 26 27
M  V30 27 2 19 28
M  V30 28 1 28 29
M  V30 29 2 29 30
M  V30 30 2 13 31
M  V30 31 2 5 32
M  V30 32 1 32 33
M  V30 33 1 33 34
M  V30 34 1 34 35
M  V30 35 2 33 36
M  V30 36 1 36 37
M  V30 37 1 37 38
M  V30 38 1 36 3
M  V30 39 1 31 9
M  V30 40 1 30 14
M  V30 41 1 30 17
M  V30 42 1 26 21
M  V30 43 1 1 39
M  V30 44 1 1 40
M  V30 45 1 1 41
M  V30 46 1 4 42
M  V30 47 1 6 43
M  V30 48 1 10 44
M  V30 49 1 11 45
M  V30 50 1 12 46
M  V30 51 1 16 47
M  V30 52 1 18 48
M  V30 53 1 20 49
M  V30 54 1 22 50
M  V30 55 1 23 51
M  V30 56 1 24 52
M  V30 57 1 25 53
M  V30 58 1 27 54
M  V30 59 1 27 55
M  V30 60 1 27 56
M  V30 61 1 28 57
M  V30 62 1 29 58
M  V30 63 1 31 59
M  V30 64 1 32 60
M  V30 65 1 35 61
M  V30 66 1 35 62
M  V30 67 1 35 63
M  V30 68 1 38 64
M  V30 69 1 38 65
M  V30 70 1 38 66
M  V30 END BOND
M  V30 END CTAB
M  END
>  <Dataset>  (749) 
ChEMBL_Kinases

>  <Ligand_Instance>  (749) 
nan

>  <PDB_ID>  (749) 
nan

>  <Standardized_SMILES>  (749) 
COc1cc(NC(=O)c2cccc(-n3ncc4cc(Nc5ccccc5C)ccc43)c2)cc(OC)c1OC

>  <Name>  (749) 
nan

>  <Pocket>  (749) 
nan

>  <ATP_Site>  (749) 
nan

>  <Peripheral>  (749) 
nan

>  <Num_H_Atoms_ProtBoundConf>  (749) 
nan

>  <Num_Resolved_Atoms>  (749) 
nan

>  <Num_Not_Resolved_Atoms>  (749) 
nan

$$$$
CHEMBL2376907
     RDKit          3D

  0  0  0  0  0  0  0  0  0  0999 V3000
M  V30 BEGIN CTAB
M  V30 COUNTS 63 66 0 0 0
M  V30 BEGIN ATOM
M  V30 1 C 6.707404 -0.498771 3.113610 0
M  V30 2 C 6.230435 0.882404 3.421655 0
M  V30 3 C 6.522651 1.423640 4.655436 0
M  V30 4 C 6.104884 2.706709 5.002255 0
M  V30 5 C 5.373687 3.462552 4.079589 0
M  V30 6 C 5.069921 2.927112 2.824377 0
M  V30 7 C 4.289775 3.726235 1.834583 0
M  V30 8 C 2.820827 3.441123 2.027628 0
M  V30 9 O 2.804471 2.612377 2.980944 0
M  V30 10 N 1.743832 3.996066 1.288419 0
M  V30 11 C 0.553066 3.417173 1.845134 0
M  V30 12 C -0.216611 3.903083 2.890485 0
M  V30 13 N -1.212851 2.997212 3.023909 0
M  V30 14 N -1.097182 2.016642 2.145677 0
M  V30 15 C -1.942062 0.878263 1.967142 0
M  V30 16 C -2.668118 0.347993 3.021366 0
M  V30 17 C -3.493426 -0.751380 2.883468 0
M  V30 18 C -3.609341 -1.360444 1.641212 0
M  V30 19 C -2.894678 -0.849849 0.572643 0
M  V30 20 C -2.941854 -1.406618 -0.775380 0
M  V30 21 O -2.292673 -0.960031 -1.778104 0
M  V30 22 N -3.734909 -2.528712 -1.112320 0
M  V30 23 C -3.785666 -3.093121 -2.471548 0
M  V30 24 C -5.170754 -3.085520 -3.020326 0
M  V30 25 C -5.434986 -4.428256 -3.665806 0
M  V30 26 O -4.358843 -4.875126 -4.431052 0
M  V30 27 C -3.228857 -5.125513 -3.699434 0
M  V30 28 C -1.979239 -4.533303 -4.344208 0
M  V30 29 C -2.921464 -6.598320 -3.510480 0
M  V30 30 C -3.332384 -4.528330 -2.316331 0
M  V30 31 C -2.062698 0.263413 0.724754 0
M  V30 32 C -0.001094 2.236279 1.381313 0
M  V30 33 C 5.510606 1.648376 2.535588 0
M  V30 34 H 6.438347 -0.813314 2.104498 0
M  V30 35 H 7.804494 -0.515738 3.314223 0
M  V30 36 H 6.228351 -1.201039 3.825422 0
M  V30 37 H 7.089465 0.891377 5.425375 0
M  V30 38 H 6.340041 3.131331 5.982882 0
M  V30 39 H 5.051111 4.470537 4.364927 0
M  V30 40 H 4.567497 3.432581 0.818877 0
M  V30 41 H 4.503132 4.794584 2.012717 0
M  V30 42 H 2.051446 4.667977 0.543101 0
M  V30 43 H -0.040205 4.804119 3.455671 0
M  V30 44 H -2.543427 0.862388 3.980709 0
M  V30 45 H -4.047629 -1.144882 3.720163 0
M  V30 46 H -4.236840 -2.214952 1.485242 0
M  V30 47 H -4.321572 -3.002706 -0.391207 0
M  V30 48 H -3.127084 -2.527958 -3.153511 0
M  V30 49 H -5.876848 -3.022411 -2.157914 0
M  V30 50 H -5.334775 -2.282860 -3.766179 0
M  V30 51 H -5.641335 -5.226956 -2.900572 0
M  V30 52 H -6.358020 -4.407744 -4.283193 0
M  V30 53 H -2.221905 -3.516147 -4.704282 0
M  V30 54 H -1.551159 -5.205808 -5.107092 0
M  V30 55 H -1.233550 -4.413493 -3.528414 0
M  V30 56 H -2.856016 -7.112407 -4.480559 0
M  V30 57 H -1.901816 -6.615570 -3.025317 0
M  V30 58 H -3.615453 -7.071191 -2.780563 0
M  V30 59 H -2.311266 -4.473236 -1.849976 0
M  V30 60 H -4.044562 -5.064466 -1.661197 0
M  V30 61 H -1.478270 0.707859 -0.075100 0
M  V30 62 H 0.392735 1.633279 0.564444 0
M  V30 63 H 5.267782 1.240922 1.550919 0
M  V30 END ATOM
M  V30 BEGIN BOND
M  V30 1 1 1 2
M  V30 2 2 2 3
M  V30 3 1 3 4
M  V30 4 2 4 5
M  V30 5 1 5 6
M  V30 6 1 6 7
M  V30 7 1 7 8
M  V30 8 2 8 9
M  V30 9 1 8 10
M  V30 10 1 10 11
M  V30 11 1 11 12
M  V30 12 2 12 13
M  V30 13 1 13 14
M  V30 14 1 14 15
M  V30 15 2 15 16
M  V30 16 1 16 17
M  V30 17 2 17 18
M  V30 18 1 18 19
M  V30 19 1 19 20
M  V30 20 2 20 21
M  V30 21 1 20 22
M  V30 22 1 22 23
M  V30 23 1 23 24
M  V30 24 1 24 25
M  V30 25 1 25 26
M  V30 26 1 26 27
M  V30 27 1 27 28
M  V30 28 1 27 29
M  V30 29 1 27 30
M  V30 30 2 19 31
M  V30 31 1 14 32
M  V30 32 2 6 33
M  V30 33 1 33 2
M  V30 34 2 32 11
M  V30 35 1 31 15
M  V30 36 1 30 23
M  V30 37 1 1 34
M  V30 38 1 1 35
M  V30 39 1 1 36
M  V30 40 1 3 37
M  V30 41 1 4 38
M  V30 42 1 5 39
M  V30 43 1 7 40
M  V30 44 1 7 41
M  V30 45 1 10 42
M  V30 46 1 12 43
M  V30 47 1 16 44
M  V30 48 1 17 45
M  V30 49 1 18 46
M  V30 50 1 22 47
M  V30 51 1 23 48
M  V30 52 1 24 49
M  V30 53 1 24 50
M  V30 54 1 25 51
M  V30 55 1 25 52
M  V30 56 1 28 53
M  V30 57 1 28 54
M  V30 58 1 28 55
M  V30 59 1 29 56
M  V30 60 1 29 57
M  V30 61 1 29 58
M  V30 62 1 30 59
M  V30 63 1 30 60
M  V30 64 1 31 61
M  V30 65 1 32 62
M  V30 66 1 33 63
M  V30 END BOND
M  V30 END CTAB
M  END
>  <Dataset>  (750) 
ChEMBL_Kinases

>  <Ligand_Instance>  (750) 
nan

>  <PDB_ID>  (750) 
nan

>  <Standardized_SMILES>  (750) 
Cc1cccc(CC(=O)Nc2cnn(-c3cccc(C(=O)NC4CCOC(C)(C)C4)c3)c2)c1

>  <Name>  (750) 
nan

>  <Pocket>  (750) 
nan

>  <ATP_Site>  (750) 
nan

>  <Peripheral>  (750) 
nan

>  <Num_H_Atoms_ProtBoundConf>  (750) 
nan

>  <Num_Resolved_Atoms>  (750) 
nan

>  <Num_Not_Resolved_Atoms>  (750) 
nan

$$$$
CHEMBL2376686
     RDKit          3D

  0  0  0  0  0  0  0  0  0  0999 V3000
M  V30 BEGIN CTAB
M  V30 COUNTS 52 54 0 0 0
M  V30 BEGIN ATOM
M  V30 1 C 2.229834 -3.191711 3.002320 0
M  V30 2 C 3.666174 -2.736002 2.827978 0
M  V30 3 C 4.276387 -2.352299 4.137713 0
M  V30 4 C 3.626541 -1.582112 1.869330 0
M  V30 5 O 3.981496 -0.359003 1.964929 0
M  V30 6 N 3.107164 -1.802196 0.576424 0
M  V30 7 C 3.098163 -0.666094 -0.283657 0
M  V30 8 C 4.125598 -0.333395 -1.109544 0
M  V30 9 C 4.009005 0.793625 -1.902784 0
M  V30 10 C 2.837705 1.561457 -1.834761 0
M  V30 11 C 1.799174 1.213767 -0.991272 0
M  V30 12 O 0.784758 2.146837 -1.132957 0
M  V30 13 C -0.436029 2.026092 -0.523437 0
M  V30 14 C -0.704132 3.011681 0.401764 0
M  V30 15 C -1.880934 3.048920 1.110879 0
M  V30 16 F -2.133076 4.022430 2.014196 0
M  V30 17 C -2.789505 2.027095 0.840761 0
M  V30 18 C -2.584225 0.988239 -0.087216 0
M  V30 19 N -3.681936 0.115108 -0.128756 0
M  V30 20 C -4.021892 -1.195098 0.280361 0
M  V30 21 C -5.132028 -0.985447 1.138648 0
M  V30 22 C -5.826299 -1.994411 1.819575 0
M  V30 23 C -5.392698 -3.286476 1.637114 0
M  V30 24 I -6.271035 -4.960504 2.553322 0
M  V30 25 C -4.323458 -3.549604 0.818062 0
M  V30 26 C -3.694591 -2.515014 0.186576 0
M  V30 27 F -2.641236 -2.713324 -0.599242 0
M  V30 28 C -1.387607 1.068932 -0.723545 0
M  V30 29 C -1.208127 0.144058 -1.801570 0
M  V30 30 N -0.116015 -0.148824 -2.655359 0
M  V30 31 O -1.844581 -0.730442 -2.425255 0
M  V30 32 C 1.944371 0.082018 -0.210363 0
M  V30 33 H 1.631496 -2.457580 3.576992 0
M  V30 34 H 1.748607 -3.264406 1.998596 0
M  V30 35 H 2.168760 -4.149093 3.557725 0
M  V30 36 H 4.208287 -3.600698 2.378802 0
M  V30 37 H 5.067144 -3.078246 4.397545 0
M  V30 38 H 3.469926 -2.384444 4.916092 0
M  V30 39 H 4.731077 -1.337385 4.097939 0
M  V30 40 H 2.738505 -2.737263 0.231146 0
M  V30 41 H 4.958954 -1.017004 -1.053445 0
M  V30 42 H 4.863595 0.996378 -2.533439 0
M  V30 43 H 2.922115 2.402336 -2.522141 0
M  V30 44 H -0.007644 3.812799 0.625952 0
M  V30 45 H -3.709889 2.121754 1.447119 0
M  V30 46 H -4.419169 0.682578 -0.660133 0
M  V30 47 H -5.649262 -0.050511 1.432497 0
M  V30 48 H -6.664711 -1.929934 2.479768 0
M  V30 49 H -3.918796 -4.510968 0.616555 0
M  V30 50 H 0.105344 0.401214 -3.539454 0
M  V30 51 H 0.654773 -0.883607 -2.632364 0
M  V30 52 H 1.048265 -0.060768 0.397701 0
M  V30 END ATOM
M  V30 BEGIN BOND
M  V30 1 1 1 2
M  V30 2 1 2 3
M  V30 3 1 2 4
M  V30 4 2 4 5
M  V30 5 1 4 6
M  V30 6 1 6 7
M  V30 7 2 7 8
M  V30 8 1 8 9
M  V30 9 2 9 10
M  V30 10 1 10 11
M  V30 11 1 11 12
M  V30 12 1 12 13
M  V30 13 2 13 14
M  V30 14 1 14 15
M  V30 15 1 15 16
M  V30 16 2 15 17
M  V30 17 1 17 18
M  V30 18 1 18 19
M  V30 19 1 19 20
M  V30 20 2 20 21
M  V30 21 1 21 22
M  V30 22 2 22 23
M  V30 23 1 23 24
M  V30 24 1 23 25
M  V30 25 2 25 26
M  V30 26 1 26 27
M  V30 27 2 18 28
M  V30 28 1 28 29
M  V30 29 1 29 30
M  V30 30 2 29 31
M  V30 31 2 11 32
M  V30 32 1 32 7
M  V30 33 1 28 13
M  V30 34 1 26 20
M  V30 35 1 1 33
M  V30 36 1 1 34
M  V30 37 1 1 35
M  V30 38 1 2 36
M  V30 39 1 3 37
M  V30 40 1 3 38
M  V30 41 1 3 39
M  V30 42 1 6 40
M  V30 43 1 8 41
M  V30 44 1 9 42
M  V30 45 1 10 43
M  V30 46 1 14 44
M  V30 47 1 17 45
M  V30 48 1 19 46
M  V30 49 1 21 47
M  V30 50 1 22 48
M  V30 51 1 25 49
M  V30 52 1 30 50
M  V30 53 1 30 51
M  V30 54 1 32 52
M  V30 END BOND
M  V30 END CTAB
M  END
>  <Dataset>  (751) 
ChEMBL_Kinases

>  <Ligand_Instance>  (751) 
nan

>  <PDB_ID>  (751) 
nan

>  <Standardized_SMILES>  (751) 
CC(C)C(=O)Nc1cccc(Oc2cc(F)cc(Nc3ccc(I)cc3F)c2C(N)=O)c1

>  <Name>  (751) 
nan

>  <Pocket>  (751) 
nan

>  <ATP_Site>  (751) 
nan

>  <Peripheral>  (751) 
nan

>  <Num_H_Atoms_ProtBoundConf>  (751) 
nan

>  <Num_Resolved_Atoms>  (751) 
nan

>  <Num_Not_Resolved_Atoms>  (751) 
nan

$$$$
CHEMBL2376685
     RDKit          3D

  0  0  0  0  0  0  0  0  0  0999 V3000
M  V30 BEGIN CTAB
M  V30 COUNTS 46 48 0 0 0
M  V30 BEGIN ATOM
M  V30 1 C -3.342423 -2.195429 6.892708 0
M  V30 2 C -2.763388 -1.471476 5.712171 0
M  V30 3 O -2.976453 -1.683243 4.481451 0
M  V30 4 N -1.861392 -0.411098 5.928034 0
M  V30 5 C -1.390738 0.185527 4.724989 0
M  V30 6 C -0.259770 -0.353408 4.193667 0
M  V30 7 C 0.325593 0.107199 3.034234 0
M  V30 8 C -0.264862 1.179880 2.365341 0
M  V30 9 O 0.069679 1.859028 1.205405 0
M  V30 10 C 1.119072 1.524890 0.388408 0
M  V30 11 C 2.078858 2.505458 0.303110 0
M  V30 12 C 3.196694 2.315619 -0.480485 0
M  V30 13 F 4.160135 3.249295 -0.591413 0
M  V30 14 C 3.335311 1.132605 -1.174142 0
M  V30 15 C 2.407307 0.110911 -1.131152 0
M  V30 16 N 2.668399 -1.050471 -1.882943 0
M  V30 17 C 2.018001 -1.653994 -2.963095 0
M  V30 18 C 0.891798 -1.199740 -3.614398 0
M  V30 19 C 0.271364 -1.814982 -4.676049 0
M  V30 20 C 0.804225 -2.995584 -5.151994 0
M  V30 21 I -0.049343 -4.027216 -6.763226 0
M  V30 22 C 1.927119 -3.470768 -4.520527 0
M  V30 23 C 2.526714 -2.833479 -3.459913 0
M  V30 24 F 3.637138 -3.398095 -2.912361 0
M  V30 25 C 1.334845 0.384510 -0.331444 0
M  V30 26 C 0.326808 -0.647828 -0.223938 0
M  V30 27 N -0.921300 -1.076050 0.273825 0
M  V30 28 O 0.098476 -1.816666 -0.603797 0
M  V30 29 C -1.425588 1.742293 2.899455 0
M  V30 30 C -1.993652 1.249059 4.079924 0
M  V30 31 H -3.878152 -3.083333 6.482402 0
M  V30 32 H -2.563869 -2.571609 7.584942 0
M  V30 33 H -4.087042 -1.556857 7.407866 0
M  V30 34 H -1.558515 -0.084541 6.892613 0
M  V30 35 H 0.257308 -1.173931 4.637539 0
M  V30 36 H 1.201817 -0.212330 2.505587 0
M  V30 37 H 2.033639 3.451965 0.817179 0
M  V30 38 H 4.233561 1.005031 -1.790263 0
M  V30 39 H 3.532146 -1.473178 -1.478495 0
M  V30 40 H 0.462296 -0.258793 -3.239454 0
M  V30 41 H -0.617800 -1.383313 -5.131209 0
M  V30 42 H 2.339504 -4.413690 -4.912534 0
M  V30 43 H -1.760857 -0.470673 0.523038 0
M  V30 44 H -1.760437 -0.470496 0.522868 0
M  V30 45 H -2.011577 2.570333 2.518249 0
M  V30 46 H -2.882351 1.632202 4.545728 0
M  V30 END ATOM
M  V30 BEGIN BOND
M  V30 1 1 1 2
M  V30 2 2 2 3
M  V30 3 1 2 4
M  V30 4 1 4 5
M  V30 5 2 5 6
M  V30 6 1 6 7
M  V30 7 2 7 8
M  V30 8 1 8 9
M  V30 9 1 9 10
M  V30 10 2 10 11
M  V30 11 1 11 12
M  V30 12 1 12 13
M  V30 13 2 12 14
M  V30 14 1 14 15
M  V30 15 1 15 16
M  V30 16 1 16 17
M  V30 17 2 17 18
M  V30 18 1 18 19
M  V30 19 2 19 20
M  V30 20 1 20 21
M  V30 21 1 20 22
M  V30 22 2 22 23
M  V30 23 1 23 24
M  V30 24 2 15 25
M  V30 25 1 25 26
M  V30 26 1 26 27
M  V30 27 2 26 28
M  V30 28 1 8 29
M  V30 29 2 29 30
M  V30 30 1 30 5
M  V30 31 1 25 10
M  V30 32 1 23 17
M  V30 33 1 1 31
M  V30 34 1 1 32
M  V30 35 1 1 33
M  V30 36 1 4 34
M  V30 37 1 6 35
M  V30 38 1 7 36
M  V30 39 1 11 37
M  V30 40 1 14 38
M  V30 41 1 16 39
M  V30 42 1 18 40
M  V30 43 1 19 41
M  V30 44 1 22 42
M  V30 45 1 27 43
M  V30 46 1 27 44
M  V30 47 1 29 45
M  V30 48 1 30 46
M  V30 END BOND
M  V30 END CTAB
M  END
>  <Dataset>  (752) 
ChEMBL_Kinases

>  <Ligand_Instance>  (752) 
nan

>  <PDB_ID>  (752) 
nan

>  <Standardized_SMILES>  (752) 
CC(=O)Nc1ccc(Oc2cc(F)cc(Nc3ccc(I)cc3F)c2C(N)=O)cc1

>  <Name>  (752) 
nan

>  <Pocket>  (752) 
nan

>  <ATP_Site>  (752) 
nan

>  <Peripheral>  (752) 
nan

>  <Num_H_Atoms_ProtBoundConf>  (752) 
nan

>  <Num_Resolved_Atoms>  (752) 
nan

>  <Num_Not_Resolved_Atoms>  (752) 
nan

$$$$
CHEMBL2376684
     RDKit          3D

  0  0  0  0  0  0  0  0  0  0999 V3000
M  V30 BEGIN CTAB
M  V30 COUNTS 46 48 0 0 0
M  V30 BEGIN ATOM
M  V30 1 C 2.895860 3.821509 2.529375 0
M  V30 2 C 2.990747 2.945942 1.349837 0
M  V30 3 O 3.703199 1.898331 1.229382 0
M  V30 4 N 2.198842 3.317460 0.228148 0
M  V30 5 C 2.263157 2.486348 -0.941003 0
M  V30 6 C 3.161736 2.669899 -1.970646 0
M  V30 7 C 3.105848 1.785453 -3.045277 0
M  V30 8 C 2.157120 0.754179 -3.050335 0
M  V30 9 C 1.259565 0.594519 -1.989015 0
M  V30 10 O 0.438080 -0.500480 -2.259786 0
M  V30 11 C -0.441644 -0.957755 -1.304868 0
M  V30 12 C -1.783820 -0.842930 -1.597697 0
M  V30 13 C -2.781534 -1.253850 -0.743404 0
M  V30 14 F -4.083995 -1.126340 -1.061824 0
M  V30 15 C -2.484917 -1.814159 0.476392 0
M  V30 16 C -1.136598 -1.951016 0.814799 0
M  V30 17 N -0.753737 -2.532174 2.049205 0
M  V30 18 C -1.669974 -3.004032 3.015010 0
M  V30 19 C -1.565007 -4.378013 3.269264 0
M  V30 20 C -2.369866 -4.989254 4.180150 0
M  V30 21 C -3.324823 -4.319365 4.903296 0
M  V30 22 I -4.566337 -5.268095 6.306966 0
M  V30 23 C -3.422840 -2.949296 4.644914 0
M  V30 24 C -2.630302 -2.283350 3.732257 0
M  V30 25 F -2.684465 -0.978100 3.462843 0
M  V30 26 C -0.205386 -1.519132 -0.089253 0
M  V30 27 C 1.150500 -1.745028 0.338866 0
M  V30 28 N 2.311066 -1.533758 -0.475772 0
M  V30 29 O 2.073837 -2.066973 1.107123 0
M  V30 30 C 1.322365 1.487739 -0.913185 0
M  V30 31 H 3.649064 3.592052 3.299721 0
M  V30 32 H 1.906959 3.747286 3.043557 0
M  V30 33 H 3.010353 4.853210 2.193799 0
M  V30 34 H 1.567932 4.168306 0.211077 0
M  V30 35 H 3.841687 3.499099 -1.849085 0
M  V30 36 H 3.827670 1.981054 -3.808771 0
M  V30 37 H 2.251014 0.163518 -3.953721 0
M  V30 38 H -2.104203 -0.409621 -2.543501 0
M  V30 39 H -3.274779 -2.128204 1.127131 0
M  V30 40 H 0.229411 -2.662891 2.359586 0
M  V30 41 H -0.831323 -5.009823 2.745236 0
M  V30 42 H -2.258130 -6.073020 4.350290 0
M  V30 43 H -4.163956 -2.376980 5.191435 0
M  V30 44 H 3.138370 -1.381521 -1.053337 0
M  V30 45 H 2.395458 -1.983839 -1.421684 0
M  V30 46 H 0.576095 1.226625 -0.199594 0
M  V30 END ATOM
M  V30 BEGIN BOND
M  V30 1 1 1 2
M  V30 2 2 2 3
M  V30 3 1 2 4
M  V30 4 1 4 5
M  V30 5 2 5 6
M  V30 6 1 6 7
M  V30 7 2 7 8
M  V30 8 1 8 9
M  V30 9 1 9 10
M  V30 10 1 10 11
M  V30 11 2 11 12
M  V30 12 1 12 13
M  V30 13 1 13 14
M  V30 14 2 13 15
M  V30 15 1 15 16
M  V30 16 1 16 17
M  V30 17 1 17 18
M  V30 18 2 18 19
M  V30 19 1 19 20
M  V30 20 2 20 21
M  V30 21 1 21 22
M  V30 22 1 21 23
M  V30 23 2 23 24
M  V30 24 1 24 25
M  V30 25 2 16 26
M  V30 26 1 26 27
M  V30 27 1 27 28
M  V30 28 2 27 29
M  V30 29 2 9 30
M  V30 30 1 30 5
M  V30 31 1 26 11
M  V30 32 1 24 18
M  V30 33 1 1 31
M  V30 34 1 1 32
M  V30 35 1 1 33
M  V30 36 1 4 34
M  V30 37 1 6 35
M  V30 38 1 7 36
M  V30 39 1 8 37
M  V30 40 1 12 38
M  V30 41 1 15 39
M  V30 42 1 17 40
M  V30 43 1 19 41
M  V30 44 1 20 42
M  V30 45 1 23 43
M  V30 46 1 28 44
M  V30 47 1 28 45
M  V30 48 1 30 46
M  V30 END BOND
M  V30 END CTAB
M  END
>  <Dataset>  (753) 
ChEMBL_Kinases

>  <Ligand_Instance>  (753) 
nan

>  <PDB_ID>  (753) 
nan

>  <Standardized_SMILES>  (753) 
CC(=O)Nc1cccc(Oc2cc(F)cc(Nc3ccc(I)cc3F)c2C(N)=O)c1

>  <Name>  (753) 
nan

>  <Pocket>  (753) 
nan

>  <ATP_Site>  (753) 
nan

>  <Peripheral>  (753) 
nan

>  <Num_H_Atoms_ProtBoundConf>  (753) 
nan

>  <Num_Resolved_Atoms>  (753) 
nan

>  <Num_Not_Resolved_Atoms>  (753) 
nan

$$$$
CHEMBL2376683
     RDKit          3D

  0  0  0  0  0  0  0  0  0  0999 V3000
M  V30 BEGIN CTAB
M  V30 COUNTS 42 45 0 0 0
M  V30 BEGIN ATOM
M  V30 1 N -2.058726 -0.255113 0.082550 0
M  V30 2 C -1.081075 0.661616 0.556869 0
M  V30 3 O -1.730618 1.606221 0.088867 0
M  V30 4 C 0.107026 0.258226 1.282595 0
M  V30 5 C 0.989504 1.227238 1.694697 0
M  V30 6 N 0.857294 2.620815 1.474842 0
M  V30 7 C 0.757529 3.577298 0.428802 0
M  V30 8 C -0.252513 4.473953 0.160825 0
M  V30 9 C -0.088068 5.292759 -0.931921 0
M  V30 10 C 1.013088 5.256311 -1.748155 0
M  V30 11 I 1.113555 6.580145 -3.385837 0
M  V30 12 C 2.028748 4.360915 -1.485956 0
M  V30 13 C 1.895518 3.511221 -0.381226 0
M  V30 14 F 2.953290 2.683414 -0.231496 0
M  V30 15 C 2.123738 0.861170 2.388380 0
M  V30 16 C 2.323552 -0.479730 2.640332 0
M  V30 17 F 3.412964 -0.920244 3.315623 0
M  V30 18 C 1.406828 -1.412602 2.204601 0
M  V30 19 C 0.261434 -1.087926 1.508766 0
M  V30 20 O -0.678593 -2.002853 1.057762 0
M  V30 21 C -0.508442 -3.360449 1.294203 0
M  V30 22 C -0.933683 -4.120995 2.362695 0
M  V30 23 C -0.647747 -5.473494 2.388906 0
M  V30 24 C 0.057046 -6.049439 1.351710 0
M  V30 25 C 0.465244 -7.358120 1.140577 0
M  V30 26 N 1.128396 -7.390806 -0.038786 0
M  V30 27 N 1.147891 -6.161495 -0.564984 0
M  V30 28 C 0.499968 -5.310554 0.260080 0
M  V30 29 C 0.203569 -3.949915 0.249430 0
M  V30 30 H -2.930724 -0.619744 0.566153 0
M  V30 31 H -2.122241 -0.761277 -0.840492 0
M  V30 32 H 0.810830 3.211599 2.332960 0
M  V30 33 H -1.073055 4.423282 0.860785 0
M  V30 34 H -0.915208 5.987646 -1.105038 0
M  V30 35 H 2.882124 4.358731 -2.149184 0
M  V30 36 H 2.862843 1.544129 2.746735 0
M  V30 37 H 1.593539 -2.465413 2.419512 0
M  V30 38 H -1.473368 -3.551117 3.105429 0
M  V30 39 H -1.006871 -6.019120 3.252647 0
M  V30 40 H 0.291431 -8.214946 1.795439 0
M  V30 41 H 1.591554 -5.866516 -1.480592 0
M  V30 42 H 0.587322 -3.457364 -0.637393 0
M  V30 END ATOM
M  V30 BEGIN BOND
M  V30 1 1 1 2
M  V30 2 2 2 3
M  V30 3 1 2 4
M  V30 4 2 4 5
M  V30 5 1 5 6
M  V30 6 1 6 7
M  V30 7 2 7 8
M  V30 8 1 8 9
M  V30 9 2 9 10
M  V30 10 1 10 11
M  V30 11 1 10 12
M  V30 12 2 12 13
M  V30 13 1 13 14
M  V30 14 1 5 15
M  V30 15 2 15 16
M  V30 16 1 16 17
M  V30 17 1 16 18
M  V30 18 2 18 19
M  V30 19 1 19 20
M  V30 20 1 20 21
M  V30 21 2 21 22
M  V30 22 1 22 23
M  V30 23 2 23 24
M  V30 24 1 24 25
M  V30 25 2 25 26
M  V30 26 1 26 27
M  V30 27 1 27 28
M  V30 28 2 28 29
M  V30 29 1 19 4
M  V30 30 1 29 21
M  V30 31 1 13 7
M  V30 32 1 28 24
M  V30 33 1 1 30
M  V30 34 1 1 31
M  V30 35 1 6 32
M  V30 36 1 8 33
M  V30 37 1 9 34
M  V30 38 1 12 35
M  V30 39 1 15 36
M  V30 40 1 18 37
M  V30 41 1 22 38
M  V30 42 1 23 39
M  V30 43 1 25 40
M  V30 44 1 27 41
M  V30 45 1 29 42
M  V30 END BOND
M  V30 END CTAB
M  END
>  <Dataset>  (754) 
ChEMBL_Kinases

>  <Ligand_Instance>  (754) 
nan

>  <PDB_ID>  (754) 
nan

>  <Standardized_SMILES>  (754) 
NC(=O)c1c(Nc2ccc(I)cc2F)cc(F)cc1Oc1ccc2cn[nH]c2c1

>  <Name>  (754) 
nan

>  <Pocket>  (754) 
nan

>  <ATP_Site>  (754) 
nan

>  <Peripheral>  (754) 
nan

>  <Num_H_Atoms_ProtBoundConf>  (754) 
nan

>  <Num_Resolved_Atoms>  (754) 
nan

>  <Num_Not_Resolved_Atoms>  (754) 
nan

$$$$
CHEMBL2376682
     RDKit          3D

  0  0  0  0  0  0  0  0  0  0999 V3000
M  V30 BEGIN CTAB
M  V30 COUNTS 38 40 0 0 0
M  V30 BEGIN ATOM
M  V30 1 N 0.888379 -2.590120 1.566785 0
M  V30 2 C 0.787433 -1.179588 1.663400 0
M  V30 3 O 2.017588 -1.141692 1.420636 0
M  V30 4 C -0.210411 -0.184470 1.917775 0
M  V30 5 C 0.188449 1.123957 1.909270 0
M  V30 6 N 1.465130 1.658030 1.622031 0
M  V30 7 C 2.264504 1.663453 0.448753 0
M  V30 8 C 1.948591 1.134933 -0.782855 0
M  V30 9 C 2.761613 1.171575 -1.874522 0
M  V30 10 C 3.989466 1.773279 -1.764099 0
M  V30 11 I 5.306402 1.871908 -3.405880 0
M  V30 12 C 4.331463 2.307415 -0.553221 0
M  V30 13 C 3.501282 2.264035 0.542278 0
M  V30 14 F 3.944394 2.830452 1.706641 0
M  V30 15 C -0.827695 2.031380 2.239503 0
M  V30 16 C -2.142728 1.711575 2.556851 0
M  V30 17 F -3.021215 2.670128 2.855883 0
M  V30 18 C -2.427775 0.359783 2.530421 0
M  V30 19 C -1.471163 -0.583251 2.213022 0
M  V30 20 O -1.973528 -1.866742 2.246652 0
M  V30 21 C -2.065644 -2.718856 1.159260 0
M  V30 22 C -1.808721 -2.577315 -0.208310 0
M  V30 23 C -2.007941 -3.651223 -1.046118 0
M  V30 24 C -2.455211 -4.865820 -0.571530 0
M  V30 25 N -2.706236 -5.005285 0.762345 0
M  V30 26 C -2.519310 -3.967900 1.607024 0
M  V30 27 H 1.084753 -3.359454 2.274922 0
M  V30 28 H 0.804073 -3.300835 0.806184 0
M  V30 29 H 1.779886 2.096519 2.487134 0
M  V30 30 H 0.964329 0.660517 -0.845885 0
M  V30 31 H 2.428341 0.728437 -2.805420 0
M  V30 32 H 5.300298 2.783020 -0.463416 0
M  V30 33 H -0.583121 3.101274 2.254870 0
M  V30 34 H -3.468707 0.128094 2.782694 0
M  V30 35 H -1.470423 -1.567976 -0.388795 0
M  V30 36 H -1.775187 -3.415304 -2.073002 0
M  V30 37 H -2.575182 -5.635731 -1.318636 0
M  V30 38 H -2.771458 -4.279335 2.609536 0
M  V30 END ATOM
M  V30 BEGIN BOND
M  V30 1 1 1 2
M  V30 2 2 2 3
M  V30 3 1 2 4
M  V30 4 2 4 5
M  V30 5 1 5 6
M  V30 6 1 6 7
M  V30 7 2 7 8
M  V30 8 1 8 9
M  V30 9 2 9 10
M  V30 10 1 10 11
M  V30 11 1 10 12
M  V30 12 2 12 13
M  V30 13 1 13 14
M  V30 14 1 5 15
M  V30 15 2 15 16
M  V30 16 1 16 17
M  V30 17 1 16 18
M  V30 18 2 18 19
M  V30 19 1 19 20
M  V30 20 1 20 21
M  V30 21 2 21 22
M  V30 22 1 22 23
M  V30 23 2 23 24
M  V30 24 1 24 25
M  V30 25 2 25 26
M  V30 26 1 19 4
M  V30 27 1 26 21
M  V30 28 1 13 7
M  V30 29 1 1 27
M  V30 30 1 1 28
M  V30 31 1 6 29
M  V30 32 1 8 30
M  V30 33 1 9 31
M  V30 34 1 12 32
M  V30 35 1 15 33
M  V30 36 1 18 34
M  V30 37 1 22 35
M  V30 38 1 23 36
M  V30 39 1 24 37
M  V30 40 1 26 38
M  V30 END BOND
M  V30 END CTAB
M  END
>  <Dataset>  (755) 
ChEMBL_Kinases

>  <Ligand_Instance>  (755) 
nan

>  <PDB_ID>  (755) 
nan

>  <Standardized_SMILES>  (755) 
NC(=O)c1c(Nc2ccc(I)cc2F)cc(F)cc1Oc1cccnc1

>  <Name>  (755) 
nan

>  <Pocket>  (755) 
nan

>  <ATP_Site>  (755) 
nan

>  <Peripheral>  (755) 
nan

>  <Num_H_Atoms_ProtBoundConf>  (755) 
nan

>  <Num_Resolved_Atoms>  (755) 
nan

>  <Num_Not_Resolved_Atoms>  (755) 
nan

$$$$
CHEMBL2376681
     RDKit          3D

  0  0  0  0  0  0  0  0  0  0999 V3000
M  V30 BEGIN CTAB
M  V30 COUNTS 39 41 0 0 0
M  V30 BEGIN ATOM
M  V30 1 N 1.420386 -2.603915 0.360105 0
M  V30 2 C 1.515994 -1.197632 0.432634 0
M  V30 3 O 2.537902 -1.517944 -0.182779 0
M  V30 4 C 0.623514 -0.226581 1.033175 0
M  V30 5 C 0.968727 1.101708 0.948739 0
M  V30 6 N 2.119431 1.621786 0.310059 0
M  V30 7 C 2.554610 1.585011 -1.039821 0
M  V30 8 C 1.855569 0.991848 -2.067760 0
M  V30 9 C 2.277134 0.953770 -3.379563 0
M  V30 10 C 3.491777 1.558899 -3.669373 0
M  V30 11 I 4.249810 1.571958 -5.630928 0
M  V30 12 C 4.203477 2.160460 -2.633859 0
M  V30 13 C 3.753730 2.178541 -1.344783 0
M  V30 14 F 4.519424 2.794103 -0.385952 0
M  V30 15 C 0.088601 1.984617 1.560464 0
M  V30 16 C -1.037077 1.500889 2.192415 0
M  V30 17 F -1.822950 2.456760 2.753870 0
M  V30 18 C -1.331399 0.155117 2.243850 0
M  V30 19 C -0.485748 -0.756658 1.650415 0
M  V30 20 O -0.739878 -2.119447 1.675926 0
M  V30 21 C -1.873087 -2.595972 2.315774 0
M  V30 22 C -1.587979 -2.879795 3.642057 0
M  V30 23 C -2.558160 -3.378229 4.518590 0
M  V30 24 C -3.823767 -3.573641 3.989472 0
M  V30 25 C -4.123813 -3.298130 2.679707 0
M  V30 26 C -3.142875 -2.801940 1.821373 0
M  V30 27 H 1.201696 -3.313746 1.085052 0
M  V30 28 H 1.195681 -3.290937 1.120645 0
M  V30 29 H 2.679609 2.093882 1.043547 0
M  V30 30 H 0.896046 0.514348 -1.838156 0
M  V30 31 H 1.681514 0.469114 -4.154714 0
M  V30 32 H 5.146402 2.629721 -2.861107 0
M  V30 33 H 0.329764 3.050577 1.514486 0
M  V30 34 H -2.228652 -0.157876 2.754276 0
M  V30 35 H -0.620973 -2.759979 4.153597 0
M  V30 36 H -2.367859 -3.609769 5.557924 0
M  V30 37 H -4.650580 -3.955544 4.580153 0
M  V30 38 H -5.095330 -3.433838 2.220341 0
M  V30 39 H -3.233705 -2.542338 0.776261 0
M  V30 END ATOM
M  V30 BEGIN BOND
M  V30 1 1 1 2
M  V30 2 2 2 3
M  V30 3 1 2 4
M  V30 4 2 4 5
M  V30 5 1 5 6
M  V30 6 1 6 7
M  V30 7 2 7 8
M  V30 8 1 8 9
M  V30 9 2 9 10
M  V30 10 1 10 11
M  V30 11 1 10 12
M  V30 12 2 12 13
M  V30 13 1 13 14
M  V30 14 1 5 15
M  V30 15 2 15 16
M  V30 16 1 16 17
M  V30 17 1 16 18
M  V30 18 2 18 19
M  V30 19 1 19 20
M  V30 20 1 20 21
M  V30 21 2 21 22
M  V30 22 1 22 23
M  V30 23 2 23 24
M  V30 24 1 24 25
M  V30 25 2 25 26
M  V30 26 1 19 4
M  V30 27 1 26 21
M  V30 28 1 13 7
M  V30 29 1 1 27
M  V30 30 1 1 28
M  V30 31 1 6 29
M  V30 32 1 8 30
M  V30 33 1 9 31
M  V30 34 1 12 32
M  V30 35 1 15 33
M  V30 36 1 18 34
M  V30 37 1 22 35
M  V30 38 1 23 36
M  V30 39 1 24 37
M  V30 40 1 25 38
M  V30 41 1 26 39
M  V30 END BOND
M  V30 END CTAB
M  END
>  <Dataset>  (756) 
ChEMBL_Kinases

>  <Ligand_Instance>  (756) 
nan

>  <PDB_ID>  (756) 
nan

>  <Standardized_SMILES>  (756) 
NC(=O)c1c(Nc2ccc(I)cc2F)cc(F)cc1Oc1ccccc1

>  <Name>  (756) 
nan

>  <Pocket>  (756) 
nan

>  <ATP_Site>  (756) 
nan

>  <Peripheral>  (756) 
nan

>  <Num_H_Atoms_ProtBoundConf>  (756) 
nan

>  <Num_Resolved_Atoms>  (756) 
nan

>  <Num_Not_Resolved_Atoms>  (756) 
nan

$$$$
CHEMBL2376680
     RDKit          3D

  0  0  0  0  0  0  0  0  0  0999 V3000
M  V30 BEGIN CTAB
M  V30 COUNTS 49 51 0 0 0
M  V30 BEGIN ATOM
M  V30 1 N 0.806577 -2.523136 1.190231 0
M  V30 2 C 1.309224 -1.247073 1.424479 0
M  V30 3 O 2.337187 -1.912907 1.654102 0
M  V30 4 C 0.835287 0.099836 1.397430 0
M  V30 5 C 1.823081 1.005915 1.578395 0
M  V30 6 N 3.220813 0.925685 1.651592 0
M  V30 7 C 4.335455 0.724714 0.796302 0
M  V30 8 C 5.116217 1.893097 1.005455 0
M  V30 9 C 6.326744 2.184367 0.362514 0
M  V30 10 C 6.783659 1.259137 -0.538583 0
M  V30 11 I 8.567241 1.470836 -1.629718 0
M  V30 12 C 6.072292 0.110898 -0.782350 0
M  V30 13 C 4.898205 -0.112736 -0.121976 0
M  V30 14 F 4.162426 -1.191151 -0.342485 0
M  V30 15 C 1.366463 2.330295 1.728856 0
M  V30 16 C 0.023714 2.729208 1.697123 0
M  V30 17 F -0.345890 4.016981 1.848265 0
M  V30 18 C -0.861992 1.693365 1.499770 0
M  V30 19 C -0.489051 0.353085 1.344023 0
M  V30 20 O -1.523758 -0.570056 1.148878 0
M  V30 21 C -2.853470 -0.135424 1.127804 0
M  V30 22 C -3.837367 -1.185495 0.901451 0 CFG=2
M  V30 23 C -3.825482 -2.266414 1.993811 0
M  V30 24 C -4.640741 -3.391105 1.389282 0
M  V30 25 C -4.959772 -2.871968 -0.015643 0
M  V30 26 N -3.845461 -1.933627 -0.298984 0
M  V30 27 S -2.448181 -2.785399 -0.731501 0
M  V30 28 N -2.801883 -3.682232 -2.201385 0
M  V30 29 O -2.065861 -3.832156 0.279784 0
M  V30 30 O -1.291709 -1.911676 -1.070953 0
M  V30 31 H 0.478687 -3.457834 1.002404 0
M  V30 32 H -0.161296 -2.405551 1.620418 0
M  V30 33 H 3.393810 1.037496 2.682941 0
M  V30 34 H 4.940780 2.757484 1.675782 0
M  V30 35 H 6.966997 3.024528 0.458821 0
M  V30 36 H 6.348823 -0.671915 -1.469241 0
M  V30 37 H 2.050314 3.177118 1.887621 0
M  V30 38 H -1.908937 1.973762 1.469719 0
M  V30 39 H -3.067369 0.415465 2.097727 0
M  V30 40 H -3.008661 0.679092 0.360652 0
M  V30 41 H -4.891367 -0.716224 0.953779 0
M  V30 42 H -4.237267 -1.856423 2.922856 0
M  V30 43 H -2.767342 -2.569658 2.107164 0
M  V30 44 H -4.063120 -4.318512 1.383595 0
M  V30 45 H -5.555947 -3.463320 2.014626 0
M  V30 46 H -5.006383 -3.687797 -0.735655 0
M  V30 47 H -5.865471 -2.250039 0.061189 0
M  V30 48 H -3.351856 -3.102838 -2.875122 0
M  V30 49 H -1.895462 -3.917148 -2.659652 0
M  V30 END ATOM
M  V30 BEGIN BOND
M  V30 1 1 1 2
M  V30 2 2 2 3
M  V30 3 1 2 4
M  V30 4 2 4 5
M  V30 5 1 5 6
M  V30 6 1 6 7
M  V30 7 2 7 8
M  V30 8 1 8 9
M  V30 9 2 9 10
M  V30 10 1 10 11
M  V30 11 1 10 12
M  V30 12 2 12 13
M  V30 13 1 13 14
M  V30 14 1 5 15
M  V30 15 2 15 16
M  V30 16 1 16 17
M  V30 17 1 16 18
M  V30 18 2 18 19
M  V30 19 1 19 20
M  V30 20 1 20 21
M  V30 21 1 21 22
M  V30 22 1 22 23
M  V30 23 1 23 24
M  V30 24 1 24 25
M  V30 25 1 25 26
M  V30 26 1 26 27
M  V30 27 1 27 28
M  V30 28 2 27 29
M  V30 29 2 27 30
M  V30 30 1 19 4
M  V30 31 1 26 22
M  V30 32 1 13 7
M  V30 33 1 1 31
M  V30 34 1 1 32
M  V30 35 1 6 33
M  V30 36 1 8 34
M  V30 37 1 9 35
M  V30 38 1 12 36
M  V30 39 1 15 37
M  V30 40 1 18 38
M  V30 41 1 21 39
M  V30 42 1 21 40
M  V30 43 1 22 41 CFG=1
M  V30 44 1 23 42
M  V30 45 1 23 43
M  V30 46 1 24 44
M  V30 47 1 24 45
M  V30 48 1 25 46
M  V30 49 1 25 47
M  V30 50 1 28 48
M  V30 51 1 28 49
M  V30 END BOND
M  V30 END CTAB
M  END
>  <Dataset>  (757) 
ChEMBL_Kinases

>  <Ligand_Instance>  (757) 
nan

>  <PDB_ID>  (757) 
nan

>  <Standardized_SMILES>  (757) 
NC(=O)c1c(Nc2ccc(I)cc2F)cc(F)cc1OC[C@@H]1CCCN1S(N)(=O)=O

>  <Name>  (757) 
nan

>  <Pocket>  (757) 
nan

>  <ATP_Site>  (757) 
nan

>  <Peripheral>  (757) 
nan

>  <Num_H_Atoms_ProtBoundConf>  (757) 
nan

>  <Num_Resolved_Atoms>  (757) 
nan

>  <Num_Not_Resolved_Atoms>  (757) 
nan

$$$$
CHEMBL2376679
     RDKit          3D

  0  0  0  0  0  0  0  0  0  0999 V3000
M  V30 BEGIN CTAB
M  V30 COUNTS 55 57 0 0 0
M  V30 BEGIN ATOM
M  V30 1 C 1.935351 1.173943 4.310001 0
M  V30 2 N 3.254481 1.431730 3.780914 0
M  V30 3 C 4.100429 1.879348 4.863629 0
M  V30 4 S 3.288537 2.403332 2.396761 0
M  V30 5 O 2.055011 3.304458 2.485988 0
M  V30 6 O 4.442693 3.390985 2.601644 0
M  V30 7 N 3.300941 1.699227 0.895952 0
M  V30 8 C 4.473872 0.884389 0.711823 0
M  V30 9 C 4.039942 -0.548395 0.909644 0
M  V30 10 C 2.505330 -0.452233 0.995962 0
M  V30 11 C 2.267932 0.882701 0.419561 0 CFG=1
M  V30 12 C 0.903384 1.455865 0.418800 0
M  V30 13 O -0.072941 0.675996 -0.056655 0
M  V30 14 C -0.736920 -0.446364 0.133039 0
M  V30 15 C -0.714230 -1.453249 1.066978 0
M  V30 16 C -1.503717 -2.576734 1.106160 0
M  V30 17 F -1.369172 -3.485475 2.089384 0
M  V30 18 C -2.427579 -2.714107 0.094307 0
M  V30 19 C -2.545597 -1.770541 -0.898877 0
M  V30 20 N -3.510302 -1.971234 -1.917469 0
M  V30 21 C -4.335984 -3.125451 -1.966012 0
M  V30 22 C -5.711379 -3.108178 -1.883195 0
M  V30 23 C -6.380471 -4.322415 -1.959944 0
M  V30 24 C -5.734000 -5.529393 -2.113094 0
M  V30 25 I -6.904994 -7.276396 -2.207066 0
M  V30 26 C -4.345104 -5.511015 -2.193370 0
M  V30 27 C -3.645100 -4.316879 -2.120675 0
M  V30 28 F -2.315987 -4.529136 -2.228579 0
M  V30 29 C -1.708000 -0.680479 -0.849270 0
M  V30 30 C -1.899521 0.259833 -1.926944 0
M  V30 31 N -1.141829 1.439473 -2.046476 0
M  V30 32 O -2.522597 0.553891 -2.958073 0
M  V30 33 H 1.722359 0.075909 4.312460 0
M  V30 34 H 1.863746 1.544935 5.376615 0
M  V30 35 H 1.165481 1.695666 3.715416 0
M  V30 36 H 4.983274 1.221368 5.000114 0
M  V30 37 H 4.453597 2.931464 4.647183 0
M  V30 38 H 3.540225 1.912471 5.799609 0
M  V30 39 H 5.315810 1.175397 1.367710 0
M  V30 40 H 4.746387 0.962021 -0.371981 0
M  V30 41 H 4.453384 -0.989684 1.838288 0
M  V30 42 H 4.340362 -1.221245 0.081524 0
M  V30 43 H 2.212247 -0.530057 2.044194 0
M  V30 44 H 2.077172 -1.292817 0.397789 0
M  V30 45 H 2.502351 0.750412 -0.703642 0
M  V30 46 H 0.590233 1.866318 1.411894 0
M  V30 47 H 1.004325 2.417691 -0.197986 0
M  V30 48 H -0.003235 -1.332995 1.866819 0
M  V30 49 H -3.031349 -3.609019 0.168169 0
M  V30 50 H -3.775940 -1.389178 -2.732626 0
M  V30 51 H -6.174850 -2.145228 -1.763943 0
M  V30 52 H -7.464260 -4.300302 -1.894127 0
M  V30 53 H -3.920160 -6.503320 -2.314109 0
M  V30 54 H -0.424586 2.002650 -2.550640 0
M  V30 55 H -1.273972 2.199111 -1.346333 0
M  V30 END ATOM
M  V30 BEGIN BOND
M  V30 1 1 1 2
M  V30 2 1 2 3
M  V30 3 1 2 4
M  V30 4 2 4 5
M  V30 5 2 4 6
M  V30 6 1 4 7
M  V30 7 1 7 8
M  V30 8 1 8 9
M  V30 9 1 9 10
M  V30 10 1 10 11
M  V30 11 1 11 12
M  V30 12 1 12 13
M  V30 13 1 13 14
M  V30 14 2 14 15
M  V30 15 1 15 16
M  V30 16 1 16 17
M  V30 17 2 16 18
M  V30 18 1 18 19
M  V30 19 1 19 20
M  V30 20 1 20 21
M  V30 21 2 21 22
M  V30 22 1 22 23
M  V30 23 2 23 24
M  V30 24 1 24 25
M  V30 25 1 24 26
M  V30 26 2 26 27
M  V30 27 1 27 28
M  V30 28 2 19 29
M  V30 29 1 29 30
M  V30 30 1 30 31
M  V30 31 2 30 32
M  V30 32 1 11 7
M  V30 33 1 29 14
M  V30 34 1 27 21
M  V30 35 1 1 33
M  V30 36 1 1 34
M  V30 37 1 1 35
M  V30 38 1 3 36
M  V30 39 1 3 37
M  V30 40 1 3 38
M  V30 41 1 8 39
M  V30 42 1 8 40
M  V30 43 1 9 41
M  V30 44 1 9 42
M  V30 45 1 10 43
M  V30 46 1 10 44
M  V30 47 1 11 45 CFG=3
M  V30 48 1 12 46
M  V30 49 1 12 47
M  V30 50 1 15 48
M  V30 51 1 18 49
M  V30 52 1 20 50
M  V30 53 1 22 51
M  V30 54 1 23 52
M  V30 55 1 26 53
M  V30 56 1 31 54
M  V30 57 1 31 55
M  V30 END BOND
M  V30 END CTAB
M  END
>  <Dataset>  (758) 
ChEMBL_Kinases

>  <Ligand_Instance>  (758) 
nan

>  <PDB_ID>  (758) 
nan

>  <Standardized_SMILES>  (758) 
CN(C)S(=O)(=O)N1CCC[C@H]1COc1cc(F)cc(Nc2ccc(I)cc2F)c1C(N)=O

>  <Name>  (758) 
nan

>  <Pocket>  (758) 
nan

>  <ATP_Site>  (758) 
nan

>  <Peripheral>  (758) 
nan

>  <Num_H_Atoms_ProtBoundConf>  (758) 
nan

>  <Num_Resolved_Atoms>  (758) 
nan

>  <Num_Not_Resolved_Atoms>  (758) 
nan

$$$$
CHEMBL2376678
     RDKit          3D

  0  0  0  0  0  0  0  0  0  0999 V3000
M  V30 BEGIN CTAB
M  V30 COUNTS 53 55 0 0 0
M  V30 BEGIN ATOM
M  V30 1 C 2.631904 3.012774 -1.208707 0
M  V30 2 C 3.381566 3.204686 0.079604 0
M  V30 3 S 3.060348 1.924410 1.193205 0
M  V30 4 O 4.064205 2.138952 2.364194 0
M  V30 5 O 3.646617 0.648690 0.561486 0
M  V30 6 N 1.539018 1.589633 1.756486 0
M  V30 7 C 1.588115 2.004476 3.209348 0
M  V30 8 C 1.385562 3.521593 3.049188 0
M  V30 9 C 0.611251 3.686684 1.755352 0
M  V30 10 C 0.366758 2.222050 1.428017 0 CFG=1
M  V30 11 C -0.555224 1.936580 0.337895 0
M  V30 12 O -1.164839 0.707316 0.307111 0
M  V30 13 C -0.665194 -0.521062 0.084663 0
M  V30 14 C 0.622317 -0.778013 -0.229747 0
M  V30 15 C 1.115584 -2.061869 -0.459751 0
M  V30 16 F 2.422136 -2.145501 -0.765514 0
M  V30 17 C 0.193698 -3.067467 -0.346291 0
M  V30 18 C -1.128947 -2.919193 -0.035658 0
M  V30 19 N -2.038607 -3.960992 0.101755 0
M  V30 20 C -2.151355 -5.350348 0.068380 0
M  V30 21 C -1.120614 -6.228205 -0.148187 0
M  V30 22 C -1.181396 -7.600751 -0.198377 0
M  V30 23 C -2.457076 -8.120050 -0.001064 0
M  V30 24 I -2.725592 -10.206646 -0.046768 0
M  V30 25 C -3.553982 -7.329445 0.223925 0
M  V30 26 C -3.376521 -5.970880 0.253785 0
M  V30 27 F -4.525026 -5.265218 0.483925 0
M  V30 28 C -1.524132 -1.611410 0.174766 0
M  V30 29 C -2.909960 -1.231049 0.527904 0
M  V30 30 N -3.393905 0.076288 0.746554 0
M  V30 31 O -4.020396 -1.715197 0.746618 0
M  V30 32 H 1.708050 3.622159 -1.208971 0
M  V30 33 H 3.284689 3.276028 -2.081244 0
M  V30 34 H 2.419584 1.927919 -1.300779 0
M  V30 35 H 3.391841 4.239931 0.466189 0
M  V30 36 H 4.482364 3.074837 -0.236618 0
M  V30 37 H 2.571302 1.744985 3.587920 0
M  V30 38 H 0.746668 1.514734 3.711160 0
M  V30 39 H 2.366889 4.040380 3.041999 0
M  V30 40 H 0.774411 3.864354 3.911405 0
M  V30 41 H -0.370994 4.159029 1.998688 0
M  V30 42 H 1.166308 4.244617 1.020367 0
M  V30 43 H -0.335779 1.967776 2.376542 0
M  V30 44 H 0.025216 2.010818 -0.639335 0
M  V30 45 H -1.390774 2.698175 0.300711 0
M  V30 46 H 1.255984 0.073723 -0.340022 0
M  V30 47 H 0.693687 -3.983279 -0.545912 0
M  V30 48 H -2.981785 -3.572664 0.299178 0
M  V30 49 H -0.095837 -5.942167 -0.303031 0
M  V30 50 H -0.363408 -8.280289 -0.370473 0
M  V30 51 H -4.504077 -7.783291 0.370568 0
M  V30 52 H -3.692949 0.740258 0.015623 0
M  V30 53 H -3.701640 0.757148 -0.020458 0
M  V30 END ATOM
M  V30 BEGIN BOND
M  V30 1 1 1 2
M  V30 2 1 2 3
M  V30 3 2 3 4
M  V30 4 2 3 5
M  V30 5 1 3 6
M  V30 6 1 6 7
M  V30 7 1 7 8
M  V30 8 1 8 9
M  V30 9 1 9 10
M  V30 10 1 10 11
M  V30 11 1 11 12
M  V30 12 1 12 13
M  V30 13 2 13 14
M  V30 14 1 14 15
M  V30 15 1 15 16
M  V30 16 2 15 17
M  V30 17 1 17 18
M  V30 18 1 18 19
M  V30 19 1 19 20
M  V30 20 2 20 21
M  V30 21 1 21 22
M  V30 22 2 22 23
M  V30 23 1 23 24
M  V30 24 1 23 25
M  V30 25 2 25 26
M  V30 26 1 26 27
M  V30 27 2 18 28
M  V30 28 1 28 29
M  V30 29 1 29 30
M  V30 30 2 29 31
M  V30 31 1 10 6
M  V30 32 1 28 13
M  V30 33 1 26 20
M  V30 34 1 1 32
M  V30 35 1 1 33
M  V30 36 1 1 34
M  V30 37 1 2 35
M  V30 38 1 2 36
M  V30 39 1 7 37
M  V30 40 1 7 38
M  V30 41 1 8 39
M  V30 42 1 8 40
M  V30 43 1 9 41
M  V30 44 1 9 42
M  V30 45 1 10 43 CFG=1
M  V30 46 1 11 44
M  V30 47 1 11 45
M  V30 48 1 14 46
M  V30 49 1 17 47
M  V30 50 1 19 48
M  V30 51 1 21 49
M  V30 52 1 22 50
M  V30 53 1 25 51
M  V30 54 1 30 52
M  V30 55 1 30 53
M  V30 END BOND
M  V30 END CTAB
M  END
>  <Dataset>  (759) 
ChEMBL_Kinases

>  <Ligand_Instance>  (759) 
nan

>  <PDB_ID>  (759) 
nan

>  <Standardized_SMILES>  (759) 
CCS(=O)(=O)N1CCC[C@H]1COc1cc(F)cc(Nc2ccc(I)cc2F)c1C(N)=O

>  <Name>  (759) 
nan

>  <Pocket>  (759) 
nan

>  <ATP_Site>  (759) 
nan

>  <Peripheral>  (759) 
nan

>  <Num_H_Atoms_ProtBoundConf>  (759) 
nan

>  <Num_Resolved_Atoms>  (759) 
nan

>  <Num_Not_Resolved_Atoms>  (759) 
nan

$$$$
CHEMBL2381163
     RDKit          3D

  0  0  0  0  0  0  0  0  0  0999 V3000
M  V30 BEGIN CTAB
M  V30 COUNTS 73 76 0 0 0
M  V30 BEGIN ATOM
M  V30 1 C 2.511188 -1.459293 3.565933 0
M  V30 2 C 2.282496 -1.926143 2.133109 0
M  V30 3 C 1.670713 -3.275408 2.185861 0
M  V30 4 C 3.584362 -1.994085 1.376616 0
M  V30 5 C 4.231580 -0.654042 1.492675 0
M  V30 6 C 3.273605 0.394573 1.042956 0 CFG=2
M  V30 7 C 3.838881 1.793153 1.353852 0
M  V30 8 C 3.344630 2.745853 0.325677 0
M  V30 9 O 3.919929 3.854652 0.488596 0
M  V30 10 O 2.403335 2.294152 -0.575704 0
M  V30 11 C 1.885718 3.115858 -1.578077 0 CFG=1
M  V30 12 C 1.932181 2.560667 -2.960028 0
M  V30 13 O 3.210824 2.270325 -3.400030 0
M  V30 14 C 0.414027 3.354880 -1.219731 0
M  V30 15 C -0.341005 2.092745 -1.076572 0
M  V30 16 O -1.565177 1.960815 -1.357760 0
M  V30 17 O 0.453865 1.054224 -0.590190 0
M  V30 18 C -0.043628 -0.239889 -0.364738 0 CFG=2
M  V30 19 C -1.215959 -0.237951 0.590693 0
M  V30 20 C -0.981386 -0.778186 1.926613 0 CFG=1
M  V30 21 C -1.612432 -2.020144 2.406132 0
M  V30 22 C -3.062207 -2.176718 2.536451 0
M  V30 23 C -3.913793 -2.070198 1.312178 0
M  V30 24 C -3.562926 -3.094645 0.261873 0
M  V30 25 C -4.390525 -2.981992 -0.965042 0
M  V30 26 C -3.827471 -2.401144 -2.107660 0
M  V30 27 C -4.488583 -2.239624 -3.305912 0
M  V30 28 O -3.857074 -1.652424 -4.395763 0
M  V30 29 C -5.781447 -2.665552 -3.414491 0
M  V30 30 Br -6.772738 -2.490110 -5.017930 0
M  V30 31 C -6.357036 -3.237192 -2.312619 0
M  V30 32 C -5.695774 -3.398756 -1.114850 0
M  V30 33 Br -6.507463 -4.197783 0.419557 0
M  V30 34 O 0.321637 -0.776386 2.388341 0
M  V30 35 C 1.353384 -0.866146 1.519420 0 CFG=2
M  V30 36 C 1.018330 -1.172892 0.103373 0
M  V30 37 O 2.015768 0.359039 1.543810 0
M  V30 38 H 2.943445 -0.448159 3.617324 0
M  V30 39 H 1.542552 -1.440593 4.091793 0
M  V30 40 H 3.151759 -2.216141 4.037272 0
M  V30 41 H 2.528717 -4.005612 2.286762 0
M  V30 42 H 1.118696 -3.613553 1.311909 0
M  V30 43 H 1.105086 -3.425595 3.143993 0
M  V30 44 H 4.183763 -2.779534 1.834318 0
M  V30 45 H 3.352337 -2.188942 0.320320 0
M  V30 46 H 4.673058 -0.460209 2.490446 0
M  V30 47 H 5.092874 -0.666530 0.770303 0
M  V30 48 H 3.307728 0.377242 -0.089454 0
M  V30 49 H 3.573770 2.095327 2.383916 0
M  V30 50 H 4.936718 1.697541 1.196389 0
M  V30 51 H 2.360393 4.121124 -1.526887 0
M  V30 52 H 1.240285 1.708180 -3.113093 0
M  V30 53 H 1.536742 3.363037 -3.638362 0
M  V30 54 H 3.206828 1.338268 -3.740287 0
M  V30 55 H 0.010183 3.919783 -2.102748 0
M  V30 56 H 0.319734 4.026072 -0.350492 0
M  V30 57 H -0.375515 -0.604235 -1.378190 0
M  V30 58 H -2.045277 -0.666106 0.045569 0
M  V30 59 H -1.486233 0.865050 0.680610 0
M  V30 60 H -1.455165 0.023322 2.638834 0
M  V30 61 H -1.164543 -2.938730 1.884819 0
M  V30 62 H -1.184162 -2.183234 3.454082 0
M  V30 63 H -3.303042 -3.220780 2.940294 0
M  V30 64 H -3.517194 -1.537696 3.344042 0
M  V30 65 H -4.019209 -1.054895 0.974872 0
M  V30 66 H -4.982471 -2.339063 1.670831 0
M  V30 67 H -3.743941 -4.129651 0.673905 0
M  V30 68 H -2.502397 -2.967318 -0.007543 0
M  V30 69 H -2.801617 -2.055681 -2.041608 0
M  V30 70 H -3.296802 -2.119355 -5.071564 0
M  V30 71 H -7.383115 -3.590542 -2.354449 0
M  V30 72 H 1.906414 -1.009402 -0.531385 0
M  V30 73 H 0.720501 -2.223246 -0.100032 0
M  V30 END ATOM
M  V30 BEGIN BOND
M  V30 1 1 1 2
M  V30 2 1 2 3
M  V30 3 1 2 4
M  V30 4 1 4 5
M  V30 5 1 5 6
M  V30 6 1 6 7
M  V30 7 1 7 8
M  V30 8 2 8 9
M  V30 9 1 8 10
M  V30 10 1 10 11
M  V30 11 1 11 12
M  V30 12 1 12 13
M  V30 13 1 11 14
M  V30 14 1 14 15
M  V30 15 2 15 16
M  V30 16 1 15 17
M  V30 17 1 17 18
M  V30 18 1 18 19
M  V30 19 1 19 20
M  V30 20 1 20 21
M  V30 21 1 21 22
M  V30 22 1 22 23
M  V30 23 1 23 24
M  V30 24 1 24 25
M  V30 25 2 25 26
M  V30 26 1 26 27
M  V30 27 1 27 28
M  V30 28 2 27 29
M  V30 29 1 29 30
M  V30 30 1 29 31
M  V30 31 2 31 32
M  V30 32 1 32 33
M  V30 33 1 20 34
M  V30 34 1 35 34 CFG=1
M  V30 35 1 35 36
M  V30 36 1 35 37
M  V30 37 1 35 2
M  V30 38 1 37 6
M  V30 39 1 36 18
M  V30 40 1 32 25
M  V30 41 1 1 38
M  V30 42 1 1 39
M  V30 43 1 1 40
M  V30 44 1 3 41
M  V30 45 1 3 42
M  V30 46 1 3 43
M  V30 47 1 4 44
M  V30 48 1 4 45
M  V30 49 1 5 46
M  V30 50 1 5 47
M  V30 51 1 6 48 CFG=3
M  V30 52 1 7 49
M  V30 53 1 7 50
M  V30 54 1 11 51 CFG=3
M  V30 55 1 12 52
M  V30 56 1 12 53
M  V30 57 1 13 54
M  V30 58 1 14 55
M  V30 59 1 14 56
M  V30 60 1 18 57 CFG=3
M  V30 61 1 19 58
M  V30 62 1 19 59
M  V30 63 1 20 60 CFG=1
M  V30 64 1 21 61
M  V30 65 1 21 62
M  V30 66 1 22 63
M  V30 67 1 22 64
M  V30 68 1 23 65
M  V30 69 1 23 66
M  V30 70 1 24 67
M  V30 71 1 24 68
M  V30 72 1 26 69
M  V30 73 1 28 70
M  V30 74 1 31 71
M  V30 75 1 36 72
M  V30 76 1 36 73
M  V30 END BOND
M  V30 END CTAB
M  END
>  <Dataset>  (760) 
ChEMBL_Kinases

>  <Ligand_Instance>  (760) 
nan

>  <PDB_ID>  (760) 
nan

>  <Standardized_SMILES>  (760) 
CC1(C)CC[C@@H]2CC(=O)O[C@@H](CO)CC(=O)O[C@@H]3C[C@@H](CCCCc4cc(O)c(Br)cc4Br)O[C@@]1(C3)O2

>  <Name>  (760) 
nan

>  <Pocket>  (760) 
nan

>  <ATP_Site>  (760) 
nan

>  <Peripheral>  (760) 
nan

>  <Num_H_Atoms_ProtBoundConf>  (760) 
nan

>  <Num_Resolved_Atoms>  (760) 
nan

>  <Num_Not_Resolved_Atoms>  (760) 
nan

$$$$
CHEMBL2376661
     RDKit          3D

  0  0  0  0  0  0  0  0  0  0999 V3000
M  V30 BEGIN CTAB
M  V30 COUNTS 50 52 0 0 0
M  V30 BEGIN ATOM
M  V30 1 C 2.296453 -3.650077 1.525887 0
M  V30 2 C 3.734435 -3.414570 1.183955 0
M  V30 3 S 4.479539 -2.154351 2.176585 0
M  V30 4 O 4.427360 -2.607516 3.599561 0
M  V30 5 O 5.922773 -2.031376 1.752190 0
M  V30 6 N 3.693987 -0.636119 2.006467 0
M  V30 7 C 3.627726 0.045103 0.771401 0
M  V30 8 C 4.699731 0.195742 -0.063516 0
M  V30 9 C 4.597154 0.879144 -1.276097 0
M  V30 10 C 3.346950 1.404507 -1.601910 0
M  V30 11 C 2.263518 1.244375 -0.744118 0
M  V30 12 O 1.129326 1.843616 -1.265200 0
M  V30 13 C -0.088202 1.750795 -0.634852 0
M  V30 14 C -0.538181 2.971262 -0.197680 0
M  V30 15 C -1.739141 3.096097 0.461047 0
M  V30 16 F -2.153197 4.321334 0.880039 0
M  V30 17 C -2.445665 1.933937 0.648116 0
M  V30 18 C -2.075434 0.673876 0.246294 0
M  V30 19 N -2.789910 -0.475404 0.470343 0
M  V30 20 C -3.917293 -0.969868 1.085779 0
M  V30 21 C -4.790266 -0.237625 1.850668 0
M  V30 22 C -5.929802 -0.685360 2.465711 0
M  V30 23 C -6.230437 -2.013916 2.296978 0
M  V30 24 I -7.952519 -2.859604 3.177474 0
M  V30 25 C -5.439364 -2.836818 1.560995 0
M  V30 26 C -4.318160 -2.293947 0.984027 0
M  V30 27 F -3.574540 -3.201818 0.255746 0
M  V30 28 C -0.866345 0.660562 -0.400075 0
M  V30 29 C -0.367744 -0.593234 -0.919213 0
M  V30 30 N 0.639865 -1.259051 -1.634298 0
M  V30 31 O -0.564787 -1.808304 -1.024280 0
M  V30 32 C 2.364503 0.565496 0.460905 0
M  V30 33 H 2.109508 -4.745593 1.554506 0
M  V30 34 H 2.007325 -3.251910 2.523551 0
M  V30 35 H 1.662947 -3.257966 0.709235 0
M  V30 36 H 3.845077 -3.158190 0.128814 0
M  V30 37 H 4.316619 -4.366961 1.340579 0
M  V30 38 H 3.245371 -0.197479 2.855713 0
M  V30 39 H 5.625027 -0.234304 0.252895 0
M  V30 40 H 5.495928 0.933788 -1.846074 0
M  V30 41 H 3.337058 1.919639 -2.549622 0
M  V30 42 H 0.022077 3.897090 -0.344672 0
M  V30 43 H -3.362476 2.157081 1.159120 0
M  V30 44 H -2.343996 -1.293508 0.021151 0
M  V30 45 H -4.693479 0.803867 2.086763 0
M  V30 46 H -6.621887 -0.130620 3.065880 0
M  V30 47 H -5.687081 -3.874820 1.439380 0
M  V30 48 H 1.517187 -1.107356 -2.188898 0
M  V30 49 H 1.519198 -1.090371 -2.188448 0
M  V30 50 H 1.464787 0.499286 1.050462 0
M  V30 END ATOM
M  V30 BEGIN BOND
M  V30 1 1 1 2
M  V30 2 1 2 3
M  V30 3 2 3 4
M  V30 4 2 3 5
M  V30 5 1 3 6
M  V30 6 1 6 7
M  V30 7 2 7 8
M  V30 8 1 8 9
M  V30 9 2 9 10
M  V30 10 1 10 11
M  V30 11 1 11 12
M  V30 12 1 12 13
M  V30 13 2 13 14
M  V30 14 1 14 15
M  V30 15 1 15 16
M  V30 16 2 15 17
M  V30 17 1 17 18
M  V30 18 1 18 19
M  V30 19 1 19 20
M  V30 20 2 20 21
M  V30 21 1 21 22
M  V30 22 2 22 23
M  V30 23 1 23 24
M  V30 24 1 23 25
M  V30 25 2 25 26
M  V30 26 1 26 27
M  V30 27 2 18 28
M  V30 28 1 28 29
M  V30 29 1 29 30
M  V30 30 2 29 31
M  V30 31 2 11 32
M  V30 32 1 32 7
M  V30 33 1 28 13
M  V30 34 1 26 20
M  V30 35 1 1 33
M  V30 36 1 1 34
M  V30 37 1 1 35
M  V30 38 1 2 36
M  V30 39 1 2 37
M  V30 40 1 6 38
M  V30 41 1 8 39
M  V30 42 1 9 40
M  V30 43 1 10 41
M  V30 44 1 14 42
M  V30 45 1 17 43
M  V30 46 1 19 44
M  V30 47 1 21 45
M  V30 48 1 22 46
M  V30 49 1 25 47
M  V30 50 1 30 48
M  V30 51 1 30 49
M  V30 52 1 32 50
M  V30 END BOND
M  V30 END CTAB
M  END
>  <Dataset>  (761) 
ChEMBL_Kinases

>  <Ligand_Instance>  (761) 
nan

>  <PDB_ID>  (761) 
nan

>  <Standardized_SMILES>  (761) 
CCS(=O)(=O)Nc1cccc(Oc2cc(F)cc(Nc3ccc(I)cc3F)c2C(N)=O)c1

>  <Name>  (761) 
nan

>  <Pocket>  (761) 
nan

>  <ATP_Site>  (761) 
nan

>  <Peripheral>  (761) 
nan

>  <Num_H_Atoms_ProtBoundConf>  (761) 
nan

>  <Num_Resolved_Atoms>  (761) 
nan

>  <Num_Not_Resolved_Atoms>  (761) 
nan

$$$$
CHEMBL2376662
     RDKit          3D

  0  0  0  0  0  0  0  0  0  0999 V3000
M  V30 BEGIN CTAB
M  V30 COUNTS 53 55 0 0 0
M  V30 BEGIN ATOM
M  V30 1 C 2.208749 -2.228806 1.087813 0
M  V30 2 C 2.983613 -1.188392 1.818839 0
M  V30 3 C 2.117009 -0.256194 2.658902 0
M  V30 4 S 3.937007 -0.217068 0.698476 0
M  V30 5 O 4.808235 0.766402 1.468843 0
M  V30 6 O 4.935269 -1.174775 0.063359 0
M  V30 7 N 3.061324 0.560625 -0.527348 0
M  V30 8 C 2.044092 1.516328 -0.757255 0
M  V30 9 C 2.259548 2.611378 -1.607422 0
M  V30 10 C 1.304639 3.579053 -1.823726 0
M  V30 11 C 0.106428 3.431735 -1.163587 0
M  V30 12 C -0.163086 2.360884 -0.305534 0
M  V30 13 O -1.437365 2.480882 0.210270 0
M  V30 14 C -1.952973 1.471877 0.988558 0
M  V30 15 C -2.244794 1.741331 2.308117 0
M  V30 16 C -2.764663 0.837569 3.210213 0
M  V30 17 F -3.010644 1.216415 4.480514 0
M  V30 18 C -3.000913 -0.446994 2.706214 0
M  V30 19 C -2.727272 -0.771480 1.391925 0
M  V30 20 N -3.055421 -2.119898 1.150505 0
M  V30 21 C -2.524425 -3.371804 0.756956 0
M  V30 22 C -2.806734 -4.219140 -0.290429 0
M  V30 23 C -2.091217 -5.386707 -0.391293 0
M  V30 24 C -1.107464 -5.762505 0.492113 0
M  V30 25 I -0.117641 -7.584910 0.180192 0
M  V30 26 C -0.810305 -4.927372 1.547654 0
M  V30 27 C -1.526510 -3.731077 1.671528 0
M  V30 28 F -1.105256 -3.027096 2.772263 0
M  V30 29 C -2.212550 0.195289 0.570097 0
M  V30 30 C -1.989251 -0.194491 -0.786601 0
M  V30 31 N -1.545790 0.344929 -1.997497 0
M  V30 32 O -2.147761 -1.284588 -1.378778 0
M  V30 33 C 0.843790 1.434668 -0.141993 0
M  V30 34 H 2.044035 -1.897873 0.034391 0
M  V30 35 H 2.789499 -3.192343 0.997847 0
M  V30 36 H 1.256258 -2.469392 1.602093 0
M  V30 37 H 3.656018 -1.719594 2.563608 0
M  V30 38 H 1.050294 -0.546737 2.556796 0
M  V30 39 H 2.241351 0.799633 2.318194 0
M  V30 40 H 2.390051 -0.263038 3.717322 0
M  V30 41 H 3.313235 0.260126 -1.519914 0
M  V30 42 H 3.236983 2.649669 -2.090196 0
M  V30 43 H 1.557696 4.383761 -2.492428 0
M  V30 44 H -0.576043 4.256784 -1.408503 0
M  V30 45 H -2.053393 2.745031 2.679958 0
M  V30 46 H -3.412291 -1.113674 3.472525 0
M  V30 47 H -4.063932 -2.414692 1.287534 0
M  V30 48 H -3.592988 -3.810813 -0.906595 0
M  V30 49 H -2.385379 -5.995508 -1.254970 0
M  V30 50 H -0.037760 -5.264483 2.206553 0
M  V30 51 H -2.018664 0.832172 -2.817867 0
M  V30 52 H -0.595662 0.435198 -2.468529 0
M  V30 53 H 0.519090 0.655721 0.527895 0
M  V30 END ATOM
M  V30 BEGIN BOND
M  V30 1 1 1 2
M  V30 2 1 2 3
M  V30 3 1 2 4
M  V30 4 2 4 5
M  V30 5 2 4 6
M  V30 6 1 4 7
M  V30 7 1 7 8
M  V30 8 2 8 9
M  V30 9 1 9 10
M  V30 10 2 10 11
M  V30 11 1 11 12
M  V30 12 1 12 13
M  V30 13 1 13 14
M  V30 14 2 14 15
M  V30 15 1 15 16
M  V30 16 1 16 17
M  V30 17 2 16 18
M  V30 18 1 18 19
M  V30 19 1 19 20
M  V30 20 1 20 21
M  V30 21 2 21 22
M  V30 22 1 22 23
M  V30 23 2 23 24
M  V30 24 1 24 25
M  V30 25 1 24 26
M  V30 26 2 26 27
M  V30 27 1 27 28
M  V30 28 2 19 29
M  V30 29 1 29 30
M  V30 30 1 30 31
M  V30 31 2 30 32
M  V30 32 2 12 33
M  V30 33 1 33 8
M  V30 34 1 29 14
M  V30 35 1 27 21
M  V30 36 1 1 34
M  V30 37 1 1 35
M  V30 38 1 1 36
M  V30 39 1 2 37
M  V30 40 1 3 38
M  V30 41 1 3 39
M  V30 42 1 3 40
M  V30 43 1 7 41
M  V30 44 1 9 42
M  V30 45 1 10 43
M  V30 46 1 11 44
M  V30 47 1 15 45
M  V30 48 1 18 46
M  V30 49 1 20 47
M  V30 50 1 22 48
M  V30 51 1 23 49
M  V30 52 1 26 50
M  V30 53 1 31 51
M  V30 54 1 31 52
M  V30 55 1 33 53
M  V30 END BOND
M  V30 END CTAB
M  END
>  <Dataset>  (762) 
ChEMBL_Kinases

>  <Ligand_Instance>  (762) 
nan

>  <PDB_ID>  (762) 
nan

>  <Standardized_SMILES>  (762) 
CC(C)S(=O)(=O)Nc1cccc(Oc2cc(F)cc(Nc3ccc(I)cc3F)c2C(N)=O)c1

>  <Name>  (762) 
nan

>  <Pocket>  (762) 
nan

>  <ATP_Site>  (762) 
nan

>  <Peripheral>  (762) 
nan

>  <Num_H_Atoms_ProtBoundConf>  (762) 
nan

>  <Num_Resolved_Atoms>  (762) 
nan

>  <Num_Not_Resolved_Atoms>  (762) 
nan

$$$$
CHEMBL2376663
     RDKit          3D

  0  0  0  0  0  0  0  0  0  0999 V3000
M  V30 BEGIN CTAB
M  V30 COUNTS 52 54 0 0 0
M  V30 BEGIN ATOM
M  V30 1 C 1.929284 -0.497179 2.893889 0
M  V30 2 N 1.924637 -1.833084 2.379504 0
M  V30 3 C 1.665294 -2.765230 3.440045 0
M  V30 4 S 3.355352 -2.132867 1.504236 0
M  V30 5 O 3.695194 -3.594967 1.674224 0
M  V30 6 O 4.469510 -1.289784 2.086780 0
M  V30 7 N 3.246043 -1.801266 -0.164956 0
M  V30 8 C 2.991619 -0.656195 -0.958983 0
M  V30 9 C 3.770554 -0.283104 -2.043006 0
M  V30 10 C 3.507693 0.843416 -2.789583 0
M  V30 11 C 2.413423 1.638431 -2.438521 0
M  V30 12 C 1.611460 1.282077 -1.347421 0
M  V30 13 O 0.601393 2.218224 -1.198868 0
M  V30 14 C -0.393323 2.021886 -0.264704 0
M  V30 15 C -0.507057 2.901861 0.788611 0
M  V30 16 C -1.454259 2.816580 1.785736 0
M  V30 17 F -1.464907 3.736391 2.762189 0
M  V30 18 C -2.335874 1.757192 1.686470 0
M  V30 19 C -2.286943 0.824807 0.651483 0
M  V30 20 N -3.287601 -0.138075 0.797944 0
M  V30 21 C -3.512412 -1.525276 0.965887 0
M  V30 22 C -4.200643 -2.458545 0.223603 0
M  V30 23 C -4.228849 -3.758063 0.666086 0
M  V30 24 C -3.606656 -4.181270 1.812304 0
M  V30 25 I -3.745373 -6.211281 2.353262 0
M  V30 26 C -2.911592 -3.270862 2.574148 0
M  V30 27 C -2.871450 -1.941026 2.139170 0
M  V30 28 F -2.140466 -1.168012 3.009560 0
M  V30 29 C -1.306820 1.005615 -0.285384 0
M  V30 30 C -1.319947 0.044339 -1.360030 0
M  V30 31 N -0.624061 -0.234292 -2.557636 0
M  V30 32 O -2.036650 -0.953526 -1.590760 0
M  V30 33 C 1.919199 0.135830 -0.626765 0
M  V30 34 H 2.264442 -0.490130 3.960583 0
M  V30 35 H 2.550168 0.203452 2.281365 0
M  V30 36 H 0.917840 -0.031314 2.904874 0
M  V30 37 H 2.561844 -3.064034 3.998023 0
M  V30 38 H 1.055342 -3.626707 3.116978 0
M  V30 39 H 1.022581 -2.220979 4.183549 0
M  V30 40 H 3.385946 -2.587506 -0.869949 0
M  V30 41 H 4.598305 -0.977248 -2.226267 0
M  V30 42 H 4.172741 1.050486 -3.615988 0
M  V30 43 H 2.308711 2.490422 -3.093920 0
M  V30 44 H 0.202279 3.722437 0.836285 0
M  V30 45 H -3.064925 1.744708 2.510645 0
M  V30 46 H -4.279134 0.190007 0.795214 0
M  V30 47 H -4.640723 -1.997299 -0.647703 0
M  V30 48 H -4.798116 -4.424522 0.012424 0
M  V30 49 H -2.450517 -3.653156 3.449365 0
M  V30 50 H 0.230994 -0.828216 -2.777241 0
M  V30 51 H -0.764328 0.075722 -3.564867 0
M  V30 52 H 1.225117 -0.005411 0.161808 0
M  V30 END ATOM
M  V30 BEGIN BOND
M  V30 1 1 1 2
M  V30 2 1 2 3
M  V30 3 1 2 4
M  V30 4 2 4 5
M  V30 5 2 4 6
M  V30 6 1 4 7
M  V30 7 1 7 8
M  V30 8 2 8 9
M  V30 9 1 9 10
M  V30 10 2 10 11
M  V30 11 1 11 12
M  V30 12 1 12 13
M  V30 13 1 13 14
M  V30 14 2 14 15
M  V30 15 1 15 16
M  V30 16 1 16 17
M  V30 17 2 16 18
M  V30 18 1 18 19
M  V30 19 1 19 20
M  V30 20 1 20 21
M  V30 21 2 21 22
M  V30 22 1 22 23
M  V30 23 2 23 24
M  V30 24 1 24 25
M  V30 25 1 24 26
M  V30 26 2 26 27
M  V30 27 1 27 28
M  V30 28 2 19 29
M  V30 29 1 29 30
M  V30 30 1 30 31
M  V30 31 2 30 32
M  V30 32 2 12 33
M  V30 33 1 33 8
M  V30 34 1 29 14
M  V30 35 1 27 21
M  V30 36 1 1 34
M  V30 37 1 1 35
M  V30 38 1 1 36
M  V30 39 1 3 37
M  V30 40 1 3 38
M  V30 41 1 3 39
M  V30 42 1 7 40
M  V30 43 1 9 41
M  V30 44 1 10 42
M  V30 45 1 11 43
M  V30 46 1 15 44
M  V30 47 1 18 45
M  V30 48 1 20 46
M  V30 49 1 22 47
M  V30 50 1 23 48
M  V30 51 1 26 49
M  V30 52 1 31 50
M  V30 53 1 31 51
M  V30 54 1 33 52
M  V30 END BOND
M  V30 END CTAB
M  END
>  <Dataset>  (763) 
ChEMBL_Kinases

>  <Ligand_Instance>  (763) 
nan

>  <PDB_ID>  (763) 
nan

>  <Standardized_SMILES>  (763) 
CN(C)S(=O)(=O)Nc1cccc(Oc2cc(F)cc(Nc3ccc(I)cc3F)c2C(N)=O)c1

>  <Name>  (763) 
nan

>  <Pocket>  (763) 
nan

>  <ATP_Site>  (763) 
nan

>  <Peripheral>  (763) 
nan

>  <Num_H_Atoms_ProtBoundConf>  (763) 
nan

>  <Num_Resolved_Atoms>  (763) 
nan

>  <Num_Not_Resolved_Atoms>  (763) 
nan

$$$$
CHEMBL2376664
     RDKit          3D

  0  0  0  0  0  0  0  0  0  0999 V3000
M  V30 BEGIN CTAB
M  V30 COUNTS 56 59 0 0 0
M  V30 BEGIN ATOM
M  V30 1 N 1.359294 -1.567544 0.976655 0
M  V30 2 C 1.669888 -0.610975 1.968150 0
M  V30 3 O 2.863560 -0.669079 1.601794 0
M  V30 4 C 0.819798 0.044398 2.916148 0
M  V30 5 C 1.439388 0.946952 3.721543 0
M  V30 6 N 2.800909 1.349882 3.723893 0
M  V30 7 C 3.533306 2.033113 2.714800 0
M  V30 8 C 3.034501 2.483218 1.509780 0
M  V30 9 C 3.761093 3.141482 0.545556 0
M  V30 10 C 5.092540 3.383234 0.775456 0
M  V30 11 I 6.203134 4.388983 -0.698794 0
M  V30 12 C 5.617978 2.945202 1.970443 0
M  V30 13 C 4.861992 2.288493 2.914956 0
M  V30 14 F 5.506036 1.911510 4.047998 0
M  V30 15 C 0.709417 1.598325 4.696999 0
M  V30 16 C -0.638018 1.348260 4.865596 0
M  V30 17 F -1.385402 1.964421 5.807055 0
M  V30 18 C -1.175742 0.420491 4.002417 0
M  V30 19 C -0.536929 -0.280256 3.002821 0
M  V30 20 O -0.977360 -1.186246 2.131322 0
M  V30 21 C -2.099439 -1.814372 1.798603 0
M  V30 22 C -3.407604 -1.826065 2.216552 0
M  V30 23 C -4.451659 -2.571017 1.727194 0
M  V30 24 C -4.134492 -3.406346 0.688041 0
M  V30 25 C -2.841096 -3.499346 0.157956 0
M  V30 26 N -2.648998 -4.404006 -0.918958 0
M  V30 27 S -1.827679 -4.221427 -2.421708 0
M  V30 28 O -1.750036 -5.539263 -3.136303 0
M  V30 29 O -0.372970 -3.823077 -2.184117 0
M  V30 30 N -2.481227 -3.008910 -3.427214 0
M  V30 31 C -2.455633 -1.686368 -2.908223 0
M  V30 32 C -1.286279 -0.988404 -3.574924 0
M  V30 33 C -1.380578 -1.573515 -4.973240 0
M  V30 34 C -1.820252 -2.988984 -4.711951 0
M  V30 35 C -1.865778 -2.699477 0.731450 0
M  V30 36 H 1.419835 -2.585230 0.770655 0
M  V30 37 H 0.893264 -1.265240 0.071323 0
M  V30 38 H 3.280080 1.085343 4.599068 0
M  V30 39 H 1.977247 2.293983 1.320576 0
M  V30 40 H 3.249346 3.444773 -0.363316 0
M  V30 41 H 6.680086 3.139794 2.149920 0
M  V30 42 H 1.122529 2.342530 5.395106 0
M  V30 43 H -2.227015 0.237769 4.146705 0
M  V30 44 H -3.620773 -1.160038 3.032087 0
M  V30 45 H -5.429277 -2.464658 2.168024 0
M  V30 46 H -4.947493 -4.007464 0.283811 0
M  V30 47 H -3.100499 -5.343486 -0.731626 0
M  V30 48 H -2.494790 -1.564052 -1.832075 0
M  V30 49 H -3.361962 -1.158275 -3.330085 0
M  V30 50 H -0.316113 -1.301866 -3.174294 0
M  V30 51 H -1.412260 0.109093 -3.616045 0
M  V30 52 H -2.141433 -1.035049 -5.575861 0
M  V30 53 H -0.400834 -1.545308 -5.507366 0
M  V30 54 H -2.437606 -3.407850 -5.530312 0
M  V30 55 H -0.912770 -3.619220 -4.627368 0
M  V30 56 H -0.931719 -2.884702 0.216173 0
M  V30 END ATOM
M  V30 BEGIN BOND
M  V30 1 1 1 2
M  V30 2 2 2 3
M  V30 3 1 2 4
M  V30 4 2 4 5
M  V30 5 1 5 6
M  V30 6 1 6 7
M  V30 7 2 7 8
M  V30 8 1 8 9
M  V30 9 2 9 10
M  V30 10 1 10 11
M  V30 11 1 10 12
M  V30 12 2 12 13
M  V30 13 1 13 14
M  V30 14 1 5 15
M  V30 15 2 15 16
M  V30 16 1 16 17
M  V30 17 1 16 18
M  V30 18 2 18 19
M  V30 19 1 19 20
M  V30 20 1 20 21
M  V30 21 2 21 22
M  V30 22 1 22 23
M  V30 23 2 23 24
M  V30 24 1 24 25
M  V30 25 1 25 26
M  V30 26 1 26 27
M  V30 27 2 27 28
M  V30 28 2 27 29
M  V30 29 1 27 30
M  V30 30 1 30 31
M  V30 31 1 31 32
M  V30 32 1 32 33
M  V30 33 1 33 34
M  V30 34 2 25 35
M  V30 35 1 19 4
M  V30 36 1 35 21
M  V30 37 1 13 7
M  V30 38 1 34 30
M  V30 39 1 1 36
M  V30 40 1 1 37
M  V30 41 1 6 38
M  V30 42 1 8 39
M  V30 43 1 9 40
M  V30 44 1 12 41
M  V30 45 1 15 42
M  V30 46 1 18 43
M  V30 47 1 22 44
M  V30 48 1 23 45
M  V30 49 1 24 46
M  V30 50 1 26 47
M  V30 51 1 31 48
M  V30 52 1 31 49
M  V30 53 1 32 50
M  V30 54 1 32 51
M  V30 55 1 33 52
M  V30 56 1 33 53
M  V30 57 1 34 54
M  V30 58 1 34 55
M  V30 59 1 35 56
M  V30 END BOND
M  V30 END CTAB
M  END
>  <Dataset>  (764) 
ChEMBL_Kinases

>  <Ligand_Instance>  (764) 
nan

>  <PDB_ID>  (764) 
nan

>  <Standardized_SMILES>  (764) 
NC(=O)c1c(Nc2ccc(I)cc2F)cc(F)cc1Oc1cccc(NS(=O)(=O)N2CCCC2)c1

>  <Name>  (764) 
nan

>  <Pocket>  (764) 
nan

>  <ATP_Site>  (764) 
nan

>  <Peripheral>  (764) 
nan

>  <Num_H_Atoms_ProtBoundConf>  (764) 
nan

>  <Num_Resolved_Atoms>  (764) 
nan

>  <Num_Not_Resolved_Atoms>  (764) 
nan

$$$$
CHEMBL2376665
     RDKit          3D

  0  0  0  0  0  0  0  0  0  0999 V3000
M  V30 BEGIN CTAB
M  V30 COUNTS 49 51 0 0 0
M  V30 BEGIN ATOM
M  V30 1 C 5.955194 -2.055346 1.429197 0
M  V30 2 N 6.343265 -2.556221 0.152160 0
M  V30 3 S 5.090201 -2.771543 -0.967664 0
M  V30 4 O 5.701537 -3.449588 -2.188703 0
M  V30 5 O 4.107919 -3.755603 -0.330558 0
M  V30 6 N 4.226961 -1.388023 -1.430320 0
M  V30 7 C 3.409599 -0.375539 -0.889106 0
M  V30 8 C 3.686169 0.452229 0.173459 0
M  V30 9 C 2.803187 1.424492 0.605069 0
M  V30 10 C 1.613180 1.542091 -0.076332 0
M  V30 11 C 1.227383 0.758702 -1.166507 0
M  V30 12 O -0.007396 1.134268 -1.611097 0
M  V30 13 C -1.129593 1.071647 -0.857100 0
M  V30 14 C -1.595216 2.390417 -0.710537 0
M  V30 15 C -2.745175 2.742618 0.012115 0
M  V30 16 F -3.211510 3.999087 0.165228 0
M  V30 17 C -3.425512 1.662900 0.602600 0
M  V30 18 C -3.013728 0.312783 0.497985 0
M  V30 19 N -3.889299 -0.537235 1.179931 0
M  V30 20 C -3.954965 -1.313459 2.362437 0
M  V30 21 C -5.078135 -0.756597 3.032447 0
M  V30 22 C -5.537255 -1.190829 4.288528 0
M  V30 23 C -4.847497 -2.215929 4.888998 0
M  V30 24 I -5.390227 -2.999210 6.776885 0
M  V30 25 C -3.769580 -2.780741 4.291271 0
M  V30 26 C -3.373842 -2.316018 3.075598 0
M  V30 27 F -2.317914 -2.816223 2.458871 0
M  V30 28 C -1.890744 0.142089 -0.235842 0
M  V30 29 C -1.535015 -1.217360 -0.494135 0
M  V30 30 N -0.484653 -1.804609 -1.236951 0
M  V30 31 O -1.870402 -2.381933 -0.271649 0
M  V30 32 C 2.193394 -0.162633 -1.487536 0
M  V30 33 H 6.440650 -1.082505 1.604115 0
M  V30 34 H 4.849848 -1.896924 1.517533 0
M  V30 35 H 6.238103 -2.713620 2.275716 0
M  V30 36 H 7.200461 -2.091517 -0.212413 0
M  V30 37 H 4.326957 -1.184839 -2.475407 0
M  V30 38 H 4.630677 0.333136 0.674047 0
M  V30 39 H 3.112437 2.021298 1.445245 0
M  V30 40 H 1.001566 2.345096 0.365943 0
M  V30 41 H -1.150751 3.302856 -1.120396 0
M  V30 42 H -4.329825 1.964519 1.168762 0
M  V30 43 H -4.731631 -0.567111 0.514811 0
M  V30 44 H -5.759927 0.049039 2.745592 0
M  V30 45 H -6.363735 -0.838263 4.866345 0
M  V30 46 H -3.176341 -3.583933 4.693132 0
M  V30 47 H -0.460604 -2.091124 -2.263011 0
M  V30 48 H -0.368997 -2.123270 -2.254082 0
M  V30 49 H 1.843685 -0.738973 -2.339071 0
M  V30 END ATOM
M  V30 BEGIN BOND
M  V30 1 1 1 2
M  V30 2 1 2 3
M  V30 3 2 3 4
M  V30 4 2 3 5
M  V30 5 1 3 6
M  V30 6 1 6 7
M  V30 7 2 7 8
M  V30 8 1 8 9
M  V30 9 2 9 10
M  V30 10 1 10 11
M  V30 11 1 11 12
M  V30 12 1 12 13
M  V30 13 2 13 14
M  V30 14 1 14 15
M  V30 15 1 15 16
M  V30 16 2 15 17
M  V30 17 1 17 18
M  V30 18 1 18 19
M  V30 19 1 19 20
M  V30 20 2 20 21
M  V30 21 1 21 22
M  V30 22 2 22 23
M  V30 23 1 23 24
M  V30 24 1 23 25
M  V30 25 2 25 26
M  V30 26 1 26 27
M  V30 27 2 18 28
M  V30 28 1 28 29
M  V30 29 1 29 30
M  V30 30 2 29 31
M  V30 31 2 11 32
M  V30 32 1 32 7
M  V30 33 1 28 13
M  V30 34 1 26 20
M  V30 35 1 1 33
M  V30 36 1 1 34
M  V30 37 1 1 35
M  V30 38 1 2 36
M  V30 39 1 6 37
M  V30 40 1 8 38
M  V30 41 1 9 39
M  V30 42 1 10 40
M  V30 43 1 14 41
M  V30 44 1 17 42
M  V30 45 1 19 43
M  V30 46 1 21 44
M  V30 47 1 22 45
M  V30 48 1 25 46
M  V30 49 1 30 47
M  V30 50 1 30 48
M  V30 51 1 32 49
M  V30 END BOND
M  V30 END CTAB
M  END
>  <Dataset>  (765) 
ChEMBL_Kinases

>  <Ligand_Instance>  (765) 
nan

>  <PDB_ID>  (765) 
nan

>  <Standardized_SMILES>  (765) 
CNS(=O)(=O)Nc1cccc(Oc2cc(F)cc(Nc3ccc(I)cc3F)c2C(N)=O)c1

>  <Name>  (765) 
nan

>  <Pocket>  (765) 
nan

>  <ATP_Site>  (765) 
nan

>  <Peripheral>  (765) 
nan

>  <Num_H_Atoms_ProtBoundConf>  (765) 
nan

>  <Num_Resolved_Atoms>  (765) 
nan

>  <Num_Not_Resolved_Atoms>  (765) 
nan

$$$$
CHEMBL2376666
     RDKit          3D

  0  0  0  0  0  0  0  0  0  0999 V3000
M  V30 BEGIN CTAB
M  V30 COUNTS 46 48 0 0 0
M  V30 BEGIN ATOM
M  V30 1 N 1.579126 -1.951120 1.391754 0
M  V30 2 C 1.562202 -0.557167 1.616326 0
M  V30 3 O 2.757106 -0.886027 1.458438 0
M  V30 4 C 0.726687 0.593325 1.875350 0
M  V30 5 C 1.397270 1.773190 2.036248 0
M  V30 6 N 2.778495 2.051067 1.965776 0
M  V30 7 C 3.866643 1.979725 1.057453 0
M  V30 8 C 5.071900 1.312884 1.103679 0
M  V30 9 C 5.929944 1.449135 0.037439 0
M  V30 10 C 5.668980 2.199553 -1.062565 0
M  V30 11 I 7.129441 2.250723 -2.551924 0
M  V30 12 C 4.469597 2.874842 -1.129523 0
M  V30 13 C 3.567606 2.762526 -0.064466 0
M  V30 14 F 2.434559 3.491801 -0.291761 0
M  V30 15 C 0.628024 2.882700 2.309012 0
M  V30 16 C -0.743301 2.789795 2.410525 0
M  V30 17 F -1.506352 3.877705 2.679135 0
M  V30 18 C -1.334556 1.560247 2.232827 0
M  V30 19 C -0.623262 0.412254 1.957634 0
M  V30 20 O -1.330050 -0.736489 1.804604 0
M  V30 21 C -1.443653 -1.543509 0.712641 0
M  V30 22 C -0.948887 -1.455656 -0.594680 0
M  V30 23 C -1.227865 -2.442445 -1.515582 0
M  V30 24 C -1.995309 -3.540618 -1.189552 0
M  V30 25 C -2.496354 -3.656413 0.086889 0
M  V30 26 N -3.267742 -4.813548 0.320390 0
M  V30 27 S -4.766674 -4.723148 1.161765 0
M  V30 28 N -5.909569 -3.726821 0.322367 0
M  V30 29 O -5.408135 -6.096318 1.253383 0
M  V30 30 O -4.591282 -4.137007 2.533002 0
M  V30 31 C -2.221244 -2.664499 1.028342 0
M  V30 32 H 0.978334 -2.686948 1.838188 0
M  V30 33 H 0.958918 -2.679339 1.857324 0
M  V30 34 H 3.193380 2.435178 2.827437 0
M  V30 35 H 5.162635 0.755586 2.019209 0
M  V30 36 H 6.854836 0.891843 0.154711 0
M  V30 37 H 4.300360 3.459170 -2.018418 0
M  V30 38 H 1.032722 3.873914 2.458268 0
M  V30 39 H -2.414757 1.526282 2.319684 0
M  V30 40 H -0.371208 -0.553132 -0.705877 0
M  V30 41 H -0.790048 -2.267353 -2.500095 0
M  V30 42 H -2.153301 -4.256211 -1.988439 0
M  V30 43 H -2.926961 -5.749322 -0.022669 0
M  V30 44 H -5.444860 -2.988891 -0.251071 0
M  V30 45 H -6.557662 -3.233174 0.962496 0
M  V30 46 H -2.687435 -2.904760 1.982231 0
M  V30 END ATOM
M  V30 BEGIN BOND
M  V30 1 1 1 2
M  V30 2 2 2 3
M  V30 3 1 2 4
M  V30 4 2 4 5
M  V30 5 1 5 6
M  V30 6 1 6 7
M  V30 7 2 7 8
M  V30 8 1 8 9
M  V30 9 2 9 10
M  V30 10 1 10 11
M  V30 11 1 10 12
M  V30 12 2 12 13
M  V30 13 1 13 14
M  V30 14 1 5 15
M  V30 15 2 15 16
M  V30 16 1 16 17
M  V30 17 1 16 18
M  V30 18 2 18 19
M  V30 19 1 19 20
M  V30 20 1 20 21
M  V30 21 2 21 22
M  V30 22 1 22 23
M  V30 23 2 23 24
M  V30 24 1 24 25
M  V30 25 1 25 26
M  V30 26 1 26 27
M  V30 27 1 27 28
M  V30 28 2 27 29
M  V30 29 2 27 30
M  V30 30 2 25 31
M  V30 31 1 19 4
M  V30 32 1 31 21
M  V30 33 1 13 7
M  V30 34 1 1 32
M  V30 35 1 1 33
M  V30 36 1 6 34
M  V30 37 1 8 35
M  V30 38 1 9 36
M  V30 39 1 12 37
M  V30 40 1 15 38
M  V30 41 1 18 39
M  V30 42 1 22 40
M  V30 43 1 23 41
M  V30 44 1 24 42
M  V30 45 1 26 43
M  V30 46 1 28 44
M  V30 47 1 28 45
M  V30 48 1 31 46
M  V30 END BOND
M  V30 END CTAB
M  END
>  <Dataset>  (766) 
ChEMBL_Kinases

>  <Ligand_Instance>  (766) 
nan

>  <PDB_ID>  (766) 
nan

>  <Standardized_SMILES>  (766) 
NC(=O)c1c(Nc2ccc(I)cc2F)cc(F)cc1Oc1cccc(NS(N)(=O)=O)c1

>  <Name>  (766) 
nan

>  <Pocket>  (766) 
nan

>  <ATP_Site>  (766) 
nan

>  <Peripheral>  (766) 
nan

>  <Num_H_Atoms_ProtBoundConf>  (766) 
nan

>  <Num_Resolved_Atoms>  (766) 
nan

>  <Num_Not_Resolved_Atoms>  (766) 
nan

$$$$
CHEMBL2376667
     RDKit          3D

  0  0  0  0  0  0  0  0  0  0999 V3000
M  V30 BEGIN CTAB
M  V30 COUNTS 47 49 0 0 0
M  V30 BEGIN ATOM
M  V30 1 N 0.313246 -1.565980 2.038701 0
M  V30 2 C 0.935990 -0.305204 2.048844 0
M  V30 3 O 1.946909 -1.010423 1.951209 0
M  V30 4 C 0.381999 1.017437 2.144524 0
M  V30 5 C 1.366012 1.966206 2.202209 0
M  V30 6 N 2.761369 1.797834 2.134541 0
M  V30 7 C 3.845551 1.329462 1.352484 0
M  V30 8 C 4.796611 0.387110 1.590289 0
M  V30 9 C 5.720287 0.163737 0.597800 0
M  V30 10 C 5.753850 0.819622 -0.611755 0
M  V30 11 I 7.261761 0.321017 -1.995828 0
M  V30 12 C 4.793411 1.774485 -0.856985 0
M  V30 13 C 3.840694 2.020961 0.138076 0
M  V30 14 F 2.963385 2.997469 -0.271013 0
M  V30 15 C 0.985708 3.305455 2.342579 0
M  V30 16 C -0.346236 3.644946 2.419155 0
M  V30 17 F -0.770819 4.924612 2.556523 0
M  V30 18 C -1.249914 2.602963 2.348603 0
M  V30 19 C -0.960249 1.256335 2.209473 0
M  V30 20 O -1.933404 0.303642 2.148739 0
M  V30 21 C -2.097307 -0.440469 0.961528 0
M  V30 22 C -1.444182 -0.176088 -0.236342 0
M  V30 23 C -1.638436 -0.933580 -1.370301 0
M  V30 24 C -2.511023 -1.998340 -1.332048 0
M  V30 25 C -3.189780 -2.302361 -0.151548 0
M  V30 26 C -4.108998 -3.467883 -0.210043 0
M  V30 27 S -3.103513 -4.889205 0.242622 0
M  V30 28 N -4.058148 -6.328845 0.212730 0
M  V30 29 O -2.530991 -4.688326 1.626644 0
M  V30 30 O -1.935696 -4.991385 -0.695572 0
M  V30 31 C -2.973548 -1.522131 0.972547 0
M  V30 32 H -0.135195 -2.473959 2.031334 0
M  V30 33 H -0.362519 -2.064701 2.659037 0
M  V30 34 H 3.277290 2.139022 2.979809 0
M  V30 35 H 4.696645 -0.069019 2.546681 0
M  V30 36 H 6.465449 -0.595120 0.819814 0
M  V30 37 H 4.850403 2.263234 -1.807283 0
M  V30 38 H 1.690594 4.130221 2.398110 0
M  V30 39 H -2.295011 2.890167 2.410406 0
M  V30 40 H -0.780854 0.685270 -0.151390 0
M  V30 41 H -1.048417 -0.581721 -2.203271 0
M  V30 42 H -2.619787 -2.552549 -2.251630 0
M  V30 43 H -4.936847 -3.345584 0.517551 0
M  V30 44 H -4.481695 -3.600146 -1.233923 0
M  V30 45 H -5.035790 -6.074318 -0.043569 0
M  V30 46 H -3.976189 -6.896306 1.083813 0
M  V30 47 H -3.532527 -1.811834 1.857718 0
M  V30 END ATOM
M  V30 BEGIN BOND
M  V30 1 1 1 2
M  V30 2 2 2 3
M  V30 3 1 2 4
M  V30 4 2 4 5
M  V30 5 1 5 6
M  V30 6 1 6 7
M  V30 7 2 7 8
M  V30 8 1 8 9
M  V30 9 2 9 10
M  V30 10 1 10 11
M  V30 11 1 10 12
M  V30 12 2 12 13
M  V30 13 1 13 14
M  V30 14 1 5 15
M  V30 15 2 15 16
M  V30 16 1 16 17
M  V30 17 1 16 18
M  V30 18 2 18 19
M  V30 19 1 19 20
M  V30 20 1 20 21
M  V30 21 2 21 22
M  V30 22 1 22 23
M  V30 23 2 23 24
M  V30 24 1 24 25
M  V30 25 1 25 26
M  V30 26 1 26 27
M  V30 27 1 27 28
M  V30 28 2 27 29
M  V30 29 2 27 30
M  V30 30 2 25 31
M  V30 31 1 19 4
M  V30 32 1 31 21
M  V30 33 1 13 7
M  V30 34 1 1 32
M  V30 35 1 1 33
M  V30 36 1 6 34
M  V30 37 1 8 35
M  V30 38 1 9 36
M  V30 39 1 12 37
M  V30 40 1 15 38
M  V30 41 1 18 39
M  V30 42 1 22 40
M  V30 43 1 23 41
M  V30 44 1 24 42
M  V30 45 1 26 43
M  V30 46 1 26 44
M  V30 47 1 28 45
M  V30 48 1 28 46
M  V30 49 1 31 47
M  V30 END BOND
M  V30 END CTAB
M  END
>  <Dataset>  (767) 
ChEMBL_Kinases

>  <Ligand_Instance>  (767) 
nan

>  <PDB_ID>  (767) 
nan

>  <Standardized_SMILES>  (767) 
NC(=O)c1c(Nc2ccc(I)cc2F)cc(F)cc1Oc1cccc(CS(N)(=O)=O)c1

>  <Name>  (767) 
nan

>  <Pocket>  (767) 
nan

>  <ATP_Site>  (767) 
nan

>  <Peripheral>  (767) 
nan

>  <Num_H_Atoms_ProtBoundConf>  (767) 
nan

>  <Num_Resolved_Atoms>  (767) 
nan

>  <Num_Not_Resolved_Atoms>  (767) 
nan

$$$$
CHEMBL2376677
     RDKit          3D

  0  0  0  0  0  0  0  0  0  0999 V3000
M  V30 BEGIN CTAB
M  V30 COUNTS 47 49 0 0 0
M  V30 BEGIN ATOM
M  V30 1 C 2.489691 -3.513346 2.476958 0
M  V30 2 N 2.664890 -3.839672 1.119031 0
M  V30 3 C 1.786940 -4.782471 0.532371 0
M  V30 4 C 1.516872 -4.357011 -0.885481 0
M  V30 5 C 2.291617 -3.085218 -1.043442 0
M  V30 6 C 3.116445 -2.880395 0.210578 0 CFG=1
M  V30 7 C 2.952569 -1.443549 0.611957 0
M  V30 8 O 1.598420 -1.096338 0.832512 0
M  V30 9 C 1.326228 0.212241 1.209302 0
M  V30 10 C 2.322797 1.152865 1.367909 0
M  V30 11 C 2.030235 2.445582 1.742344 0
M  V30 12 F 3.007854 3.372452 1.899512 0
M  V30 13 C 0.731715 2.816587 1.963678 0
M  V30 14 C -0.337054 1.924197 1.824288 0
M  V30 15 N -1.645157 2.371352 2.071435 0
M  V30 16 C -2.789051 2.474633 1.243632 0
M  V30 17 C -2.860686 2.150806 -0.086745 0
M  V30 18 C -4.001236 2.268982 -0.852364 0
M  V30 19 C -5.160079 2.738361 -0.278104 0
M  V30 20 I -6.867125 2.903149 -1.470958 0
M  V30 21 C -5.093173 3.064891 1.057627 0
M  V30 22 C -3.951214 2.943504 1.812353 0
M  V30 23 F -4.027505 3.301813 3.117400 0
M  V30 24 C 0.045450 0.656623 1.449082 0
M  V30 25 C -0.984276 -0.350045 1.307068 0
M  V30 26 N -0.752488 -1.694147 0.907642 0
M  V30 27 O -2.205473 -0.605786 1.396295 0
M  V30 28 H 3.485888 -3.547932 2.995811 0
M  V30 29 H 1.930072 -2.612640 2.727503 0
M  V30 30 H 1.912686 -4.357508 2.947460 0
M  V30 31 H 0.902805 -4.993740 1.132231 0
M  V30 32 H 2.358761 -5.752289 0.450497 0
M  V30 33 H 1.829727 -5.108877 -1.647389 0
M  V30 34 H 0.419504 -4.209106 -0.990937 0
M  V30 35 H 1.558478 -2.246451 -1.195245 0
M  V30 36 H 2.948350 -3.121316 -1.942872 0
M  V30 37 H 4.176567 -3.069453 -0.053196 0
M  V30 38 H 3.610400 -1.122477 1.418687 0
M  V30 39 H 3.261529 -0.843865 -0.287603 0
M  V30 40 H 3.361515 0.895839 1.201186 0
M  V30 41 H 0.481828 3.835123 2.260545 0
M  V30 42 H -1.668142 2.648180 3.056919 0
M  V30 43 H -1.953150 1.778917 -0.553014 0
M  V30 44 H -3.949282 1.984765 -1.896805 0
M  V30 45 H -6.006829 3.436097 1.514681 0
M  V30 46 H -0.753555 -2.145448 -0.055713 0
M  V30 47 H -0.524272 -2.542148 1.502971 0
M  V30 END ATOM
M  V30 BEGIN BOND
M  V30 1 1 1 2
M  V30 2 1 2 3
M  V30 3 1 3 4
M  V30 4 1 4 5
M  V30 5 1 5 6
M  V30 6 1 6 7
M  V30 7 1 7 8
M  V30 8 1 8 9
M  V30 9 2 9 10
M  V30 10 1 10 11
M  V30 11 1 11 12
M  V30 12 2 11 13
M  V30 13 1 13 14
M  V30 14 1 14 15
M  V30 15 1 15 16
M  V30 16 2 16 17
M  V30 17 1 17 18
M  V30 18 2 18 19
M  V30 19 1 19 20
M  V30 20 1 19 21
M  V30 21 2 21 22
M  V30 22 1 22 23
M  V30 23 2 14 24
M  V30 24 1 24 25
M  V30 25 1 25 26
M  V30 26 2 25 27
M  V30 27 1 6 2
M  V30 28 1 24 9
M  V30 29 1 22 16
M  V30 30 1 1 28
M  V30 31 1 1 29
M  V30 32 1 1 30
M  V30 33 1 3 31
M  V30 34 1 3 32
M  V30 35 1 4 33
M  V30 36 1 4 34
M  V30 37 1 5 35
M  V30 38 1 5 36
M  V30 39 1 6 37 CFG=3
M  V30 40 1 7 38
M  V30 41 1 7 39
M  V30 42 1 10 40
M  V30 43 1 13 41
M  V30 44 1 15 42
M  V30 45 1 17 43
M  V30 46 1 18 44
M  V30 47 1 21 45
M  V30 48 1 26 46
M  V30 49 1 26 47
M  V30 END BOND
M  V30 END CTAB
M  END
>  <Dataset>  (768) 
ChEMBL_Kinases

>  <Ligand_Instance>  (768) 
nan

>  <PDB_ID>  (768) 
nan

>  <Standardized_SMILES>  (768) 
CN1CCC[C@H]1COc1cc(F)cc(Nc2ccc(I)cc2F)c1C(N)=O

>  <Name>  (768) 
nan

>  <Pocket>  (768) 
nan

>  <ATP_Site>  (768) 
nan

>  <Peripheral>  (768) 
nan

>  <Num_H_Atoms_ProtBoundConf>  (768) 
nan

>  <Num_Resolved_Atoms>  (768) 
nan

>  <Num_Not_Resolved_Atoms>  (768) 
nan

$$$$
CHEMBL2376669
     RDKit          3D

  0  0  0  0  0  0  0  0  0  0999 V3000
M  V30 BEGIN CTAB
M  V30 COUNTS 32 33 0 0 0
M  V30 BEGIN ATOM
M  V30 1 C -1.515796 -4.420312 2.703807 0
M  V30 2 O -1.492307 -3.164470 2.053851 0
M  V30 3 C -0.387342 -2.858540 1.272541 0
M  V30 4 C 0.657136 -3.728344 1.121525 0
M  V30 5 C 1.744262 -3.403035 0.340454 0
M  V30 6 F 2.758623 -4.288276 0.213792 0
M  V30 7 C 1.792179 -2.188234 -0.302019 0
M  V30 8 C 0.754194 -1.259663 -0.183861 0
M  V30 9 N 0.870245 -0.029985 -0.877611 0
M  V30 10 C 0.936960 1.310312 -0.419857 0
M  V30 11 C 0.920400 1.717264 0.884921 0
M  V30 12 C 0.986777 3.031193 1.295046 0
M  V30 13 C 1.076835 4.028037 0.346681 0
M  V30 14 I 1.179787 6.041441 0.935833 0
M  V30 15 C 1.093212 3.614719 -0.964397 0
M  V30 16 C 1.026378 2.297736 -1.365944 0
M  V30 17 F 1.053535 2.052057 -2.698485 0
M  V30 18 C -0.283529 -1.665828 0.609081 0
M  V30 19 C -1.409697 -0.762382 0.752996 0
M  V30 20 N -2.551943 -1.050939 1.567150 0
M  V30 21 O -1.924910 0.322691 0.446373 0
M  V30 22 H -1.655778 -5.242533 1.976594 0
M  V30 23 H -0.574043 -4.622869 3.269264 0
M  V30 24 H -2.330346 -4.411872 3.467059 0
M  V30 25 H 0.635947 -4.698025 1.625153 0
M  V30 26 H 2.658313 -1.935095 -0.921278 0
M  V30 27 H 0.902480 -0.266060 -1.878540 0
M  V30 28 H 0.848600 0.924249 1.645339 0
M  V30 29 H 0.970104 3.302724 2.344230 0
M  V30 30 H 1.165011 4.406282 -1.726635 0
M  V30 31 H -3.449868 -1.554821 1.300114 0
M  V30 32 H -2.757533 -0.841719 2.574200 0
M  V30 END ATOM
M  V30 BEGIN BOND
M  V30 1 1 1 2
M  V30 2 1 2 3
M  V30 3 2 3 4
M  V30 4 1 4 5
M  V30 5 1 5 6
M  V30 6 2 5 7
M  V30 7 1 7 8
M  V30 8 1 8 9
M  V30 9 1 9 10
M  V30 10 2 10 11
M  V30 11 1 11 12
M  V30 12 2 12 13
M  V30 13 1 13 14
M  V30 14 1 13 15
M  V30 15 2 15 16
M  V30 16 1 16 17
M  V30 17 2 8 18
M  V30 18 1 18 19
M  V30 19 1 19 20
M  V30 20 2 19 21
M  V30 21 1 18 3
M  V30 22 1 16 10
M  V30 23 1 1 22
M  V30 24 1 1 23
M  V30 25 1 1 24
M  V30 26 1 4 25
M  V30 27 1 7 26
M  V30 28 1 9 27
M  V30 29 1 11 28
M  V30 30 1 12 29
M  V30 31 1 15 30
M  V30 32 1 20 31
M  V30 33 1 20 32
M  V30 END BOND
M  V30 END CTAB
M  END
>  <Dataset>  (769) 
ChEMBL_Kinases

>  <Ligand_Instance>  (769) 
nan

>  <PDB_ID>  (769) 
nan

>  <Standardized_SMILES>  (769) 
COc1cc(F)cc(Nc2ccc(I)cc2F)c1C(N)=O

>  <Name>  (769) 
nan

>  <Pocket>  (769) 
nan

>  <ATP_Site>  (769) 
nan

>  <Peripheral>  (769) 
nan

>  <Num_H_Atoms_ProtBoundConf>  (769) 
nan

>  <Num_Resolved_Atoms>  (769) 
nan

>  <Num_Not_Resolved_Atoms>  (769) 
nan

$$$$
CHEMBL2376670
     RDKit          3D

  0  0  0  0  0  0  0  0  0  0999 V3000
M  V30 BEGIN CTAB
M  V30 COUNTS 43 44 0 0 0
M  V30 BEGIN ATOM
M  V30 1 N 2.182191 -2.933531 1.245677 0
M  V30 2 C 1.914562 -1.832052 0.388540 0
M  V30 3 O 2.472518 -2.279280 -0.638090 0
M  V30 4 C 1.184053 -0.651252 0.826931 0
M  V30 5 C 0.963384 0.376233 -0.060989 0
M  V30 6 N 1.432564 0.305602 -1.373593 0
M  V30 7 C 1.288698 1.301455 -2.373589 0
M  V30 8 C 0.642924 1.209653 -3.588634 0
M  V30 9 C 0.590409 2.265160 -4.467882 0
M  V30 10 C 1.194925 3.462477 -4.146499 0
M  V30 11 I 1.072818 5.033554 -5.542089 0
M  V30 12 C 1.856386 3.580389 -2.919752 0
M  V30 13 C 1.904234 2.506559 -2.036515 0
M  V30 14 F 2.598061 2.852324 -0.925830 0
M  V30 15 C 0.274943 1.504555 0.328097 0
M  V30 16 C -0.186768 1.580146 1.626159 0
M  V30 17 F -0.873367 2.664918 2.076491 0
M  V30 18 C 0.062051 0.521855 2.475399 0
M  V30 19 C 0.746721 -0.632048 2.135488 0
M  V30 20 O 1.013213 -1.689852 2.931499 0
M  V30 21 C 0.728248 -1.984833 4.236211 0
M  V30 22 C -0.684781 -2.087063 4.668945 0
M  V30 23 C -1.488569 -3.141500 3.986175 0 CFG=2
M  V30 24 O -0.924426 -4.408752 4.214198 0
M  V30 25 C -1.730739 -2.925410 2.525382 0
M  V30 26 O -2.623202 -3.872417 1.999898 0
M  V30 27 H 2.906430 -3.139269 1.982393 0
M  V30 28 H 1.775990 -3.873938 1.434672 0
M  V30 29 H 1.949675 -0.402857 -1.911817 0
M  V30 30 H 0.201957 0.244716 -3.755853 0
M  V30 31 H 0.058455 2.084807 -5.391828 0
M  V30 32 H 2.283373 4.558720 -2.790129 0
M  V30 33 H 0.043011 2.366134 -0.285789 0
M  V30 34 H -0.307366 0.615596 3.480875 0
M  V30 35 H 1.227008 -2.975053 4.470062 0
M  V30 36 H 1.244086 -1.216305 4.885342 0
M  V30 37 H -1.267522 -1.160172 4.699848 0
M  V30 38 H -0.641966 -2.408287 5.760098 0
M  V30 39 H -2.522719 -3.233785 4.440978 0
M  V30 40 H -0.950124 -4.940220 3.381575 0
M  V30 41 H -0.728704 -3.087026 2.027419 0
M  V30 42 H -2.081872 -1.939834 2.248078 0
M  V30 43 H -2.825798 -4.599498 2.621236 0
M  V30 END ATOM
M  V30 BEGIN BOND
M  V30 1 1 1 2
M  V30 2 2 2 3
M  V30 3 1 2 4
M  V30 4 2 4 5
M  V30 5 1 5 6
M  V30 6 1 6 7
M  V30 7 2 7 8
M  V30 8 1 8 9
M  V30 9 2 9 10
M  V30 10 1 10 11
M  V30 11 1 10 12
M  V30 12 2 12 13
M  V30 13 1 13 14
M  V30 14 1 5 15
M  V30 15 2 15 16
M  V30 16 1 16 17
M  V30 17 1 16 18
M  V30 18 2 18 19
M  V30 19 1 19 20
M  V30 20 1 20 21
M  V30 21 1 21 22
M  V30 22 1 22 23
M  V30 23 1 23 24
M  V30 24 1 23 25
M  V30 25 1 25 26
M  V30 26 1 19 4
M  V30 27 1 13 7
M  V30 28 1 1 27
M  V30 29 1 1 28
M  V30 30 1 6 29
M  V30 31 1 8 30
M  V30 32 1 9 31
M  V30 33 1 12 32
M  V30 34 1 15 33
M  V30 35 1 18 34
M  V30 36 1 21 35
M  V30 37 1 21 36
M  V30 38 1 22 37
M  V30 39 1 22 38
M  V30 40 1 23 39 CFG=1
M  V30 41 1 24 40
M  V30 42 1 25 41
M  V30 43 1 25 42
M  V30 44 1 26 43
M  V30 END BOND
M  V30 END CTAB
M  END
>  <Dataset>  (770) 
ChEMBL_Kinases

>  <Ligand_Instance>  (770) 
nan

>  <PDB_ID>  (770) 
nan

>  <Standardized_SMILES>  (770) 
NC(=O)c1c(Nc2ccc(I)cc2F)cc(F)cc1OCC[C@H](O)CO

>  <Name>  (770) 
nan

>  <Pocket>  (770) 
nan

>  <ATP_Site>  (770) 
nan

>  <Peripheral>  (770) 
nan

>  <Num_H_Atoms_ProtBoundConf>  (770) 
nan

>  <Num_Resolved_Atoms>  (770) 
nan

>  <Num_Not_Resolved_Atoms>  (770) 
nan

$$$$
CHEMBL2376671
     RDKit          3D

  0  0  0  0  0  0  0  0  0  0999 V3000
M  V30 BEGIN CTAB
M  V30 COUNTS 43 44 0 0 0
M  V30 BEGIN ATOM
M  V30 1 N 2.140448 -1.722244 1.067706 0
M  V30 2 C 1.392136 -1.114033 0.038251 0
M  V30 3 O 2.240455 -1.520576 -0.769741 0
M  V30 4 C 0.177431 -0.416537 0.395945 0
M  V30 5 C -0.402905 0.206951 -0.663633 0
M  V30 6 N -0.144997 0.451998 -1.998152 0
M  V30 7 C 0.710822 1.226897 -2.817878 0
M  V30 8 C -0.158292 2.056643 -3.576942 0
M  V30 9 C 0.245139 2.996122 -4.509199 0
M  V30 10 C 1.587606 3.146656 -4.725941 0
M  V30 11 I 2.401316 4.515287 -6.091449 0
M  V30 12 C 2.482901 2.380153 -4.030033 0
M  V30 13 C 2.020017 1.471944 -3.124624 0
M  V30 14 F 2.834107 0.710460 -2.414263 0
M  V30 15 C -1.643398 0.779189 -0.312817 0
M  V30 16 C -2.198920 0.716066 0.957811 0
M  V30 17 F -3.373027 1.247448 1.325582 0
M  V30 18 C -1.505005 0.057753 1.939407 0
M  V30 19 C -0.296427 -0.522205 1.666536 0
M  V30 20 O 0.446583 -1.198779 2.616827 0
M  V30 21 C -0.061161 -1.291655 3.910748 0
M  V30 22 C 0.845256 -2.052436 4.845564 0 CFG=2
M  V30 23 O 2.101373 -1.473674 4.968369 0
M  V30 24 C 1.011176 -3.497619 4.506005 0
M  V30 25 C -0.307121 -4.248081 4.525853 0
M  V30 26 O -0.814866 -4.125039 5.825663 0
M  V30 27 H 2.955824 -1.357529 1.632813 0
M  V30 28 H 1.940667 -2.705621 1.424199 0
M  V30 29 H -0.811540 -0.191056 -2.546033 0
M  V30 30 H -1.264590 2.092188 -3.553495 0
M  V30 31 H -0.364725 3.649050 -5.110185 0
M  V30 32 H 3.540125 2.420671 -4.125414 0
M  V30 33 H -2.320554 1.337779 -0.979768 0
M  V30 34 H -1.878147 -0.024911 2.942135 0
M  V30 35 H -1.055966 -1.795480 3.959984 0
M  V30 36 H -0.138934 -0.260330 4.311612 0
M  V30 37 H 0.410909 -2.030074 5.886469 0
M  V30 38 H 2.771509 -2.043379 4.549884 0
M  V30 39 H 1.601997 -3.946202 5.355969 0
M  V30 40 H 1.601534 -3.636452 3.602904 0
M  V30 41 H -0.107422 -5.315966 4.307989 0
M  V30 42 H -1.043934 -3.832877 3.834132 0
M  V30 43 H -1.592434 -3.519883 5.840001 0
M  V30 END ATOM
M  V30 BEGIN BOND
M  V30 1 1 1 2
M  V30 2 2 2 3
M  V30 3 1 2 4
M  V30 4 2 4 5
M  V30 5 1 5 6
M  V30 6 1 6 7
M  V30 7 2 7 8
M  V30 8 1 8 9
M  V30 9 2 9 10
M  V30 10 1 10 11
M  V30 11 1 10 12
M  V30 12 2 12 13
M  V30 13 1 13 14
M  V30 14 1 5 15
M  V30 15 2 15 16
M  V30 16 1 16 17
M  V30 17 1 16 18
M  V30 18 2 18 19
M  V30 19 1 19 20
M  V30 20 1 20 21
M  V30 21 1 21 22
M  V30 22 1 22 23
M  V30 23 1 22 24
M  V30 24 1 24 25
M  V30 25 1 25 26
M  V30 26 1 19 4
M  V30 27 1 13 7
M  V30 28 1 1 27
M  V30 29 1 1 28
M  V30 30 1 6 29
M  V30 31 1 8 30
M  V30 32 1 9 31
M  V30 33 1 12 32
M  V30 34 1 15 33
M  V30 35 1 18 34
M  V30 36 1 21 35
M  V30 37 1 21 36
M  V30 38 1 22 37 CFG=1
M  V30 39 1 23 38
M  V30 40 1 24 39
M  V30 41 1 24 40
M  V30 42 1 25 41
M  V30 43 1 25 42
M  V30 44 1 26 43
M  V30 END BOND
M  V30 END CTAB
M  END
>  <Dataset>  (771) 
ChEMBL_Kinases

>  <Ligand_Instance>  (771) 
nan

>  <PDB_ID>  (771) 
nan

>  <Standardized_SMILES>  (771) 
NC(=O)c1c(Nc2ccc(I)cc2F)cc(F)cc1OC[C@H](O)CCO

>  <Name>  (771) 
nan

>  <Pocket>  (771) 
nan

>  <ATP_Site>  (771) 
nan

>  <Peripheral>  (771) 
nan

>  <Num_H_Atoms_ProtBoundConf>  (771) 
nan

>  <Num_Resolved_Atoms>  (771) 
nan

>  <Num_Not_Resolved_Atoms>  (771) 
nan

$$$$
CHEMBL2376672
     RDKit          3D

  0  0  0  0  0  0  0  0  0  0999 V3000
M  V30 BEGIN CTAB
M  V30 COUNTS 46 47 0 0 0
M  V30 BEGIN ATOM
M  V30 1 C -1.592430 -1.586114 5.061061 0
M  V30 2 C -0.130465 -2.010953 4.968995 0
M  V30 3 O 0.145881 -2.755424 6.114412 0
M  V30 4 C 0.087834 -2.915799 3.802577 0
M  V30 5 O -0.765173 -4.019849 3.937794 0
M  V30 6 C 0.767913 -0.797526 5.005938 0
M  V30 7 C 0.563475 0.179213 3.898084 0
M  V30 8 O 0.837026 -0.322777 2.609563 0
M  V30 9 C 0.636325 0.573448 1.566765 0
M  V30 10 C 0.199717 1.867163 1.649225 0
M  V30 11 C -0.001472 2.753634 0.617112 0
M  V30 12 F -0.451069 3.987904 0.886699 0
M  V30 13 C 0.278987 2.265242 -0.661266 0
M  V30 14 C 0.738220 0.928877 -0.821640 0
M  V30 15 N 0.929882 0.770072 -2.210350 0
M  V30 16 C 0.431099 0.151573 -3.394217 0
M  V30 17 C 0.082895 1.252889 -4.226984 0
M  V30 18 C -0.475624 1.195006 -5.518564 0
M  V30 19 C -0.678543 -0.097966 -5.956962 0
M  V30 20 I -1.491944 -0.541283 -7.843452 0
M  V30 21 C -0.360936 -1.180461 -5.193560 0
M  V30 22 C 0.181467 -1.080377 -3.944830 0
M  V30 23 F 0.494303 -2.107315 -3.177510 0
M  V30 24 C 0.889211 0.178347 0.276779 0
M  V30 25 C 1.433733 -1.059219 -0.163023 0
M  V30 26 N 1.730279 -1.906701 0.953508 0
M  V30 27 O 1.882193 -2.048373 -0.736950 0
M  V30 28 H -1.745991 -1.195651 6.084140 0
M  V30 29 H -1.851311 -0.885014 4.255829 0
M  V30 30 H -2.201245 -2.524134 4.953797 0
M  V30 31 H 0.136891 -3.733682 5.966387 0
M  V30 32 H 1.117593 -3.308900 3.798487 0
M  V30 33 H -0.217261 -2.435669 2.847384 0
M  V30 34 H -0.937182 -4.375896 3.029486 0
M  V30 35 H 0.639954 -0.302546 5.983344 0
M  V30 36 H 1.847996 -1.130458 4.984535 0
M  V30 37 H 1.291246 1.013935 4.078736 0
M  V30 38 H -0.441868 0.647099 3.915949 0
M  V30 39 H -0.010122 2.202738 2.676122 0
M  V30 40 H 0.093498 3.039639 -1.404103 0
M  V30 41 H 1.841319 1.305731 -2.425084 0
M  V30 42 H 0.197006 2.335443 -3.995919 0
M  V30 43 H -0.737282 2.036208 -6.138959 0
M  V30 44 H -0.500004 -2.214623 -5.503542 0
M  V30 45 H 2.030639 -2.642641 1.589641 0
M  V30 46 H 1.971635 -2.551279 1.692467 0
M  V30 END ATOM
M  V30 BEGIN BOND
M  V30 1 1 1 2
M  V30 2 1 2 3
M  V30 3 1 2 4
M  V30 4 1 4 5
M  V30 5 1 2 6
M  V30 6 1 6 7
M  V30 7 1 7 8
M  V30 8 1 8 9
M  V30 9 2 9 10
M  V30 10 1 10 11
M  V30 11 1 11 12
M  V30 12 2 11 13
M  V30 13 1 13 14
M  V30 14 1 14 15
M  V30 15 1 15 16
M  V30 16 2 16 17
M  V30 17 1 17 18
M  V30 18 2 18 19
M  V30 19 1 19 20
M  V30 20 1 19 21
M  V30 21 2 21 22
M  V30 22 1 22 23
M  V30 23 2 14 24
M  V30 24 1 24 25
M  V30 25 1 25 26
M  V30 26 2 25 27
M  V30 27 1 24 9
M  V30 28 1 22 16
M  V30 29 1 1 28
M  V30 30 1 1 29
M  V30 31 1 1 30
M  V30 32 1 3 31
M  V30 33 1 4 32
M  V30 34 1 4 33
M  V30 35 1 5 34
M  V30 36 1 6 35
M  V30 37 1 6 36
M  V30 38 1 7 37
M  V30 39 1 7 38
M  V30 40 1 10 39
M  V30 41 1 13 40
M  V30 42 1 15 41
M  V30 43 1 17 42
M  V30 44 1 18 43
M  V30 45 1 21 44
M  V30 46 1 26 45
M  V30 47 1 26 46
M  V30 END BOND
M  V30 END CTAB
M  END
>  <Dataset>  (772) 
ChEMBL_Kinases

>  <Ligand_Instance>  (772) 
nan

>  <PDB_ID>  (772) 
nan

>  <Standardized_SMILES>  (772) 
CC(O)(CO)CCOc1cc(F)cc(Nc2ccc(I)cc2F)c1C(N)=O

>  <Name>  (772) 
nan

>  <Pocket>  (772) 
nan

>  <ATP_Site>  (772) 
nan

>  <Peripheral>  (772) 
nan

>  <Num_H_Atoms_ProtBoundConf>  (772) 
nan

>  <Num_Resolved_Atoms>  (772) 
nan

>  <Num_Not_Resolved_Atoms>  (772) 
nan

$$$$
CHEMBL2376673
     RDKit          3D

  0  0  0  0  0  0  0  0  0  0999 V3000
M  V30 BEGIN CTAB
M  V30 COUNTS 49 50 0 0 0
M  V30 BEGIN ATOM
M  V30 1 C 3.107485 -3.216538 3.072177 0
M  V30 2 C 2.709995 -1.999806 2.211120 0
M  V30 3 C 1.800411 -1.138541 3.066703 0
M  V30 4 O 1.970556 -2.512856 1.178928 0
M  V30 5 C 3.969609 -1.322914 1.841080 0
M  V30 6 O 4.612372 -0.938696 3.059762 0
M  V30 7 C 3.929198 -0.120746 0.979765 0
M  V30 8 C 3.337478 -0.243895 -0.376735 0
M  V30 9 O 2.015549 -0.555078 -0.541703 0
M  V30 10 C 0.878425 0.103643 -0.162273 0
M  V30 11 C 0.742535 1.294056 0.511576 0
M  V30 12 C -0.463672 1.868189 0.846223 0
M  V30 13 F -0.486715 3.047917 1.513260 0
M  V30 14 C -1.634711 1.231408 0.495860 0
M  V30 15 C -1.542431 0.037445 -0.180627 0
M  V30 16 N -2.735105 -0.629400 -0.554079 0
M  V30 17 C -4.053492 -0.173168 -0.309915 0
M  V30 18 C -5.034252 -0.795403 0.432764 0
M  V30 19 C -6.287380 -0.236548 0.582879 0
M  V30 20 C -6.612767 0.968617 -0.003597 0
M  V30 21 I -8.534597 1.762793 0.264276 0
M  V30 22 C -5.634964 1.601628 -0.751632 0
M  V30 23 C -4.375573 1.048953 -0.907900 0
M  V30 24 F -3.565273 1.835358 -1.689080 0
M  V30 25 C -0.312976 -0.485267 -0.486567 0
M  V30 26 C -0.366487 -1.724262 -1.205491 0
M  V30 27 N 0.737584 -2.460193 -1.674355 0
M  V30 28 O -1.018440 -2.649007 -1.721169 0
M  V30 29 H 3.431041 -2.876592 4.066640 0
M  V30 30 H 3.870853 -3.792318 2.520110 0
M  V30 31 H 2.190518 -3.829256 3.214062 0
M  V30 32 H 1.972003 -1.305487 4.149057 0
M  V30 33 H 0.758209 -1.454078 2.879402 0
M  V30 34 H 1.907584 -0.096480 2.767083 0
M  V30 35 H 1.696691 -3.464030 1.277923 0
M  V30 36 H 4.635670 -2.070877 1.356558 0
M  V30 37 H 5.030753 -1.701342 3.491204 0
M  V30 38 H 3.591509 0.797442 1.526478 0
M  V30 39 H 5.032150 0.136829 0.777758 0
M  V30 40 H 3.649839 0.681311 -0.942063 0
M  V30 41 H 3.953626 -1.061767 -0.891595 0
M  V30 42 H 1.623154 1.814217 0.790381 0
M  V30 43 H -2.549248 1.726086 0.787333 0
M  V30 44 H -2.933791 -1.517448 -1.044082 0
M  V30 45 H -4.754983 -1.728820 0.876492 0
M  V30 46 H -6.985898 -0.795473 1.180330 0
M  V30 47 H -5.959601 2.542504 -1.182464 0
M  V30 48 H 1.545077 -3.000787 -2.018791 0
M  V30 49 H 1.735382 -2.708772 -1.827467 0
M  V30 END ATOM
M  V30 BEGIN BOND
M  V30 1 1 1 2
M  V30 2 1 2 3
M  V30 3 1 2 4
M  V30 4 1 2 5
M  V30 5 1 5 6
M  V30 6 1 5 7
M  V30 7 1 7 8
M  V30 8 1 8 9
M  V30 9 1 9 10
M  V30 10 2 10 11
M  V30 11 1 11 12
M  V30 12 1 12 13
M  V30 13 2 12 14
M  V30 14 1 14 15
M  V30 15 1 15 16
M  V30 16 1 16 17
M  V30 17 2 17 18
M  V30 18 1 18 19
M  V30 19 2 19 20
M  V30 20 1 20 21
M  V30 21 1 20 22
M  V30 22 2 22 23
M  V30 23 1 23 24
M  V30 24 2 15 25
M  V30 25 1 25 26
M  V30 26 1 26 27
M  V30 27 2 26 28
M  V30 28 1 25 10
M  V30 29 1 23 17
M  V30 30 1 1 29
M  V30 31 1 1 30
M  V30 32 1 1 31
M  V30 33 1 3 32
M  V30 34 1 3 33
M  V30 35 1 3 34
M  V30 36 1 4 35
M  V30 37 1 5 36
M  V30 38 1 6 37
M  V30 39 1 7 38
M  V30 40 1 7 39
M  V30 41 1 8 40
M  V30 42 1 8 41
M  V30 43 1 11 42
M  V30 44 1 14 43
M  V30 45 1 16 44
M  V30 46 1 18 45
M  V30 47 1 19 46
M  V30 48 1 22 47
M  V30 49 1 27 48
M  V30 50 1 27 49
M  V30 END BOND
M  V30 END CTAB
M  END
>  <Dataset>  (773) 
ChEMBL_Kinases

>  <Ligand_Instance>  (773) 
nan

>  <PDB_ID>  (773) 
nan

>  <Standardized_SMILES>  (773) 
CC(C)(O)C(O)CCOc1cc(F)cc(Nc2ccc(I)cc2F)c1C(N)=O

>  <Name>  (773) 
nan

>  <Pocket>  (773) 
nan

>  <ATP_Site>  (773) 
nan

>  <Peripheral>  (773) 
nan

>  <Num_H_Atoms_ProtBoundConf>  (773) 
nan

>  <Num_Resolved_Atoms>  (773) 
nan

>  <Num_Not_Resolved_Atoms>  (773) 
nan

$$$$
CHEMBL2376674
     RDKit          3D

  0  0  0  0  0  0  0  0  0  0999 V3000
M  V30 BEGIN CTAB
M  V30 COUNTS 49 51 0 0 0
M  V30 BEGIN ATOM
M  V30 1 N 0.516821 -1.399359 2.759975 0
M  V30 2 C 1.275544 -0.200676 2.493014 0
M  V30 3 O 2.241013 -0.673212 3.086383 0
M  V30 4 C 0.690796 0.884377 1.760430 0
M  V30 5 C 1.526783 1.944864 1.554591 0
M  V30 6 N 2.880700 2.126037 1.927496 0
M  V30 7 C 4.008646 1.375443 1.499830 0
M  V30 8 C 3.979574 0.328232 0.605530 0
M  V30 9 C 5.073868 -0.398143 0.190494 0
M  V30 10 C 6.309515 -0.039112 0.722691 0
M  V30 11 I 7.997375 -1.157063 0.080608 0
M  V30 12 C 6.391496 1.017887 1.635100 0
M  V30 13 C 5.256254 1.680968 1.988996 0
M  V30 14 F 5.431687 2.689589 2.877670 0
M  V30 15 C 1.039869 3.069678 0.876581 0
M  V30 16 C -0.265590 3.078539 0.434753 0
M  V30 17 F -0.798008 4.133303 -0.226213 0
M  V30 18 C -1.032771 1.966170 0.686433 0
M  V30 19 C -0.629539 0.831528 1.340678 0
M  V30 20 O -1.265931 -0.319457 1.655443 0
M  V30 21 C -2.548448 -0.772236 1.414394 0
M  V30 22 C -2.836682 -0.925973 -0.036570 0
M  V30 23 C -4.241030 -1.428021 -0.305495 0 CFG=1
M  V30 24 O -4.366702 -1.520288 -1.691953 0
M  V30 25 C -4.449589 -2.829495 0.226074 0
M  V30 26 N -3.520597 -3.742759 -0.406957 0
M  V30 27 C -2.262613 -4.110834 -0.029230 0
M  V30 28 C -1.735980 -5.000281 -0.917208 0
M  V30 29 C -2.726831 -5.176651 -1.877910 0
M  V30 30 N -3.760377 -4.415271 -1.535354 0
M  V30 31 H 0.471397 -2.329246 2.260412 0
M  V30 32 H -0.148617 -1.474622 3.577482 0
M  V30 33 H 3.026106 2.912598 2.597785 0
M  V30 34 H 3.016352 0.048734 0.190451 0
M  V30 35 H 4.962295 -1.210784 -0.519600 0
M  V30 36 H 7.370072 1.260426 2.021440 0
M  V30 37 H 1.608385 3.975089 0.652636 0
M  V30 38 H -2.050655 1.999669 0.348338 0
M  V30 39 H -2.623648 -1.785849 1.919288 0
M  V30 40 H -3.301124 -0.098238 1.900865 0
M  V30 41 H -2.767577 0.035530 -0.557512 0
M  V30 42 H -2.133170 -1.688511 -0.455497 0
M  V30 43 H -4.988121 -0.725685 0.060732 0
M  V30 44 H -5.109669 -0.959308 -2.041825 0
M  V30 45 H -4.361915 -2.868092 1.331048 0
M  V30 46 H -5.472935 -3.142005 -0.062262 0
M  V30 47 H -1.759222 -3.747995 0.847305 0
M  V30 48 H -0.750929 -5.482785 -0.898112 0
M  V30 49 H -2.573378 -5.844159 -2.717649 0
M  V30 END ATOM
M  V30 BEGIN BOND
M  V30 1 1 1 2
M  V30 2 2 2 3
M  V30 3 1 2 4
M  V30 4 2 4 5
M  V30 5 1 5 6
M  V30 6 1 6 7
M  V30 7 2 7 8
M  V30 8 1 8 9
M  V30 9 2 9 10
M  V30 10 1 10 11
M  V30 11 1 10 12
M  V30 12 2 12 13
M  V30 13 1 13 14
M  V30 14 1 5 15
M  V30 15 2 15 16
M  V30 16 1 16 17
M  V30 17 1 16 18
M  V30 18 2 18 19
M  V30 19 1 19 20
M  V30 20 1 20 21
M  V30 21 1 21 22
M  V30 22 1 22 23
M  V30 23 1 23 24
M  V30 24 1 23 25
M  V30 25 1 25 26
M  V30 26 1 26 27
M  V30 27 2 27 28
M  V30 28 1 28 29
M  V30 29 2 29 30
M  V30 30 1 19 4
M  V30 31 1 30 26
M  V30 32 1 13 7
M  V30 33 1 1 31
M  V30 34 1 1 32
M  V30 35 1 6 33
M  V30 36 1 8 34
M  V30 37 1 9 35
M  V30 38 1 12 36
M  V30 39 1 15 37
M  V30 40 1 18 38
M  V30 41 1 21 39
M  V30 42 1 21 40
M  V30 43 1 22 41
M  V30 44 1 22 42
M  V30 45 1 23 43 CFG=1
M  V30 46 1 24 44
M  V30 47 1 25 45
M  V30 48 1 25 46
M  V30 49 1 27 47
M  V30 50 1 28 48
M  V30 51 1 29 49
M  V30 END BOND
M  V30 END CTAB
M  END
>  <Dataset>  (774) 
ChEMBL_Kinases

>  <Ligand_Instance>  (774) 
nan

>  <PDB_ID>  (774) 
nan

>  <Standardized_SMILES>  (774) 
NC(=O)c1c(Nc2ccc(I)cc2F)cc(F)cc1OCC[C@@H](O)Cn1cccn1

>  <Name>  (774) 
nan

>  <Pocket>  (774) 
nan

>  <ATP_Site>  (774) 
nan

>  <Peripheral>  (774) 
nan

>  <Num_H_Atoms_ProtBoundConf>  (774) 
nan

>  <Num_Resolved_Atoms>  (774) 
nan

>  <Num_Not_Resolved_Atoms>  (774) 
nan

$$$$
CHEMBL2376675
     RDKit          3D

  0  0  0  0  0  0  0  0  0  0999 V3000
M  V30 BEGIN CTAB
M  V30 COUNTS 49 51 0 0 0
M  V30 BEGIN ATOM
M  V30 1 N 0.700686 -2.032832 2.292775 0
M  V30 2 C 1.460781 -0.812693 2.386294 0
M  V30 3 O 2.447397 -1.461925 2.721734 0
M  V30 4 C 0.849270 0.451377 2.095579 0
M  V30 5 C 1.691263 1.531921 2.192314 0
M  V30 6 N 3.071011 1.569379 2.508511 0
M  V30 7 C 4.158237 0.999056 1.791574 0
M  V30 8 C 4.063273 0.302252 0.608123 0
M  V30 9 C 5.142872 -0.236746 -0.058741 0
M  V30 10 C 6.410665 -0.088156 0.462551 0
M  V30 11 I 7.991344 -0.946273 -0.629296 0
M  V30 12 C 6.517440 0.607714 1.646899 0
M  V30 13 C 5.435941 1.132230 2.289112 0
M  V30 14 F 5.695762 1.797516 3.454945 0
M  V30 15 C 1.172859 2.809010 1.958070 0
M  V30 16 C -0.159819 2.941320 1.638620 0
M  V30 17 F -0.710102 4.155560 1.402707 0
M  V30 18 C -0.935240 1.809313 1.561135 0
M  V30 19 C -0.510815 0.524129 1.774130 0
M  V30 20 O -1.137825 -0.672461 1.738032 0
M  V30 21 C -2.432342 -0.989541 1.452226 0
M  V30 22 C -2.872708 -0.660779 0.070557 0
M  V30 23 C -4.319880 -1.043786 -0.177703 0 CFG=1
M  V30 24 O -4.620103 -0.691737 -1.492083 0
M  V30 25 C -4.536152 -2.551905 -0.101342 0
M  V30 26 N -3.729540 -3.235927 -1.091999 0
M  V30 27 C -2.475047 -3.708599 -0.967927 0
M  V30 28 C -2.079153 -4.297469 -2.166118 0
M  V30 29 N -3.103077 -4.174628 -3.007531 0
M  V30 30 C -4.117382 -3.528939 -2.366299 0
M  V30 31 H 0.069118 -2.379754 3.074993 0
M  V30 32 H 0.605884 -2.767832 1.529151 0
M  V30 33 H 3.264708 2.092214 3.389639 0
M  V30 34 H 3.067534 0.177898 0.186381 0
M  V30 35 H 4.946618 -0.768094 -0.987917 0
M  V30 36 H 7.530042 0.704762 2.026906 0
M  V30 37 H 1.746855 3.725689 2.008320 0
M  V30 38 H -1.959023 1.946363 1.328549 0
M  V30 39 H -2.544770 -2.105573 1.595188 0
M  V30 40 H -3.139539 -0.533611 2.202733 0
M  V30 41 H -2.808719 0.413607 -0.127090 0
M  V30 42 H -2.285735 -1.272205 -0.653648 0
M  V30 43 H -5.021565 -0.513857 0.479365 0
M  V30 44 H -3.858492 -0.968763 -2.060800 0
M  V30 45 H -4.432449 -2.955838 0.915581 0
M  V30 46 H -5.610534 -2.694066 -0.394363 0
M  V30 47 H -1.848115 -3.658601 -0.100752 0
M  V30 48 H -1.104232 -4.765810 -2.353727 0
M  V30 49 H -5.094304 -3.280361 -2.799755 0
M  V30 END ATOM
M  V30 BEGIN BOND
M  V30 1 1 1 2
M  V30 2 2 2 3
M  V30 3 1 2 4
M  V30 4 2 4 5
M  V30 5 1 5 6
M  V30 6 1 6 7
M  V30 7 2 7 8
M  V30 8 1 8 9
M  V30 9 2 9 10
M  V30 10 1 10 11
M  V30 11 1 10 12
M  V30 12 2 12 13
M  V30 13 1 13 14
M  V30 14 1 5 15
M  V30 15 2 15 16
M  V30 16 1 16 17
M  V30 17 1 16 18
M  V30 18 2 18 19
M  V30 19 1 19 20
M  V30 20 1 20 21
M  V30 21 1 21 22
M  V30 22 1 22 23
M  V30 23 1 23 24
M  V30 24 1 23 25
M  V30 25 1 25 26
M  V30 26 1 26 27
M  V30 27 2 27 28
M  V30 28 1 28 29
M  V30 29 2 29 30
M  V30 30 1 19 4
M  V30 31 1 30 26
M  V30 32 1 13 7
M  V30 33 1 1 31
M  V30 34 1 1 32
M  V30 35 1 6 33
M  V30 36 1 8 34
M  V30 37 1 9 35
M  V30 38 1 12 36
M  V30 39 1 15 37
M  V30 40 1 18 38
M  V30 41 1 21 39
M  V30 42 1 21 40
M  V30 43 1 22 41
M  V30 44 1 22 42
M  V30 45 1 23 43 CFG=1
M  V30 46 1 24 44
M  V30 47 1 25 45
M  V30 48 1 25 46
M  V30 49 1 27 47
M  V30 50 1 28 48
M  V30 51 1 30 49
M  V30 END BOND
M  V30 END CTAB
M  END
>  <Dataset>  (775) 
ChEMBL_Kinases

>  <Ligand_Instance>  (775) 
nan

>  <PDB_ID>  (775) 
nan

>  <Standardized_SMILES>  (775) 
NC(=O)c1c(Nc2ccc(I)cc2F)cc(F)cc1OCC[C@@H](O)Cn1ccnc1

>  <Name>  (775) 
nan

>  <Pocket>  (775) 
nan

>  <ATP_Site>  (775) 
nan

>  <Peripheral>  (775) 
nan

>  <Num_H_Atoms_ProtBoundConf>  (775) 
nan

>  <Num_Resolved_Atoms>  (775) 
nan

>  <Num_Not_Resolved_Atoms>  (775) 
nan

$$$$
CHEMBL2376676
     RDKit          3D

  0  0  0  0  0  0  0  0  0  0999 V3000
M  V30 BEGIN CTAB
M  V30 COUNTS 44 46 0 0 0
M  V30 BEGIN ATOM
M  V30 1 N 2.104831 -2.214661 0.966951 0
M  V30 2 C 2.304186 -0.813197 1.091475 0
M  V30 3 O 3.448623 -0.933183 0.624508 0
M  V30 4 C 1.280867 0.061821 1.620112 0
M  V30 5 C 1.589778 1.399327 1.667393 0
M  V30 6 N 2.777046 2.042253 1.243139 0
M  V30 7 C 3.339542 2.129601 -0.058102 0
M  V30 8 C 2.804929 1.601052 -1.211504 0
M  V30 9 C 3.401245 1.719961 -2.448665 0
M  V30 10 C 4.584292 2.387005 -2.591261 0
M  V30 11 I 5.506490 2.577878 -4.467132 0
M  V30 12 C 5.118655 2.912696 -1.452387 0
M  V30 13 C 4.532098 2.798569 -0.220264 0
M  V30 14 F 5.130932 3.354243 0.876680 0
M  V30 15 C 0.641926 2.249305 2.194672 0
M  V30 16 C -0.563327 1.768756 2.652366 0
M  V30 17 F -1.493819 2.604493 3.170189 0
M  V30 18 C -0.790445 0.413988 2.566359 0
M  V30 19 C 0.102982 -0.498969 2.054321 0
M  V30 20 O -0.032196 -1.838710 1.931370 0
M  V30 21 C -1.038888 -2.714882 2.241514 0
M  V30 22 C -2.350202 -2.535567 1.550938 0 CFG=2
M  V30 23 C -3.267262 -3.749230 1.798817 0
M  V30 24 C -4.384941 -3.401743 0.815603 0
M  V30 25 C -3.616240 -2.784405 -0.335844 0
M  V30 26 N -2.237621 -2.640017 0.105081 0
M  V30 27 H 1.738366 -2.803949 0.185735 0
M  V30 28 H 2.287621 -2.984948 1.654439 0
M  V30 29 H 3.260229 2.494245 2.044150 0
M  V30 30 H 1.856246 1.064558 -1.105710 0
M  V30 31 H 2.920458 1.273573 -3.330742 0
M  V30 32 H 6.058312 3.453150 -1.508595 0
M  V30 33 H 0.783144 3.315262 2.278685 0
M  V30 34 H -1.735448 0.051788 2.934543 0
M  V30 35 H -1.263459 -2.567173 3.344495 0
M  V30 36 H -0.736608 -3.789920 2.197944 0
M  V30 37 H -2.928131 -1.668816 1.893172 0
M  V30 38 H -3.600196 -3.788523 2.838850 0
M  V30 39 H -2.782978 -4.683438 1.453573 0
M  V30 40 H -5.006338 -2.593126 1.263315 0
M  V30 41 H -4.969622 -4.288510 0.509517 0
M  V30 42 H -3.601531 -3.448572 -1.234393 0
M  V30 43 H -4.002458 -1.781177 -0.591578 0
M  V30 44 H -1.773202 -1.821623 -0.336141 0
M  V30 END ATOM
M  V30 BEGIN BOND
M  V30 1 1 1 2
M  V30 2 2 2 3
M  V30 3 1 2 4
M  V30 4 2 4 5
M  V30 5 1 5 6
M  V30 6 1 6 7
M  V30 7 2 7 8
M  V30 8 1 8 9
M  V30 9 2 9 10
M  V30 10 1 10 11
M  V30 11 1 10 12
M  V30 12 2 12 13
M  V30 13 1 13 14
M  V30 14 1 5 15
M  V30 15 2 15 16
M  V30 16 1 16 17
M  V30 17 1 16 18
M  V30 18 2 18 19
M  V30 19 1 19 20
M  V30 20 1 20 21
M  V30 21 1 21 22
M  V30 22 1 22 23
M  V30 23 1 23 24
M  V30 24 1 24 25
M  V30 25 1 25 26
M  V30 26 1 19 4
M  V30 27 1 26 22
M  V30 28 1 13 7
M  V30 29 1 1 27
M  V30 30 1 1 28
M  V30 31 1 6 29
M  V30 32 1 8 30
M  V30 33 1 9 31
M  V30 34 1 12 32
M  V30 35 1 15 33
M  V30 36 1 18 34
M  V30 37 1 21 35
M  V30 38 1 21 36
M  V30 39 1 22 37 CFG=3
M  V30 40 1 23 38
M  V30 41 1 23 39
M  V30 42 1 24 40
M  V30 43 1 24 41
M  V30 44 1 25 42
M  V30 45 1 25 43
M  V30 46 1 26 44
M  V30 END BOND
M  V30 END CTAB
M  END
>  <Dataset>  (776) 
ChEMBL_Kinases

>  <Ligand_Instance>  (776) 
nan

>  <PDB_ID>  (776) 
nan

>  <Standardized_SMILES>  (776) 
NC(=O)c1c(Nc2ccc(I)cc2F)cc(F)cc1OC[C@@H]1CCCN1

>  <Name>  (776) 
nan

>  <Pocket>  (776) 
nan

>  <ATP_Site>  (776) 
nan

>  <Peripheral>  (776) 
nan

>  <Num_H_Atoms_ProtBoundConf>  (776) 
nan

>  <Num_Resolved_Atoms>  (776) 
nan

>  <Num_Not_Resolved_Atoms>  (776) 
nan

$$$$
CHEMBL2376668
     RDKit          3D

  0  0  0  0  0  0  0  0  0  0999 V3000
M  V30 BEGIN CTAB
M  V30 COUNTS 43 44 0 0 0
M  V30 BEGIN ATOM
M  V30 1 N 2.844865 -1.769151 1.584111 0
M  V30 2 C 2.251054 -0.853930 0.672440 0
M  V30 3 O 3.188078 -1.125226 -0.100114 0
M  V30 4 C 1.011790 -0.087875 0.926440 0
M  V30 5 C 0.547037 0.761923 -0.038790 0
M  V30 6 N 1.160377 0.957364 -1.247453 0
M  V30 7 C 1.070208 1.658564 -2.445194 0
M  V30 8 C 0.108122 2.558966 -2.823156 0
M  V30 9 C 0.003170 3.259338 -3.999260 0
M  V30 10 C 1.019031 2.990441 -4.885221 0
M  V30 11 I 0.999487 3.992223 -6.746562 0
M  V30 12 C 2.045969 2.115193 -4.643569 0
M  V30 13 C 2.046542 1.472470 -3.433013 0
M  V30 14 F 3.110829 0.617292 -3.280421 0
M  V30 15 C -0.606487 1.400503 0.337902 0
M  V30 16 C -1.244099 1.229413 1.534721 0
M  V30 17 F -2.379383 1.836035 1.946550 0
M  V30 18 C -0.697568 0.352817 2.439122 0
M  V30 19 C 0.450797 -0.330150 2.151869 0
M  V30 20 O 1.062328 -1.210303 2.976775 0
M  V30 21 C 0.791239 -1.688208 4.222511 0
M  V30 22 C -0.471758 -2.457199 4.427737 0
M  V30 23 C -0.538280 -3.694612 3.556821 0 CFG=1
M  V30 24 O 0.537360 -4.503020 3.883796 0
M  V30 25 C -1.824685 -4.429494 3.877934 0
M  V30 26 O -2.934604 -3.645483 3.561544 0
M  V30 27 H 3.558455 -1.683581 2.358115 0
M  V30 28 H 2.738711 -2.814578 1.754231 0
M  V30 29 H 2.010721 0.355652 -1.278769 0
M  V30 30 H -0.711719 2.813906 -2.179509 0
M  V30 31 H -0.775268 3.958643 -4.249999 0
M  V30 32 H 2.790580 1.966798 -5.384739 0
M  V30 33 H -1.173735 2.113163 -0.229070 0
M  V30 34 H -1.160085 0.193712 3.401463 0
M  V30 35 H 1.640602 -2.378716 4.511549 0
M  V30 36 H 0.834502 -0.810126 4.943086 0
M  V30 37 H -1.410403 -1.905765 4.325701 0
M  V30 38 H -0.477296 -2.867071 5.486464 0
M  V30 39 H -0.490193 -3.433219 2.481471 0
M  V30 40 H 1.365884 -4.232386 3.391121 0
M  V30 41 H -1.875508 -5.383636 3.290805 0
M  V30 42 H -1.803476 -4.667114 4.959050 0
M  V30 43 H -2.638223 -3.012953 2.850297 0
M  V30 END ATOM
M  V30 BEGIN BOND
M  V30 1 1 1 2
M  V30 2 2 2 3
M  V30 3 1 2 4
M  V30 4 2 4 5
M  V30 5 1 5 6
M  V30 6 1 6 7
M  V30 7 2 7 8
M  V30 8 1 8 9
M  V30 9 2 9 10
M  V30 10 1 10 11
M  V30 11 1 10 12
M  V30 12 2 12 13
M  V30 13 1 13 14
M  V30 14 1 5 15
M  V30 15 2 15 16
M  V30 16 1 16 17
M  V30 17 1 16 18
M  V30 18 2 18 19
M  V30 19 1 19 20
M  V30 20 1 20 21
M  V30 21 1 21 22
M  V30 22 1 22 23
M  V30 23 1 23 24
M  V30 24 1 23 25
M  V30 25 1 25 26
M  V30 26 1 19 4
M  V30 27 1 13 7
M  V30 28 1 1 27
M  V30 29 1 1 28
M  V30 30 1 6 29
M  V30 31 1 8 30
M  V30 32 1 9 31
M  V30 33 1 12 32
M  V30 34 1 15 33
M  V30 35 1 18 34
M  V30 36 1 21 35
M  V30 37 1 21 36
M  V30 38 1 22 37
M  V30 39 1 22 38
M  V30 40 1 23 39 CFG=3
M  V30 41 1 24 40
M  V30 42 1 25 41
M  V30 43 1 25 42
M  V30 44 1 26 43
M  V30 END BOND
M  V30 END CTAB
M  END
>  <Dataset>  (777) 
ChEMBL_Kinases

>  <Ligand_Instance>  (777) 
nan

>  <PDB_ID>  (777) 
nan

>  <Standardized_SMILES>  (777) 
NC(=O)c1c(Nc2ccc(I)cc2F)cc(F)cc1OCC[C@@H](O)CO

>  <Name>  (777) 
nan

>  <Pocket>  (777) 
nan

>  <ATP_Site>  (777) 
nan

>  <Peripheral>  (777) 
nan

>  <Num_H_Atoms_ProtBoundConf>  (777) 
nan

>  <Num_Resolved_Atoms>  (777) 
nan

>  <Num_Not_Resolved_Atoms>  (777) 
nan

$$$$
CHEMBL2381162
     RDKit          3D

  0  0  0  0  0  0  0  0  0  0999 V3000
M  V30 BEGIN CTAB
M  V30 COUNTS 73 76 0 0 0
M  V30 BEGIN ATOM
M  V30 1 C 2.210565 -1.893246 0.165829 0
M  V30 2 C 2.163179 -0.623559 -0.701228 0
M  V30 3 C 2.154551 -1.141769 -2.121889 0
M  V30 4 C 3.468711 0.073479 -0.514852 0
M  V30 5 C 3.372225 1.325686 0.319846 0
M  V30 6 C 2.234872 2.170566 -0.117655 0 CFG=2
M  V30 7 C 1.971217 3.263678 0.932965 0
M  V30 8 C 0.932834 4.126711 0.331659 0
M  V30 9 O 0.395677 4.852581 1.222317 0
M  V30 10 O 0.579207 4.149296 -1.031831 0
M  V30 11 C -0.460000 5.026444 -1.479761 0 CFG=1
M  V30 12 C 0.163130 6.061589 -2.432923 0
M  V30 13 O 1.152019 6.808842 -1.796226 0
M  V30 14 C -1.461949 4.274329 -2.314593 0
M  V30 15 C -2.004135 3.095781 -1.565840 0
M  V30 16 O -3.065542 2.951554 -0.908458 0
M  V30 17 O -1.081157 2.080015 -1.708516 0
M  V30 18 C -1.307134 0.819833 -1.102336 0 CFG=2
M  V30 19 C -1.556284 0.948933 0.366440 0
M  V30 20 C -0.711317 0.164487 1.280567 0 CFG=1
M  V30 21 C -1.422464 -1.010654 1.917307 0
M  V30 22 C -1.945152 -2.005485 0.896857 0
M  V30 23 C -2.625781 -3.082679 1.691534 0
M  V30 24 C -3.245753 -4.196551 0.940200 0
M  V30 25 C -2.393983 -5.016494 0.089702 0
M  V30 26 C -1.875241 -6.171958 0.690608 0
M  V30 27 C -1.011972 -7.067024 0.068264 0
M  V30 28 O -0.520898 -8.198845 0.696872 0
M  V30 29 C -0.620018 -6.828987 -1.230793 0
M  V30 30 C -1.104573 -5.706295 -1.863174 0
M  V30 31 C -1.955334 -4.856557 -1.201524 0
M  V30 32 Br -2.631429 -3.379898 -2.168145 0
M  V30 33 O 0.528544 -0.216730 0.874079 0
M  V30 34 C 0.946690 0.207543 -0.365384 0 CFG=2
M  V30 35 C -0.122030 -0.095934 -1.434184 0
M  V30 36 O 1.098195 1.551408 -0.478688 0
M  V30 37 H 1.998284 -1.623722 1.243598 0
M  V30 38 H 1.457516 -2.636272 -0.149446 0
M  V30 39 H 3.233590 -2.300820 0.185469 0
M  V30 40 H 1.361455 -1.861623 -2.341915 0
M  V30 41 H 3.117824 -1.722486 -2.200748 0
M  V30 42 H 2.276577 -0.331286 -2.879198 0
M  V30 43 H 3.954629 0.331231 -1.492539 0
M  V30 44 H 4.219407 -0.586568 -0.013620 0
M  V30 45 H 3.313215 1.082774 1.403508 0
M  V30 46 H 4.350286 1.859767 0.202828 0
M  V30 47 H 2.587061 2.763087 -1.013573 0
M  V30 48 H 2.906087 3.856834 0.982652 0
M  V30 49 H 1.687027 2.757389 1.852802 0
M  V30 50 H -0.867276 5.562064 -0.618394 0
M  V30 51 H -0.672478 6.720637 -2.739729 0
M  V30 52 H 0.539443 5.486980 -3.296670 0
M  V30 53 H 2.037380 6.418913 -2.055061 0
M  V30 54 H -1.133210 3.982605 -3.306366 0
M  V30 55 H -2.349103 4.975685 -2.405534 0
M  V30 56 H -2.160848 0.365130 -1.648283 0
M  V30 57 H -1.550403 2.053489 0.611553 0
M  V30 58 H -2.628833 0.658811 0.536897 0
M  V30 59 H -0.491948 0.842182 2.168363 0
M  V30 60 H -0.759261 -1.552121 2.625795 0
M  V30 61 H -2.308929 -0.695826 2.515358 0
M  V30 62 H -2.692180 -1.546400 0.229265 0
M  V30 63 H -1.155820 -2.456387 0.303369 0
M  V30 64 H -3.465092 -2.566247 2.249293 0
M  V30 65 H -1.957287 -3.454106 2.511204 0
M  V30 66 H -3.754537 -4.847900 1.700138 0
M  V30 67 H -4.122311 -3.786814 0.341131 0
M  V30 68 H -2.129290 -6.442624 1.710196 0
M  V30 69 H 0.448068 -8.467905 0.486629 0
M  V30 70 H 0.045322 -7.514223 -1.719079 0
M  V30 71 H -0.807977 -5.505973 -2.876207 0
M  V30 72 H 0.286314 0.301545 -2.386861 0
M  V30 73 H -0.375065 -1.141462 -1.512017 0
M  V30 END ATOM
M  V30 BEGIN BOND
M  V30 1 1 1 2
M  V30 2 1 2 3
M  V30 3 1 2 4
M  V30 4 1 4 5
M  V30 5 1 5 6
M  V30 6 1 6 7
M  V30 7 1 7 8
M  V30 8 2 8 9
M  V30 9 1 8 10
M  V30 10 1 10 11
M  V30 11 1 11 12
M  V30 12 1 12 13
M  V30 13 1 11 14
M  V30 14 1 14 15
M  V30 15 2 15 16
M  V30 16 1 15 17
M  V30 17 1 17 18
M  V30 18 1 18 19
M  V30 19 1 19 20
M  V30 20 1 20 21
M  V30 21 1 21 22
M  V30 22 1 22 23
M  V30 23 1 23 24
M  V30 24 1 24 25
M  V30 25 2 25 26
M  V30 26 1 26 27
M  V30 27 1 27 28
M  V30 28 2 27 29
M  V30 29 1 29 30
M  V30 30 2 30 31
M  V30 31 1 31 32
M  V30 32 1 20 33
M  V30 33 1 34 33 CFG=1
M  V30 34 1 34 35
M  V30 35 1 34 36
M  V30 36 1 34 2
M  V30 37 1 36 6
M  V30 38 1 35 18
M  V30 39 1 31 25
M  V30 40 1 1 37
M  V30 41 1 1 38
M  V30 42 1 1 39
M  V30 43 1 3 40
M  V30 44 1 3 41
M  V30 45 1 3 42
M  V30 46 1 4 43
M  V30 47 1 4 44
M  V30 48 1 5 45
M  V30 49 1 5 46
M  V30 50 1 6 47 CFG=3
M  V30 51 1 7 48
M  V30 52 1 7 49
M  V30 53 1 11 50 CFG=1
M  V30 54 1 12 51
M  V30 55 1 12 52
M  V30 56 1 13 53
M  V30 57 1 14 54
M  V30 58 1 14 55
M  V30 59 1 18 56 CFG=3
M  V30 60 1 19 57
M  V30 61 1 19 58
M  V30 62 1 20 59 CFG=1
M  V30 63 1 21 60
M  V30 64 1 21 61
M  V30 65 1 22 62
M  V30 66 1 22 63
M  V30 67 1 23 64
M  V30 68 1 23 65
M  V30 69 1 24 66
M  V30 70 1 24 67
M  V30 71 1 26 68
M  V30 72 1 28 69
M  V30 73 1 29 70
M  V30 74 1 30 71
M  V30 75 1 35 72
M  V30 76 1 35 73
M  V30 END BOND
M  V30 END CTAB
M  END
>  <Dataset>  (778) 
ChEMBL_Kinases

>  <Ligand_Instance>  (778) 
nan

>  <PDB_ID>  (778) 
nan

>  <Standardized_SMILES>  (778) 
CC1(C)CC[C@@H]2CC(=O)O[C@@H](CO)CC(=O)O[C@@H]3C[C@@H](CCCCc4cc(O)ccc4Br)O[C@@]1(C3)O2

>  <Name>  (778) 
nan

>  <Pocket>  (778) 
nan

>  <ATP_Site>  (778) 
nan

>  <Peripheral>  (778) 
nan

>  <Num_H_Atoms_ProtBoundConf>  (778) 
nan

>  <Num_Resolved_Atoms>  (778) 
nan

>  <Num_Not_Resolved_Atoms>  (778) 
nan

$$$$
CHEMBL2381161
     RDKit          3D

  0  0  0  0  0  0  0  0  0  0999 V3000
M  V30 BEGIN CTAB
M  V30 COUNTS 80 83 0 0 0
M  V30 BEGIN ATOM
M  V30 1 C -5.587387 0.463934 -5.584568 0
M  V30 2 C -4.184330 0.702878 -5.174874 0
M  V30 3 O -4.018162 1.605984 -4.318530 0
M  V30 4 N -3.055210 0.005109 -5.666827 0
M  V30 5 C -1.691237 0.159327 -5.340635 0
M  V30 6 C -1.142840 1.043701 -4.450260 0
M  V30 7 C 0.197165 1.169997 -4.155014 0
M  V30 8 C 1.084710 0.316584 -4.825622 0
M  V30 9 C 2.521055 0.465900 -4.495378 0
M  V30 10 C 2.966669 -0.407200 -3.352711 0
M  V30 11 C 2.201097 -0.102655 -2.084365 0
M  V30 12 C 2.671150 -0.987173 -0.953960 0
M  V30 13 C 1.884774 -0.680142 0.332565 0 CFG=2
M  V30 14 C 2.407009 -1.580984 1.378254 0
M  V30 15 C 1.414149 -2.032320 2.388952 0 CFG=2
M  V30 16 C 0.135149 -2.368533 1.694796 0
M  V30 17 C -0.340373 -1.195950 0.916732 0 CFG=2
M  V30 18 O -0.699192 -0.204436 1.828479 0
M  V30 19 C -1.809149 -0.526111 2.590842 0 CFG=2
M  V30 20 C -3.055443 -0.708838 1.804927 0
M  V30 21 C -2.783668 -1.851091 0.803927 0
M  V30 22 C -1.561757 -1.453921 0.055520 0
M  V30 23 C -1.883683 -0.082395 -0.563148 0
M  V30 24 C -1.239451 -2.374481 -1.099716 0
M  V30 25 C -2.001060 0.683102 3.527931 0
M  V30 26 C -0.627759 1.023090 4.066206 0
M  V30 27 O 0.030131 1.748396 3.243528 0
M  V30 28 O -0.106748 0.606810 5.303851 0
M  V30 29 C 1.240577 1.031023 5.593064 0 CFG=1
M  V30 30 C 1.298615 1.817958 6.866824 0
M  V30 31 O 0.531545 2.956373 6.845644 0
M  V30 32 C 2.080503 -0.247317 5.776929 0
M  V30 33 C 2.012710 -1.123622 4.587483 0
M  V30 34 O 2.783413 -2.116367 4.811860 0
M  V30 35 O 1.320831 -1.056519 3.388720 0
M  V30 36 O 0.588750 -0.735567 0.019084 0
M  V30 37 C 0.560575 -0.571579 -5.716138 0
M  V30 38 C -0.788813 -0.658437 -5.976100 0
M  V30 39 O -1.156479 -1.628730 -6.921975 0
M  V30 40 H -5.651258 -0.246983 -6.445605 0
M  V30 41 H -6.170538 0.110249 -4.699062 0
M  V30 42 H -6.026294 1.460674 -5.853024 0
M  V30 43 H -3.353714 -0.706507 -6.364511 0
M  V30 44 H -1.792026 1.716832 -3.914793 0
M  V30 45 H 0.560325 1.882327 -3.449034 0
M  V30 46 H 2.707356 1.519907 -4.208440 0
M  V30 47 H 3.118364 0.297880 -5.411861 0
M  V30 48 H 4.029424 -0.127785 -3.153493 0
M  V30 49 H 2.927454 -1.473301 -3.562592 0
M  V30 50 H 1.118520 -0.086982 -2.198656 0
M  V30 51 H 2.522469 0.943899 -1.804003 0
M  V30 52 H 2.533563 -2.052650 -1.228357 0
M  V30 53 H 3.751863 -0.836870 -0.760080 0
M  V30 54 H 2.166848 0.375060 0.599691 0
M  V30 55 H 2.888304 -2.494407 0.928549 0
M  V30 56 H 3.258889 -1.086608 1.926674 0
M  V30 57 H 1.847648 -2.954355 2.870072 0
M  V30 58 H 0.404909 -3.171991 0.946606 0
M  V30 59 H -0.617809 -2.831288 2.337254 0
M  V30 60 H -1.686940 -1.375887 3.270855 0
M  V30 61 H -3.404032 0.173562 1.243567 0
M  V30 62 H -3.851382 -1.054865 2.499132 0
M  V30 63 H -2.739863 -2.824764 1.307721 0
M  V30 64 H -3.615192 -1.893845 0.083237 0
M  V30 65 H -2.961847 -0.077054 -0.832767 0
M  V30 66 H -1.235201 0.087158 -1.447222 0
M  V30 67 H -1.750200 0.721809 0.187061 0
M  V30 68 H -0.276660 -2.905161 -0.950512 0
M  V30 69 H -2.075183 -3.089956 -1.299645 0
M  V30 70 H -1.110391 -1.816424 -2.049931 0
M  V30 71 H -2.430970 1.550617 3.005342 0
M  V30 72 H -2.686691 0.411118 4.352896 0
M  V30 73 H 1.653801 1.635071 4.767449 0
M  V30 74 H 0.976697 1.211174 7.752244 0
M  V30 75 H 2.339418 2.124686 7.072484 0
M  V30 76 H 0.916480 3.695713 7.387480 0
M  V30 77 H 1.729618 -0.775807 6.681777 0
M  V30 78 H 3.153417 0.084495 5.896447 0
M  V30 79 H 1.267452 -1.210415 -6.212101 0
M  V30 80 H -0.718382 -2.561749 -6.866810 0
M  V30 END ATOM
M  V30 BEGIN BOND
M  V30 1 1 1 2
M  V30 2 2 2 3
M  V30 3 1 2 4
M  V30 4 1 4 5
M  V30 5 2 5 6
M  V30 6 1 6 7
M  V30 7 2 7 8
M  V30 8 1 8 9
M  V30 9 1 9 10
M  V30 10 1 10 11
M  V30 11 1 11 12
M  V30 12 1 12 13
M  V30 13 1 13 14
M  V30 14 1 14 15
M  V30 15 1 15 16
M  V30 16 1 16 17
M  V30 17 1 17 18
M  V30 18 1 18 19
M  V30 19 1 19 20
M  V30 20 1 20 21
M  V30 21 1 21 22
M  V30 22 1 22 23
M  V30 23 1 22 24
M  V30 24 1 19 25
M  V30 25 1 25 26
M  V30 26 2 26 27
M  V30 27 1 26 28
M  V30 28 1 28 29
M  V30 29 1 29 30
M  V30 30 1 30 31
M  V30 31 1 29 32
M  V30 32 1 32 33
M  V30 33 2 33 34
M  V30 34 1 33 35
M  V30 35 1 17 36 CFG=3
M  V30 36 1 8 37
M  V30 37 2 37 38
M  V30 38 1 38 39
M  V30 39 1 38 5
M  V30 40 1 36 13
M  V30 41 1 35 15
M  V30 42 1 22 17
M  V30 43 1 1 40
M  V30 44 1 1 41
M  V30 45 1 1 42
M  V30 46 1 4 43
M  V30 47 1 6 44
M  V30 48 1 7 45
M  V30 49 1 9 46
M  V30 50 1 9 47
M  V30 51 1 10 48
M  V30 52 1 10 49
M  V30 53 1 11 50
M  V30 54 1 11 51
M  V30 55 1 12 52
M  V30 56 1 12 53
M  V30 57 1 13 54 CFG=1
M  V30 58 1 14 55
M  V30 59 1 14 56
M  V30 60 1 15 57 CFG=1
M  V30 61 1 16 58
M  V30 62 1 16 59
M  V30 63 1 19 60 CFG=1
M  V30 64 1 20 61
M  V30 65 1 20 62
M  V30 66 1 21 63
M  V30 67 1 21 64
M  V30 68 1 23 65
M  V30 69 1 23 66
M  V30 70 1 23 67
M  V30 71 1 24 68
M  V30 72 1 24 69
M  V30 73 1 24 70
M  V30 74 1 25 71
M  V30 75 1 25 72
M  V30 76 1 29 73 CFG=3
M  V30 77 1 30 74
M  V30 78 1 30 75
M  V30 79 1 31 76
M  V30 80 1 32 77
M  V30 81 1 32 78
M  V30 82 1 37 79
M  V30 83 1 39 80
M  V30 END BOND
M  V30 END CTAB
M  END
>  <Dataset>  (779) 
ChEMBL_Kinases

>  <Ligand_Instance>  (779) 
nan

>  <PDB_ID>  (779) 
nan

>  <Standardized_SMILES>  (779) 
CC(=O)Nc1ccc(CCCC[C@@H]2C[C@@H]3C[C@@]4(O[C@H](CCC4(C)C)CC(=O)O[C@@H](CO)CC(=O)O3)O2)cc1O

>  <Name>  (779) 
nan

>  <Pocket>  (779) 
nan

>  <ATP_Site>  (779) 
nan

>  <Peripheral>  (779) 
nan

>  <Num_H_Atoms_ProtBoundConf>  (779) 
nan

>  <Num_Resolved_Atoms>  (779) 
nan

>  <Num_Not_Resolved_Atoms>  (779) 
nan

$$$$
CHEMBL2381160
     RDKit          3D

  0  0  0  0  0  0  0  0  0  0999 V3000
M  V30 BEGIN CTAB
M  V30 COUNTS 80 83 0 0 0
M  V30 BEGIN ATOM
M  V30 1 C 3.794923 0.317351 2.473487 0
M  V30 2 C 2.643003 1.192113 2.803080 0
M  V30 3 O 2.603819 1.337148 4.047157 0
M  V30 4 N 1.706332 1.798184 1.903686 0
M  V30 5 C 0.647012 2.632854 2.325432 0
M  V30 6 C 0.229687 2.896377 3.594079 0
M  V30 7 C -0.734712 3.808105 3.951235 0
M  V30 8 C -1.327506 4.515576 2.895870 0
M  V30 9 O -2.300866 5.429930 3.304933 0
M  V30 10 C -0.917005 4.261097 1.575193 0
M  V30 11 C 0.073589 3.316159 1.279905 0
M  V30 12 C 0.165762 3.238998 -0.209166 0
M  V30 13 C -1.108142 3.319913 -0.925292 0
M  V30 14 C -2.257500 2.478023 -0.831634 0
M  V30 15 C -2.545866 1.126656 -1.238118 0
M  V30 16 C -1.764656 -0.071899 -0.789367 0 CFG=2
M  V30 17 C -0.380655 -0.009142 -1.296600 0
M  V30 18 C 0.075609 -1.152926 -2.158278 0 CFG=2
M  V30 19 C -0.884440 -2.320018 -2.238703 0
M  V30 20 C -1.782855 -2.355550 -1.044024 0 CFG=2
M  V30 21 O -0.962089 -2.367246 0.081178 0
M  V30 22 C -0.712439 -3.645177 0.573647 0 CFG=2
M  V30 23 C -1.956620 -4.107481 1.282650 0
M  V30 24 C -3.162640 -3.754201 0.421995 0
M  V30 25 C -2.738934 -3.537483 -1.024281 0
M  V30 26 C -4.033033 -3.042072 -1.712039 0
M  V30 27 C -2.318055 -4.779672 -1.681313 0
M  V30 28 C 0.453380 -3.544116 1.546648 0
M  V30 29 C 1.545832 -2.729962 0.930851 0
M  V30 30 O 1.498678 -1.526663 1.258779 0
M  V30 31 O 2.548644 -3.093955 0.088860 0
M  V30 32 C 3.533325 -2.317972 -0.489965 0 CFG=1
M  V30 33 C 4.955561 -2.642329 -0.012079 0
M  V30 34 O 5.761383 -1.725866 -0.741624 0
M  V30 35 C 3.600917 -2.389827 -1.985883 0
M  V30 36 C 2.344596 -2.001594 -2.678338 0
M  V30 37 O 1.744797 -1.886884 -3.758711 0
M  V30 38 O 1.358070 -1.568344 -1.785897 0
M  V30 39 O -2.509657 -1.182292 -1.056840 0
M  V30 40 H 4.674305 0.650379 3.091929 0
M  V30 41 H 4.047093 0.363394 1.392920 0
M  V30 42 H 3.571780 -0.707966 2.840124 0
M  V30 43 H 1.945577 1.517041 0.940847 0
M  V30 44 H 0.677141 2.352349 4.405693 0
M  V30 45 H -0.999281 3.953172 4.988424 0
M  V30 46 H -3.117119 5.042707 3.768520 0
M  V30 47 H -1.511387 4.922560 0.957935 0
M  V30 48 H 0.774913 4.179109 -0.487063 0
M  V30 49 H 0.816884 2.408092 -0.469318 0
M  V30 50 H -1.408360 4.453480 -0.956870 0
M  V30 51 H -0.777473 3.269326 -2.060421 0
M  V30 52 H -3.114934 3.121396 -1.367849 0
M  V30 53 H -2.684582 2.514603 0.282155 0
M  V30 54 H -3.656425 0.924408 -0.960896 0
M  V30 55 H -2.648073 1.057817 -2.394310 0
M  V30 56 H -1.739276 -0.034591 0.366950 0
M  V30 57 H 0.321688 0.103398 -0.458899 0
M  V30 58 H -0.272814 0.958163 -1.893106 0
M  V30 59 H 0.119361 -0.730590 -3.192841 0
M  V30 60 H -0.241185 -3.228995 -2.292802 0
M  V30 61 H -1.477620 -2.278544 -3.181142 0
M  V30 62 H -0.406959 -4.372449 -0.203492 0
M  V30 63 H -1.923048 -5.218961 1.464106 0
M  V30 64 H -2.102941 -3.643158 2.260955 0
M  V30 65 H -3.931510 -4.528245 0.524302 0
M  V30 66 H -3.579547 -2.795570 0.791365 0
M  V30 67 H -4.770127 -3.882380 -1.562859 0
M  V30 68 H -3.870886 -2.961503 -2.808600 0
M  V30 69 H -4.388448 -2.117023 -1.241606 0
M  V30 70 H -1.444427 -4.691824 -2.318298 0
M  V30 71 H -3.143802 -5.116484 -2.393783 0
M  V30 72 H -2.246477 -5.660008 -0.989184 0
M  V30 73 H 0.834415 -4.557168 1.803135 0
M  V30 74 H 0.124816 -3.091260 2.486457 0
M  V30 75 H 3.381406 -1.264670 -0.197289 0
M  V30 76 H 5.077453 -2.347007 1.027181 0
M  V30 77 H 5.289190 -3.638997 -0.298536 0
M  V30 78 H 5.331237 -0.823472 -0.721882 0
M  V30 79 H 3.975992 -3.377997 -2.347371 0
M  V30 80 H 4.377611 -1.666894 -2.311280 0
M  V30 END ATOM
M  V30 BEGIN BOND
M  V30 1 1 1 2
M  V30 2 2 2 3
M  V30 3 1 2 4
M  V30 4 1 4 5
M  V30 5 2 5 6
M  V30 6 1 6 7
M  V30 7 2 7 8
M  V30 8 1 8 9
M  V30 9 1 8 10
M  V30 10 2 10 11
M  V30 11 1 11 12
M  V30 12 1 12 13
M  V30 13 1 13 14
M  V30 14 1 14 15
M  V30 15 1 15 16
M  V30 16 1 16 17
M  V30 17 1 17 18
M  V30 18 1 18 19
M  V30 19 1 19 20
M  V30 20 1 20 21
M  V30 21 1 21 22
M  V30 22 1 22 23
M  V30 23 1 23 24
M  V30 24 1 24 25
M  V30 25 1 25 26
M  V30 26 1 25 27
M  V30 27 1 22 28
M  V30 28 1 28 29
M  V30 29 2 29 30
M  V30 30 1 29 31
M  V30 31 1 31 32
M  V30 32 1 32 33
M  V30 33 1 33 34
M  V30 34 1 32 35
M  V30 35 1 35 36
M  V30 36 2 36 37
M  V30 37 1 36 38
M  V30 38 1 20 39 CFG=1
M  V30 39 1 11 5
M  V30 40 1 39 16
M  V30 41 1 38 18
M  V30 42 1 25 20
M  V30 43 1 1 40
M  V30 44 1 1 41
M  V30 45 1 1 42
M  V30 46 1 4 43
M  V30 47 1 6 44
M  V30 48 1 7 45
M  V30 49 1 9 46
M  V30 50 1 10 47
M  V30 51 1 12 48
M  V30 52 1 12 49
M  V30 53 1 13 50
M  V30 54 1 13 51
M  V30 55 1 14 52
M  V30 56 1 14 53
M  V30 57 1 15 54
M  V30 58 1 15 55
M  V30 59 1 16 56 CFG=1
M  V30 60 1 17 57
M  V30 61 1 17 58
M  V30 62 1 18 59 CFG=3
M  V30 63 1 19 60
M  V30 64 1 19 61
M  V30 65 1 22 62 CFG=3
M  V30 66 1 23 63
M  V30 67 1 23 64
M  V30 68 1 24 65
M  V30 69 1 24 66
M  V30 70 1 26 67
M  V30 71 1 26 68
M  V30 72 1 26 69
M  V30 73 1 27 70
M  V30 74 1 27 71
M  V30 75 1 27 72
M  V30 76 1 28 73
M  V30 77 1 28 74
M  V30 78 1 32 75 CFG=3
M  V30 79 1 33 76
M  V30 80 1 33 77
M  V30 81 1 34 78
M  V30 82 1 35 79
M  V30 83 1 35 80
M  V30 END BOND
M  V30 END CTAB
M  END
>  <Dataset>  (780) 
ChEMBL_Kinases

>  <Ligand_Instance>  (780) 
nan

>  <PDB_ID>  (780) 
nan

>  <Standardized_SMILES>  (780) 
CC(=O)Nc1ccc(O)cc1CCCC[C@@H]1C[C@@H]2C[C@@]3(O[C@H](CCC3(C)C)CC(=O)O[C@@H](CO)CC(=O)O2)O1

>  <Name>  (780) 
nan

>  <Pocket>  (780) 
nan

>  <ATP_Site>  (780) 
nan

>  <Peripheral>  (780) 
nan

>  <Num_H_Atoms_ProtBoundConf>  (780) 
nan

>  <Num_Resolved_Atoms>  (780) 
nan

>  <Num_Not_Resolved_Atoms>  (780) 
nan

$$$$
CHEMBL2381115
     RDKit          3D

  0  0  0  0  0  0  0  0  0  0999 V3000
M  V30 BEGIN CTAB
M  V30 COUNTS 50 54 0 0 0
M  V30 BEGIN ATOM
M  V30 1 O 2.560571 -0.790482 3.180151 0
M  V30 2 C 1.727388 -1.113851 2.295667 0
M  V30 3 N 2.315311 -1.237277 1.006912 0
M  V30 4 C 3.699773 -1.013388 0.771428 0
M  V30 5 C 4.719640 -1.941651 0.828434 0
M  V30 6 N 5.991564 -1.579680 0.578692 0
M  V30 7 C 6.248339 -0.276694 0.268609 0
M  V30 8 C 5.275250 0.697911 0.195404 0
M  V30 9 C 3.958057 0.305013 0.457894 0
M  V30 10 N 3.002388 1.360281 0.366541 0
M  V30 11 C 1.812996 1.556016 -0.472879 0
M  V30 12 C 0.607165 1.926319 0.323052 0
M  V30 13 N 0.917229 2.571207 1.583850 0
M  V30 14 C 2.124321 3.375310 1.485977 0
M  V30 15 C 3.299504 2.439761 1.307506 0
M  V30 16 C 0.316221 -1.330238 2.600460 0
M  V30 17 C -0.160308 -1.183568 3.893374 0
M  V30 18 S -1.949098 -1.570981 3.667307 0
M  V30 19 C -1.725037 -1.861281 1.860806 0
M  V30 20 N -2.782943 -2.240401 0.915367 0
M  V30 21 C -4.141504 -2.424611 1.340034 0
M  V30 22 C -4.816811 -2.792122 0.070597 0
M  V30 23 C -6.135661 -3.112836 -0.272686 0
M  V30 24 C -6.504265 -3.424487 -1.565549 0
M  V30 25 C -5.553794 -3.427635 -2.581322 0
M  V30 26 C -4.235612 -3.115831 -2.285266 0
M  V30 27 C -3.901027 -2.805079 -0.961344 0
M  V30 28 C -2.569878 -2.456229 -0.475198 0
M  V30 29 O -1.446066 -2.339509 -1.025952 0
M  V30 30 N -0.573941 -1.670444 1.689610 0
M  V30 31 H 1.672035 -1.509022 0.203836 0
M  V30 32 H 4.411579 -2.946692 1.082679 0
M  V30 33 H 7.318476 -0.123343 0.090384 0
M  V30 34 H 5.639483 1.687694 -0.063157 0
M  V30 35 H 1.623305 0.654183 -1.099236 0
M  V30 36 H 2.009757 2.386719 -1.194932 0
M  V30 37 H -0.080301 1.096845 0.561836 0
M  V30 38 H -0.039103 2.672057 -0.225863 0
M  V30 39 H 0.146461 3.206619 1.893171 0
M  V30 40 H 2.107351 4.064112 0.633826 0
M  V30 41 H 2.249273 3.904594 2.434617 0
M  V30 42 H 4.133346 3.056450 0.873960 0
M  V30 43 H 3.647464 2.055146 2.267182 0
M  V30 44 H 0.423018 -0.904259 4.795505 0
M  V30 45 H -4.581248 -1.569307 1.862288 0
M  V30 46 H -4.158758 -3.325322 2.019146 0
M  V30 47 H -6.911348 -3.119931 0.505715 0
M  V30 48 H -7.530671 -3.673313 -1.828547 0
M  V30 49 H -5.770085 -3.661597 -3.615459 0
M  V30 50 H -3.488283 -3.116612 -3.075161 0
M  V30 END ATOM
M  V30 BEGIN BOND
M  V30 1 2 1 2
M  V30 2 1 2 3
M  V30 3 1 3 4
M  V30 4 2 4 5
M  V30 5 1 5 6
M  V30 6 2 6 7
M  V30 7 1 7 8
M  V30 8 2 8 9
M  V30 9 1 9 10
M  V30 10 1 10 11
M  V30 11 1 11 12
M  V30 12 1 12 13
M  V30 13 1 13 14
M  V30 14 1 14 15
M  V30 15 1 2 16
M  V30 16 2 16 17
M  V30 17 1 17 18
M  V30 18 1 18 19
M  V30 19 1 19 20
M  V30 20 1 20 21
M  V30 21 1 21 22
M  V30 22 2 22 23
M  V30 23 1 23 24
M  V30 24 2 24 25
M  V30 25 1 25 26
M  V30 26 2 26 27
M  V30 27 1 27 28
M  V30 28 2 28 29
M  V30 29 2 19 30
M  V30 30 1 9 4
M  V30 31 1 15 10
M  V30 32 1 30 16
M  V30 33 1 28 20
M  V30 34 1 27 22
M  V30 35 1 3 31
M  V30 36 1 5 32
M  V30 37 1 7 33
M  V30 38 1 8 34
M  V30 39 1 11 35
M  V30 40 1 11 36
M  V30 41 1 12 37
M  V30 42 1 12 38
M  V30 43 1 13 39
M  V30 44 1 14 40
M  V30 45 1 14 41
M  V30 46 1 15 42
M  V30 47 1 15 43
M  V30 48 1 17 44
M  V30 49 1 21 45
M  V30 50 1 21 46
M  V30 51 1 23 47
M  V30 52 1 24 48
M  V30 53 1 25 49
M  V30 54 1 26 50
M  V30 END BOND
M  V30 END CTAB
M  END
>  <Dataset>  (781) 
ChEMBL_Kinases

>  <Ligand_Instance>  (781) 
nan

>  <PDB_ID>  (781) 
nan

>  <Standardized_SMILES>  (781) 
O=C(Nc1cnccc1N1CCNCC1)c1csc(N2Cc3ccccc3C2=O)n1

>  <Name>  (781) 
nan

>  <Pocket>  (781) 
nan

>  <ATP_Site>  (781) 
nan

>  <Peripheral>  (781) 
nan

>  <Num_H_Atoms_ProtBoundConf>  (781) 
nan

>  <Num_Resolved_Atoms>  (781) 
nan

>  <Num_Not_Resolved_Atoms>  (781) 
nan

$$$$
CHEMBL2381114
     RDKit          3D

  0  0  0  0  0  0  0  0  0  0999 V3000
M  V30 BEGIN CTAB
M  V30 COUNTS 51 55 0 0 0
M  V30 BEGIN ATOM
M  V30 1 O 1.974201 -0.139387 2.210327 0
M  V30 2 C 1.138403 -0.488516 1.348416 0
M  V30 3 N 1.567265 -0.398412 0.013913 0
M  V30 4 C 2.718759 -0.007030 -0.698510 0
M  V30 5 C 3.021083 -0.610252 -1.894659 0
M  V30 6 N 4.092447 -0.280121 -2.620871 0
M  V30 7 C 4.948835 0.670281 -2.223778 0
M  V30 8 C 4.677151 1.295478 -1.032650 0
M  V30 9 C 3.555701 0.954430 -0.267559 0
M  V30 10 N 3.516217 1.788899 0.877742 0
M  V30 11 C 2.477281 2.804207 1.107614 0
M  V30 12 C 2.551259 3.436894 2.438103 0
M  V30 13 N 3.257806 2.722715 3.440465 0
M  V30 14 C 4.565920 2.289868 3.062653 0
M  V30 15 C 4.646278 1.529122 1.788397 0
M  V30 16 C -0.193210 -0.956866 1.738113 0
M  V30 17 C -0.424723 -1.001088 3.158415 0
M  V30 18 S -2.165228 -1.649809 3.161817 0
M  V30 19 C -2.235659 -1.732630 1.257103 0
M  V30 20 N -3.308052 -2.169549 0.426563 0
M  V30 21 C -4.686003 -1.704351 0.205469 0
M  V30 22 C -5.392046 -3.021542 0.059783 0
M  V30 23 C -6.695815 -3.464531 0.230640 0
M  V30 24 C -7.056170 -4.770859 0.012305 0
M  V30 25 C -6.127116 -5.718206 -0.392636 0
M  V30 26 C -4.823229 -5.308716 -0.571043 0
M  V30 27 C -4.477986 -3.971148 -0.342583 0
M  V30 28 C -3.149664 -3.319182 -0.471573 0
M  V30 29 N -1.131395 -1.331643 0.889160 0
M  V30 30 H 0.790388 -0.704714 -0.646772 0
M  V30 31 H 2.355154 -1.393314 -2.269332 0
M  V30 32 H 5.786053 0.869235 -2.874799 0
M  V30 33 H 5.442669 2.055626 -0.803693 0
M  V30 34 H 2.571700 3.555775 0.289676 0
M  V30 35 H 1.509234 2.305873 0.930063 0
M  V30 36 H 3.061283 4.436345 2.298105 0
M  V30 37 H 1.534153 3.688654 2.829208 0
M  V30 38 H 2.724935 2.109930 4.060857 0
M  V30 39 H 4.914431 1.597878 3.876995 0
M  V30 40 H 5.268172 3.155925 3.092126 0
M  V30 41 H 5.574923 1.875849 1.264052 0
M  V30 42 H 4.719807 0.440334 1.909121 0
M  V30 43 H 0.087554 -0.785672 3.982569 0
M  V30 44 H -5.078541 -1.142296 1.078031 0
M  V30 45 H -4.664450 -1.129234 -0.737768 0
M  V30 46 H -7.448813 -2.755313 0.545289 0
M  V30 47 H -8.062850 -5.150154 0.135483 0
M  V30 48 H -6.303901 -6.767144 -0.590509 0
M  V30 49 H -4.030691 -6.004026 -0.890110 0
M  V30 50 H -3.040967 -2.873692 -1.488551 0
M  V30 51 H -2.304851 -3.960626 -0.176512 0
M  V30 END ATOM
M  V30 BEGIN BOND
M  V30 1 2 1 2
M  V30 2 1 2 3
M  V30 3 1 3 4
M  V30 4 2 4 5
M  V30 5 1 5 6
M  V30 6 2 6 7
M  V30 7 1 7 8
M  V30 8 2 8 9
M  V30 9 1 9 10
M  V30 10 1 10 11
M  V30 11 1 11 12
M  V30 12 1 12 13
M  V30 13 1 13 14
M  V30 14 1 14 15
M  V30 15 1 2 16
M  V30 16 2 16 17
M  V30 17 1 17 18
M  V30 18 1 18 19
M  V30 19 1 19 20
M  V30 20 1 20 21
M  V30 21 1 21 22
M  V30 22 2 22 23
M  V30 23 1 23 24
M  V30 24 2 24 25
M  V30 25 1 25 26
M  V30 26 2 26 27
M  V30 27 1 27 28
M  V30 28 2 19 29
M  V30 29 1 9 4
M  V30 30 1 15 10
M  V30 31 1 29 16
M  V30 32 1 28 20
M  V30 33 1 27 22
M  V30 34 1 3 30
M  V30 35 1 5 31
M  V30 36 1 7 32
M  V30 37 1 8 33
M  V30 38 1 11 34
M  V30 39 1 11 35
M  V30 40 1 12 36
M  V30 41 1 12 37
M  V30 42 1 13 38
M  V30 43 1 14 39
M  V30 44 1 14 40
M  V30 45 1 15 41
M  V30 46 1 15 42
M  V30 47 1 17 43
M  V30 48 1 21 44
M  V30 49 1 21 45
M  V30 50 1 23 46
M  V30 51 1 24 47
M  V30 52 1 25 48
M  V30 53 1 26 49
M  V30 54 1 28 50
M  V30 55 1 28 51
M  V30 END BOND
M  V30 END CTAB
M  END
>  <Dataset>  (782) 
ChEMBL_Kinases

>  <Ligand_Instance>  (782) 
nan

>  <PDB_ID>  (782) 
nan

>  <Standardized_SMILES>  (782) 
O=C(Nc1cnccc1N1CCNCC1)c1csc(N2Cc3ccccc3C2)n1

>  <Name>  (782) 
nan

>  <Pocket>  (782) 
nan

>  <ATP_Site>  (782) 
nan

>  <Peripheral>  (782) 
nan

>  <Num_H_Atoms_ProtBoundConf>  (782) 
nan

>  <Num_Resolved_Atoms>  (782) 
nan

>  <Num_Not_Resolved_Atoms>  (782) 
nan

$$$$
CHEMBL2381113
     RDKit          3D

  0  0  0  0  0  0  0  0  0  0999 V3000
M  V30 BEGIN CTAB
M  V30 COUNTS 56 60 0 0 0
M  V30 BEGIN ATOM
M  V30 1 O 2.055033 -0.157445 1.760834 0
M  V30 2 C 1.007875 0.287126 2.333359 0
M  V30 3 N 1.347924 1.204796 3.365082 0
M  V30 4 C 2.788245 1.316687 3.407371 0
M  V30 5 C 3.588725 0.503888 4.188595 0
M  V30 6 N 4.913116 0.726024 4.124472 0
M  V30 7 C 5.468946 1.678280 3.353867 0
M  V30 8 C 4.681974 2.498906 2.567123 0
M  V30 9 C 3.304036 2.323546 2.585493 0
M  V30 10 N 2.482959 3.157086 1.786760 0
M  V30 11 C 1.448537 4.029874 2.362697 0
M  V30 12 C 1.787390 5.482311 2.113571 0
M  V30 13 N 2.233141 5.702287 0.750025 0
M  V30 14 C 1.850906 4.588605 -0.095756 0
M  V30 15 C 2.508895 3.296948 0.342731 0
M  V30 16 C -0.402786 -0.049703 2.032092 0
M  V30 17 C -1.471150 0.514015 2.739815 0
M  V30 18 S -2.866288 -0.375649 1.803746 0
M  V30 19 C -1.734775 -1.249898 0.737085 0
M  V30 20 C -2.268130 -2.201309 -0.319628 0
M  V30 21 C -3.624372 -2.387704 -0.455360 0
M  V30 22 C -4.017213 -3.281663 -1.452578 0
M  V30 23 C -3.065907 -3.914588 -2.228021 0
M  V30 24 O -3.384417 -4.814101 -3.235601 0
M  V30 25 C -3.522999 -6.181573 -3.042745 0
M  V30 26 C -3.834843 -6.945185 -4.159334 0
M  V30 27 C -3.996867 -8.306665 -4.092898 0
M  V30 28 C -3.853140 -8.993102 -2.882768 0
M  V30 29 C -3.538762 -8.215045 -1.762787 0
M  V30 30 C -3.381684 -6.859693 -1.850468 0
M  V30 31 C -1.704300 -3.706216 -2.067522 0
M  V30 32 C -1.314137 -2.813853 -1.072124 0
M  V30 33 N -0.627830 -0.915521 1.054749 0
M  V30 34 H 0.587032 1.658451 3.930059 0
M  V30 35 H 3.121865 -0.256802 4.802676 0
M  V30 36 H 6.545175 1.748003 3.398345 0
M  V30 37 H 5.159823 3.264865 1.950232 0
M  V30 38 H 0.503063 3.810846 1.858858 0
M  V30 39 H 1.399155 3.859457 3.435969 0
M  V30 40 H 0.878910 6.076223 2.270799 0
M  V30 41 H 2.630948 5.738622 2.776323 0
M  V30 42 H 3.276765 5.787052 0.668163 0
M  V30 43 H 2.238489 4.796292 -1.122618 0
M  V30 44 H 0.753353 4.466940 -0.144706 0
M  V30 45 H 3.539077 3.268359 -0.064983 0
M  V30 46 H 1.864303 2.488504 -0.068925 0
M  V30 47 H -1.407460 1.178883 3.496785 0
M  V30 48 H -4.323405 -1.876242 0.168187 0
M  V30 49 H -5.066651 -3.477779 -1.617020 0
M  V30 50 H -3.962532 -6.480666 -5.137080 0
M  V30 51 H -4.244959 -8.925460 -4.972590 0
M  V30 52 H -3.975871 -10.059791 -2.809901 0
M  V30 53 H -3.427135 -8.745471 -0.824062 0
M  V30 54 H -3.136171 -6.247047 -0.977106 0
M  V30 55 H -0.947494 -4.190368 -2.662628 0
M  V30 56 H -0.240875 -2.630196 -0.923810 0
M  V30 END ATOM
M  V30 BEGIN BOND
M  V30 1 2 1 2
M  V30 2 1 2 3
M  V30 3 1 3 4
M  V30 4 2 4 5
M  V30 5 1 5 6
M  V30 6 2 6 7
M  V30 7 1 7 8
M  V30 8 2 8 9
M  V30 9 1 9 10
M  V30 10 1 10 11
M  V30 11 1 11 12
M  V30 12 1 12 13
M  V30 13 1 13 14
M  V30 14 1 14 15
M  V30 15 1 2 16
M  V30 16 2 16 17
M  V30 17 1 17 18
M  V30 18 1 18 19
M  V30 19 1 19 20
M  V30 20 2 20 21
M  V30 21 1 21 22
M  V30 22 2 22 23
M  V30 23 1 23 24
M  V30 24 1 24 25
M  V30 25 2 25 26
M  V30 26 1 26 27
M  V30 27 2 27 28
M  V30 28 1 28 29
M  V30 29 2 29 30
M  V30 30 1 23 31
M  V30 31 2 31 32
M  V30 32 2 19 33
M  V30 33 1 9 4
M  V30 34 1 15 10
M  V30 35 1 33 16
M  V30 36 1 32 20
M  V30 37 1 30 25
M  V30 38 1 3 34
M  V30 39 1 5 35
M  V30 40 1 7 36
M  V30 41 1 8 37
M  V30 42 1 11 38
M  V30 43 1 11 39
M  V30 44 1 12 40
M  V30 45 1 12 41
M  V30 46 1 13 42
M  V30 47 1 14 43
M  V30 48 1 14 44
M  V30 49 1 15 45
M  V30 50 1 15 46
M  V30 51 1 17 47
M  V30 52 1 21 48
M  V30 53 1 22 49
M  V30 54 1 26 50
M  V30 55 1 27 51
M  V30 56 1 28 52
M  V30 57 1 29 53
M  V30 58 1 30 54
M  V30 59 1 31 55
M  V30 60 1 32 56
M  V30 END BOND
M  V30 END CTAB
M  END
>  <Dataset>  (783) 
ChEMBL_Kinases

>  <Ligand_Instance>  (783) 
nan

>  <PDB_ID>  (783) 
nan

>  <Standardized_SMILES>  (783) 
O=C(Nc1cnccc1N1CCNCC1)c1csc(-c2ccc(Oc3ccccc3)cc2)n1

>  <Name>  (783) 
nan

>  <Pocket>  (783) 
nan

>  <ATP_Site>  (783) 
nan

>  <Peripheral>  (783) 
nan

>  <Num_H_Atoms_ProtBoundConf>  (783) 
nan

>  <Num_Resolved_Atoms>  (783) 
nan

>  <Num_Not_Resolved_Atoms>  (783) 
nan

$$$$
CHEMBL2381112
     RDKit          3D

  0  0  0  0  0  0  0  0  0  0999 V3000
M  V30 BEGIN CTAB
M  V30 COUNTS 48 52 0 0 0
M  V30 BEGIN ATOM
M  V30 1 O 2.771016 -1.336268 2.662482 0
M  V30 2 C 1.776123 -1.467712 1.938129 0
M  V30 3 N 2.096612 -1.629516 0.582440 0
M  V30 4 C 3.391609 -1.651661 0.021185 0
M  V30 5 C 4.221576 -2.734618 -0.183240 0
M  V30 6 N 5.438584 -2.582956 -0.735758 0
M  V30 7 C 5.891771 -1.380016 -1.108080 0
M  V30 8 C 5.104769 -0.257566 -0.928120 0
M  V30 9 C 3.837670 -0.400451 -0.355044 0
M  V30 10 N 3.171586 0.864288 -0.248473 0
M  V30 11 C 1.913525 1.275323 -0.841046 0
M  V30 12 C 1.027020 1.934527 0.180054 0
M  V30 13 N 1.563588 1.801665 1.543152 0
M  V30 14 C 2.832410 2.509670 1.562849 0
M  V30 15 C 3.755940 1.941819 0.535922 0
M  V30 16 C 0.406827 -1.454072 2.455513 0
M  V30 17 C 0.237392 -1.273962 3.908140 0
M  V30 18 S -1.604513 -1.334639 3.989116 0
M  V30 19 C -1.817703 -1.568310 2.234579 0
M  V30 20 C -3.103620 -1.689181 1.680087 0
M  V30 21 C -4.365194 -1.677691 2.148327 0
M  V30 22 C -5.422605 -1.828370 1.293280 0
M  V30 23 C -6.768161 -1.841233 1.597252 0
M  V30 24 C -7.672591 -2.004168 0.600931 0
M  V30 25 C -7.396600 -2.164575 -0.730219 0
M  V30 26 C -6.065296 -2.158017 -1.078971 0
M  V30 27 C -5.135335 -1.991040 -0.058850 0
M  V30 28 S -3.292711 -1.928477 -0.125300 0
M  V30 29 N -0.615735 -1.597289 1.648023 0
M  V30 30 H 1.292099 -1.748040 -0.098526 0
M  V30 31 H 3.784651 -3.679944 0.144561 0
M  V30 32 H 6.886581 -1.326332 -1.549507 0
M  V30 33 H 5.553304 0.670194 -1.258430 0
M  V30 34 H 2.150322 1.958163 -1.689506 0
M  V30 35 H 1.424076 0.366909 -1.259399 0
M  V30 36 H 0.980419 3.049696 0.026156 0
M  V30 37 H 0.008770 1.501865 0.224653 0
M  V30 38 H 0.900223 2.367764 2.143247 0
M  V30 39 H 3.221532 2.417311 2.612811 0
M  V30 40 H 2.654556 3.606777 1.425407 0
M  V30 41 H 4.126292 2.715086 -0.184308 0
M  V30 42 H 4.647549 1.554177 1.053718 0
M  V30 43 H 1.001829 -1.150873 4.636500 0
M  V30 44 H -4.439999 -1.543198 3.217374 0
M  V30 45 H -7.133892 -1.725437 2.608161 0
M  V30 46 H -8.745480 -2.012470 0.858497 0
M  V30 47 H -8.103075 -2.295352 -1.535723 0
M  V30 48 H -5.643682 -2.269012 -2.069326 0
M  V30 END ATOM
M  V30 BEGIN BOND
M  V30 1 2 1 2
M  V30 2 1 2 3
M  V30 3 1 3 4
M  V30 4 2 4 5
M  V30 5 1 5 6
M  V30 6 2 6 7
M  V30 7 1 7 8
M  V30 8 2 8 9
M  V30 9 1 9 10
M  V30 10 1 10 11
M  V30 11 1 11 12
M  V30 12 1 12 13
M  V30 13 1 13 14
M  V30 14 1 14 15
M  V30 15 1 2 16
M  V30 16 2 16 17
M  V30 17 1 17 18
M  V30 18 1 18 19
M  V30 19 1 19 20
M  V30 20 2 20 21
M  V30 21 1 21 22
M  V30 22 2 22 23
M  V30 23 1 23 24
M  V30 24 2 24 25
M  V30 25 1 25 26
M  V30 26 2 26 27
M  V30 27 1 27 28
M  V30 28 2 19 29
M  V30 29 1 9 4
M  V30 30 1 15 10
M  V30 31 1 29 16
M  V30 32 1 28 20
M  V30 33 1 27 22
M  V30 34 1 3 30
M  V30 35 1 5 31
M  V30 36 1 7 32
M  V30 37 1 8 33
M  V30 38 1 11 34
M  V30 39 1 11 35
M  V30 40 1 12 36
M  V30 41 1 12 37
M  V30 42 1 13 38
M  V30 43 1 14 39
M  V30 44 1 14 40
M  V30 45 1 15 41
M  V30 46 1 15 42
M  V30 47 1 17 43
M  V30 48 1 21 44
M  V30 49 1 23 45
M  V30 50 1 24 46
M  V30 51 1 25 47
M  V30 52 1 26 48
M  V30 END BOND
M  V30 END CTAB
M  END
>  <Dataset>  (784) 
ChEMBL_Kinases

>  <Ligand_Instance>  (784) 
nan

>  <PDB_ID>  (784) 
nan

>  <Standardized_SMILES>  (784) 
O=C(Nc1cnccc1N1CCNCC1)c1csc(-c2cc3ccccc3s2)n1

>  <Name>  (784) 
nan

>  <Pocket>  (784) 
nan

>  <ATP_Site>  (784) 
nan

>  <Peripheral>  (784) 
nan

>  <Num_H_Atoms_ProtBoundConf>  (784) 
nan

>  <Num_Resolved_Atoms>  (784) 
nan

>  <Num_Not_Resolved_Atoms>  (784) 
nan

$$$$
CHEMBL2381111
     RDKit          3D

  0  0  0  0  0  0  0  0  0  0999 V3000
M  V30 BEGIN CTAB
M  V30 COUNTS 48 52 0 0 0
M  V30 BEGIN ATOM
M  V30 1 O 2.668712 -1.807613 2.102101 0
M  V30 2 C 1.625636 -1.771498 1.433548 0
M  V30 3 N 1.835839 -1.409443 0.073333 0
M  V30 4 C 3.109538 -1.118269 -0.467439 0
M  V30 5 C 3.958235 -2.055292 -1.041663 0
M  V30 6 N 5.159786 -1.702895 -1.537125 0
M  V30 7 C 5.578732 -0.412479 -1.489092 0
M  V30 8 C 4.791061 0.583096 -0.932345 0
M  V30 9 C 3.558219 0.203675 -0.427356 0
M  V30 10 N 2.712956 1.214633 0.159227 0
M  V30 11 C 1.373964 1.730609 -0.121417 0
M  V30 12 C 0.752549 2.051990 1.226737 0
M  V30 13 N 1.388139 3.277208 1.718596 0
M  V30 14 C 2.802991 3.289541 1.405350 0
M  V30 15 C 3.353450 1.874343 1.303852 0
M  V30 16 C 0.314028 -2.076324 2.010539 0
M  V30 17 C 0.245524 -2.421889 3.375010 0
M  V30 18 S -1.628300 -2.682952 3.493234 0
M  V30 19 C -1.888675 -2.287222 1.760985 0
M  V30 20 C -3.244680 -2.273709 1.027140 0
M  V30 21 C -3.227427 -1.945112 -0.294294 0
M  V30 22 C -4.472448 -1.954212 -0.880999 0
M  V30 23 C -5.571925 -2.282202 -0.104030 0
M  V30 24 S -7.313742 -2.375468 -0.598815 0
M  V30 25 C -7.889396 -2.865434 1.096142 0
M  V30 26 C -6.753927 -2.899897 1.804282 0
M  V30 27 C -5.544180 -2.609373 1.234168 0
M  V30 28 C -4.298336 -2.602016 1.828339 0
M  V30 29 N -0.806339 -2.043942 1.318323 0
M  V30 30 H 0.987084 -1.356183 -0.567273 0
M  V30 31 H 3.552674 -3.055792 -1.041133 0
M  V30 32 H 6.551597 -0.196909 -1.903449 0
M  V30 33 H 5.149658 1.601717 -0.907479 0
M  V30 34 H 0.757829 1.031697 -0.713336 0
M  V30 35 H 1.527301 2.660110 -0.715164 0
M  V30 36 H -0.332332 2.169625 1.181936 0
M  V30 37 H 1.068836 1.244322 1.934741 0
M  V30 38 H 0.940042 4.119211 1.284839 0
M  V30 39 H 3.018173 3.856355 0.469368 0
M  V30 40 H 3.319690 3.782972 2.254254 0
M  V30 41 H 4.450587 1.959774 1.176873 0
M  V30 42 H 3.099849 1.363202 2.245664 0
M  V30 43 H 1.005096 -2.504672 4.090538 0
M  V30 44 H -2.325645 -1.706126 -0.809996 0
M  V30 45 H -4.599687 -1.712005 -1.925097 0
M  V30 46 H -8.922168 -3.030628 1.247590 0
M  V30 47 H -6.919813 -3.176131 2.839317 0
M  V30 48 H -4.174727 -2.845603 2.876202 0
M  V30 END ATOM
M  V30 BEGIN BOND
M  V30 1 2 1 2
M  V30 2 1 2 3
M  V30 3 1 3 4
M  V30 4 2 4 5
M  V30 5 1 5 6
M  V30 6 2 6 7
M  V30 7 1 7 8
M  V30 8 2 8 9
M  V30 9 1 9 10
M  V30 10 1 10 11
M  V30 11 1 11 12
M  V30 12 1 12 13
M  V30 13 1 13 14
M  V30 14 1 14 15
M  V30 15 1 2 16
M  V30 16 2 16 17
M  V30 17 1 17 18
M  V30 18 1 18 19
M  V30 19 1 19 20
M  V30 20 2 20 21
M  V30 21 1 21 22
M  V30 22 2 22 23
M  V30 23 1 23 24
M  V30 24 1 24 25
M  V30 25 2 25 26
M  V30 26 1 26 27
M  V30 27 2 27 28
M  V30 28 2 19 29
M  V30 29 1 9 4
M  V30 30 1 15 10
M  V30 31 1 29 16
M  V30 32 1 28 20
M  V30 33 1 27 23
M  V30 34 1 3 30
M  V30 35 1 5 31
M  V30 36 1 7 32
M  V30 37 1 8 33
M  V30 38 1 11 34
M  V30 39 1 11 35
M  V30 40 1 12 36
M  V30 41 1 12 37
M  V30 42 1 13 38
M  V30 43 1 14 39
M  V30 44 1 14 40
M  V30 45 1 15 41
M  V30 46 1 15 42
M  V30 47 1 17 43
M  V30 48 1 21 44
M  V30 49 1 22 45
M  V30 50 1 25 46
M  V30 51 1 26 47
M  V30 52 1 28 48
M  V30 END BOND
M  V30 END CTAB
M  END
>  <Dataset>  (785) 
ChEMBL_Kinases

>  <Ligand_Instance>  (785) 
nan

>  <PDB_ID>  (785) 
nan

>  <Standardized_SMILES>  (785) 
O=C(Nc1cnccc1N1CCNCC1)c1csc(-c2ccc3sccc3c2)n1

>  <Name>  (785) 
nan

>  <Pocket>  (785) 
nan

>  <ATP_Site>  (785) 
nan

>  <Peripheral>  (785) 
nan

>  <Num_H_Atoms_ProtBoundConf>  (785) 
nan

>  <Num_Resolved_Atoms>  (785) 
nan

>  <Num_Not_Resolved_Atoms>  (785) 
nan

$$$$
CHEMBL2381110
     RDKit          3D

  0  0  0  0  0  0  0  0  0  0999 V3000
M  V30 BEGIN CTAB
M  V30 COUNTS 49 53 0 0 0
M  V30 BEGIN ATOM
M  V30 1 O 2.709817 -1.188915 2.577151 0
M  V30 2 C 1.644882 -1.375813 1.932097 0
M  V30 3 N 1.925058 -1.632996 0.562508 0
M  V30 4 C 3.269179 -1.651710 0.097408 0
M  V30 5 C 4.115172 -2.740674 0.039908 0
M  V30 6 N 5.376535 -2.585870 -0.434218 0
M  V30 7 C 5.832444 -1.390759 -0.854370 0
M  V30 8 C 5.004215 -0.278192 -0.808223 0
M  V30 9 C 3.704452 -0.411625 -0.325361 0
M  V30 10 N 2.959294 0.805750 -0.331158 0
M  V30 11 C 1.716095 1.137336 -1.018859 0
M  V30 12 C 0.762836 1.829693 -0.108119 0
M  V30 13 N 1.141706 1.950367 1.248456 0
M  V30 14 C 2.489543 2.246676 1.550910 0
M  V30 15 C 3.467130 1.935687 0.454606 0
M  V30 16 C 0.322090 -1.322904 2.563175 0
M  V30 17 C 0.232499 -1.051476 3.952467 0
M  V30 18 S -1.603301 -1.117295 4.128187 0
M  V30 19 C -1.915020 -1.466711 2.457565 0
M  V30 20 C -3.255246 -1.654028 1.885719 0
M  V30 21 C -4.310086 -1.543302 2.733691 0
M  V30 22 C -5.580499 -1.722188 2.184909 0
M  V30 23 C -5.732957 -2.000987 0.825106 0
M  V30 24 N -6.814347 -2.216742 0.038733 0
M  V30 25 C -6.424977 -2.448465 -1.233950 0
M  V30 26 C -5.033957 -2.379894 -1.273148 0
M  V30 27 C -4.617343 -2.100404 0.017230 0
M  V30 28 C -3.368397 -1.924976 0.554548 0
M  V30 29 N -0.720913 -1.537792 1.770674 0
M  V30 30 H 1.071884 -1.802739 -0.054802 0
M  V30 31 H 3.697738 -3.672190 0.389058 0
M  V30 32 H 6.860439 -1.381352 -1.215274 0
M  V30 33 H 5.461428 0.652790 -1.171149 0
M  V30 34 H 2.009007 1.850913 -1.839805 0
M  V30 35 H 1.286870 0.248638 -1.523366 0
M  V30 36 H 0.447217 2.837393 -0.506176 0
M  V30 37 H -0.199153 1.239289 -0.146856 0
M  V30 38 H 0.564108 1.504358 1.961060 0
M  V30 39 H 2.792239 1.651049 2.440179 0
M  V30 40 H 2.603256 3.305962 1.860055 0
M  V30 41 H 3.486530 2.805530 -0.239396 0
M  V30 42 H 4.488276 1.712494 0.824473 0
M  V30 43 H 1.070797 -0.868100 4.643043 0
M  V30 44 H -4.264451 -1.333509 3.776007 0
M  V30 45 H -6.442201 -1.646125 2.805294 0
M  V30 46 H -7.826311 -2.209802 0.352979 0
M  V30 47 H -7.000460 -2.656233 -2.119809 0
M  V30 48 H -4.343472 -2.507466 -2.105224 0
M  V30 49 H -2.466747 -2.000142 -0.072338 0
M  V30 END ATOM
M  V30 BEGIN BOND
M  V30 1 2 1 2
M  V30 2 1 2 3
M  V30 3 1 3 4
M  V30 4 2 4 5
M  V30 5 1 5 6
M  V30 6 2 6 7
M  V30 7 1 7 8
M  V30 8 2 8 9
M  V30 9 1 9 10
M  V30 10 1 10 11
M  V30 11 1 11 12
M  V30 12 1 12 13
M  V30 13 1 13 14
M  V30 14 1 14 15
M  V30 15 1 2 16
M  V30 16 2 16 17
M  V30 17 1 17 18
M  V30 18 1 18 19
M  V30 19 1 19 20
M  V30 20 2 20 21
M  V30 21 1 21 22
M  V30 22 2 22 23
M  V30 23 1 23 24
M  V30 24 1 24 25
M  V30 25 2 25 26
M  V30 26 1 26 27
M  V30 27 2 27 28
M  V30 28 2 19 29
M  V30 29 1 9 4
M  V30 30 1 15 10
M  V30 31 1 29 16
M  V30 32 1 28 20
M  V30 33 1 27 23
M  V30 34 1 3 30
M  V30 35 1 5 31
M  V30 36 1 7 32
M  V30 37 1 8 33
M  V30 38 1 11 34
M  V30 39 1 11 35
M  V30 40 1 12 36
M  V30 41 1 12 37
M  V30 42 1 13 38
M  V30 43 1 14 39
M  V30 44 1 14 40
M  V30 45 1 15 41
M  V30 46 1 15 42
M  V30 47 1 17 43
M  V30 48 1 21 44
M  V30 49 1 22 45
M  V30 50 1 24 46
M  V30 51 1 25 47
M  V30 52 1 26 48
M  V30 53 1 28 49
M  V30 END BOND
M  V30 END CTAB
M  END
>  <Dataset>  (786) 
ChEMBL_Kinases

>  <Ligand_Instance>  (786) 
nan

>  <PDB_ID>  (786) 
nan

>  <Standardized_SMILES>  (786) 
O=C(Nc1cnccc1N1CCNCC1)c1csc(-c2ccc3[nH]ccc3c2)n1

>  <Name>  (786) 
nan

>  <Pocket>  (786) 
nan

>  <ATP_Site>  (786) 
nan

>  <Peripheral>  (786) 
nan

>  <Num_H_Atoms_ProtBoundConf>  (786) 
nan

>  <Num_Resolved_Atoms>  (786) 
nan

>  <Num_Not_Resolved_Atoms>  (786) 
nan

$$$$
CHEMBL2381109
     RDKit          3D

  0  0  0  0  0  0  0  0  0  0999 V3000
M  V30 BEGIN CTAB
M  V30 COUNTS 48 52 0 0 0
M  V30 BEGIN ATOM
M  V30 1 O 2.562008 -1.516792 2.446198 0
M  V30 2 C 1.495199 -1.569762 1.787771 0
M  V30 3 N 1.754078 -1.667828 0.393087 0
M  V30 4 C 3.058057 -1.697349 -0.123017 0
M  V30 5 C 3.843928 -2.819683 -0.352750 0
M  V30 6 N 5.085896 -2.694331 -0.855639 0
M  V30 7 C 5.594773 -1.477181 -1.147526 0
M  V30 8 C 4.864376 -0.335885 -0.941235 0
M  V30 9 C 3.593093 -0.462527 -0.426598 0
M  V30 10 N 2.864739 0.764768 -0.227446 0
M  V30 11 C 1.590997 1.233341 -0.790648 0
M  V30 12 C 0.645715 1.733662 0.266189 0
M  V30 13 N 1.194787 1.718954 1.596098 0
M  V30 14 C 2.477058 2.374654 1.603277 0
M  V30 15 C 3.461032 1.729444 0.679457 0
M  V30 16 C 0.181867 -1.530744 2.437889 0
M  V30 17 C 0.180644 -1.429731 3.852687 0
M  V30 18 S -1.652035 -1.419877 4.135371 0
M  V30 19 C -2.055244 -1.548220 2.369780 0
M  V30 20 C -3.467851 -1.592415 1.862147 0
M  V30 21 C -4.450971 -1.531859 2.786922 0
M  V30 22 C -5.742946 -1.577555 2.248937 0
M  V30 23 C -5.952446 -1.676299 0.883579 0
M  V30 24 O -7.069019 -1.731596 0.197517 0
M  V30 25 C -6.826056 -1.821533 -1.080159 0
M  V30 26 C -5.432933 -1.823681 -1.219736 0
M  V30 27 C -4.868379 -1.730981 0.033138 0
M  V30 28 C -3.561316 -1.690488 0.497063 0
M  V30 29 N -0.865726 -1.593214 1.645710 0
M  V30 30 H 0.891558 -1.717289 -0.232249 0
M  V30 31 H 3.352216 -3.748107 -0.088948 0
M  V30 32 H 6.600798 -1.434778 -1.550527 0
M  V30 33 H 5.291855 0.641594 -1.183121 0
M  V30 34 H 1.092213 0.446022 -1.400454 0
M  V30 35 H 1.865423 2.043143 -1.504248 0
M  V30 36 H 0.333935 2.775994 0.018666 0
M  V30 37 H -0.312813 1.140901 0.311975 0
M  V30 38 H 0.566156 2.302875 2.194926 0
M  V30 39 H 2.896358 2.360382 2.649592 0
M  V30 40 H 2.293669 3.448120 1.377922 0
M  V30 41 H 3.922704 2.529619 0.046001 0
M  V30 42 H 4.332007 1.300821 1.243070 0
M  V30 43 H 0.939667 -1.375670 4.549871 0
M  V30 44 H -4.268208 -1.454891 3.849531 0
M  V30 45 H -6.604988 -1.533956 2.926746 0
M  V30 46 H -7.427461 -1.888971 -1.976561 0
M  V30 47 H -4.806828 -1.884457 -2.119472 0
M  V30 48 H -2.717564 -1.733856 -0.176058 0
M  V30 END ATOM
M  V30 BEGIN BOND
M  V30 1 2 1 2
M  V30 2 1 2 3
M  V30 3 1 3 4
M  V30 4 2 4 5
M  V30 5 1 5 6
M  V30 6 2 6 7
M  V30 7 1 7 8
M  V30 8 2 8 9
M  V30 9 1 9 10
M  V30 10 1 10 11
M  V30 11 1 11 12
M  V30 12 1 12 13
M  V30 13 1 13 14
M  V30 14 1 14 15
M  V30 15 1 2 16
M  V30 16 2 16 17
M  V30 17 1 17 18
M  V30 18 1 18 19
M  V30 19 1 19 20
M  V30 20 2 20 21
M  V30 21 1 21 22
M  V30 22 2 22 23
M  V30 23 1 23 24
M  V30 24 1 24 25
M  V30 25 2 25 26
M  V30 26 1 26 27
M  V30 27 2 27 28
M  V30 28 2 19 29
M  V30 29 1 9 4
M  V30 30 1 15 10
M  V30 31 1 29 16
M  V30 32 1 28 20
M  V30 33 1 27 23
M  V30 34 1 3 30
M  V30 35 1 5 31
M  V30 36 1 7 32
M  V30 37 1 8 33
M  V30 38 1 11 34
M  V30 39 1 11 35
M  V30 40 1 12 36
M  V30 41 1 12 37
M  V30 42 1 13 38
M  V30 43 1 14 39
M  V30 44 1 14 40
M  V30 45 1 15 41
M  V30 46 1 15 42
M  V30 47 1 17 43
M  V30 48 1 21 44
M  V30 49 1 22 45
M  V30 50 1 25 46
M  V30 51 1 26 47
M  V30 52 1 28 48
M  V30 END BOND
M  V30 END CTAB
M  END
>  <Dataset>  (787) 
ChEMBL_Kinases

>  <Ligand_Instance>  (787) 
nan

>  <PDB_ID>  (787) 
nan

>  <Standardized_SMILES>  (787) 
O=C(Nc1cnccc1N1CCNCC1)c1csc(-c2ccc3occc3c2)n1

>  <Name>  (787) 
nan

>  <Pocket>  (787) 
nan

>  <ATP_Site>  (787) 
nan

>  <Peripheral>  (787) 
nan

>  <Num_H_Atoms_ProtBoundConf>  (787) 
nan

>  <Num_Resolved_Atoms>  (787) 
nan

>  <Num_Not_Resolved_Atoms>  (787) 
nan

$$$$
CHEMBL2381108
     RDKit          3D

  0  0  0  0  0  0  0  0  0  0999 V3000
M  V30 BEGIN CTAB
M  V30 COUNTS 50 54 0 0 0
M  V30 BEGIN ATOM
M  V30 1 O 1.927303 -1.149106 -0.251699 0
M  V30 2 C 1.437038 -1.456095 0.865957 0
M  V30 3 N 2.399399 -1.311695 1.905121 0
M  V30 4 C 3.705693 -0.863613 1.561829 0
M  V30 5 N 4.745720 -1.611941 1.160187 0
M  V30 6 C 5.951967 -1.096064 0.868341 0
M  V30 7 C 6.184573 0.265651 0.970953 0
M  V30 8 C 5.108551 1.055927 1.388687 0
M  V30 9 C 3.870388 0.497356 1.684778 0
M  V30 10 N 2.965054 1.545371 2.093638 0
M  V30 11 C 1.769844 1.803310 1.310697 0
M  V30 12 C 1.515328 3.297464 1.324268 0
M  V30 13 N 1.599275 3.832570 2.667746 0
M  V30 14 C 2.883215 3.646303 3.260464 0
M  V30 15 C 3.378639 2.237971 3.293470 0
M  V30 16 C 0.066101 -1.906264 1.111479 0
M  V30 17 C -0.387470 -2.224577 2.401550 0
M  V30 18 S -2.177723 -2.713963 2.019722 0
M  V30 19 C -1.902886 -2.379588 0.227315 0
M  V30 20 C -3.004088 -2.564368 -0.840162 0
M  V30 21 C -2.668199 -2.278561 -2.131945 0
M  V30 22 C -3.677376 -2.456759 -3.054477 0
M  V30 23 C -4.929079 -2.893513 -2.676153 0
M  V30 24 C -5.232741 -3.174870 -1.346386 0
M  V30 25 C -4.243173 -3.007478 -0.389245 0
M  V30 26 C -6.655582 -3.619066 -1.291883 0
M  V30 27 C -6.847320 -4.127689 -2.724605 0
M  V30 28 O -6.080379 -3.139630 -3.425761 0
M  V30 29 N -0.826307 -2.040395 0.137123 0
M  V30 30 H 2.110054 -1.543318 2.901473 0
M  V30 31 H 6.753462 -1.766606 0.547118 0
M  V30 32 H 7.162959 0.637033 0.728041 0
M  V30 33 H 5.401336 2.115586 1.435366 0
M  V30 34 H 2.002447 1.525284 0.262227 0
M  V30 35 H 0.885355 1.243972 1.710187 0
M  V30 36 H 2.221605 3.828503 0.656559 0
M  V30 37 H 0.488860 3.498626 0.957086 0
M  V30 38 H 0.870014 3.379916 3.257206 0
M  V30 39 H 2.824791 4.004067 4.322516 0
M  V30 40 H 3.651512 4.315716 2.773891 0
M  V30 41 H 4.493552 2.201793 3.377050 0
M  V30 42 H 2.931691 1.657605 4.144852 0
M  V30 43 H 0.220101 -2.167656 3.314037 0
M  V30 44 H -1.670674 -1.944750 -2.335406 0
M  V30 45 H -3.406195 -2.226509 -4.091456 0
M  V30 46 H -4.435420 -3.213591 0.654307 0
M  V30 47 H -7.335246 -2.730025 -1.215626 0
M  V30 48 H -6.862473 -4.377174 -0.537917 0
M  V30 49 H -7.904211 -4.118497 -3.040876 0
M  V30 50 H -6.377764 -5.128100 -2.772381 0
M  V30 END ATOM
M  V30 BEGIN BOND
M  V30 1 2 1 2
M  V30 2 1 2 3
M  V30 3 1 3 4
M  V30 4 2 4 5
M  V30 5 1 5 6
M  V30 6 2 6 7
M  V30 7 1 7 8
M  V30 8 2 8 9
M  V30 9 1 9 10
M  V30 10 1 10 11
M  V30 11 1 11 12
M  V30 12 1 12 13
M  V30 13 1 13 14
M  V30 14 1 14 15
M  V30 15 1 2 16
M  V30 16 2 16 17
M  V30 17 1 17 18
M  V30 18 1 18 19
M  V30 19 1 19 20
M  V30 20 2 20 21
M  V30 21 1 21 22
M  V30 22 2 22 23
M  V30 23 1 23 24
M  V30 24 2 24 25
M  V30 25 1 24 26
M  V30 26 1 26 27
M  V30 27 1 27 28
M  V30 28 2 19 29
M  V30 29 1 9 4
M  V30 30 1 15 10
M  V30 31 1 29 16
M  V30 32 1 25 20
M  V30 33 1 28 23
M  V30 34 1 3 30
M  V30 35 1 6 31
M  V30 36 1 7 32
M  V30 37 1 8 33
M  V30 38 1 11 34
M  V30 39 1 11 35
M  V30 40 1 12 36
M  V30 41 1 12 37
M  V30 42 1 13 38
M  V30 43 1 14 39
M  V30 44 1 14 40
M  V30 45 1 15 41
M  V30 46 1 15 42
M  V30 47 1 17 43
M  V30 48 1 21 44
M  V30 49 1 22 45
M  V30 50 1 25 46
M  V30 51 1 26 47
M  V30 52 1 26 48
M  V30 53 1 27 49
M  V30 54 1 27 50
M  V30 END BOND
M  V30 END CTAB
M  END
>  <Dataset>  (788) 
ChEMBL_Kinases

>  <Ligand_Instance>  (788) 
nan

>  <PDB_ID>  (788) 
nan

>  <Standardized_SMILES>  (788) 
O=C(Nc1ncccc1N1CCNCC1)c1csc(-c2ccc3c(c2)CCO3)n1

>  <Name>  (788) 
nan

>  <Pocket>  (788) 
nan

>  <ATP_Site>  (788) 
nan

>  <Peripheral>  (788) 
nan

>  <Num_H_Atoms_ProtBoundConf>  (788) 
nan

>  <Num_Resolved_Atoms>  (788) 
nan

>  <Num_Not_Resolved_Atoms>  (788) 
nan

$$$$
CHEMBL2381107
     RDKit          3D

  0  0  0  0  0  0  0  0  0  0999 V3000
M  V30 BEGIN CTAB
M  V30 COUNTS 50 54 0 0 0
M  V30 BEGIN ATOM
M  V30 1 O 1.219674 0.202832 -1.104516 0
M  V30 2 C 1.428867 -0.709555 -0.264897 0
M  V30 3 N 2.714490 -0.651275 0.312593 0
M  V30 4 C 3.807644 0.233565 0.129766 0
M  V30 5 C 4.761704 -0.007276 -0.836375 0
M  V30 6 N 5.790586 0.824108 -1.002697 0
M  V30 7 C 5.917661 1.916936 -0.228649 0
M  V30 8 C 4.963055 2.176379 0.752847 0
M  V30 9 C 3.877020 1.314339 0.940890 0
M  V30 10 N 2.948044 1.675387 1.985553 0
M  V30 11 C 1.532365 1.988644 1.930031 0
M  V30 12 C 1.208843 3.225550 2.745828 0
M  V30 13 N 1.703417 3.111316 4.082205 0
M  V30 14 C 3.159531 3.042834 4.029977 0
M  V30 15 C 3.486441 1.743817 3.331772 0
M  V30 16 C 0.476148 -1.741694 0.107097 0
M  V30 17 C 0.756480 -2.760754 1.065793 0
M  V30 18 S -0.865491 -3.738642 1.069493 0
M  V30 19 C -1.566595 -2.587972 -0.199308 0
M  V30 20 C -2.995936 -2.766953 -0.747672 0
M  V30 21 C -3.406991 -1.849665 -1.686227 0
M  V30 22 C -4.689765 -2.032102 -2.161182 0
M  V30 23 C -5.477431 -3.070167 -1.706536 0
M  V30 24 C -5.018498 -3.969204 -0.759424 0
M  V30 25 C -3.720888 -3.811844 -0.257031 0
M  V30 26 C -6.087528 -4.967317 -0.474034 0
M  V30 27 C -6.885452 -4.869852 -1.775193 0
M  V30 28 O -6.780598 -3.459442 -2.024779 0
M  V30 29 N -0.745587 -1.853908 -0.394259 0
M  V30 30 H 3.016409 -1.351414 1.024317 0
M  V30 31 H 4.631509 -0.907213 -1.453191 0
M  V30 32 H 6.776297 2.565993 -0.403361 0
M  V30 33 H 5.116184 3.066722 1.343417 0
M  V30 34 H 1.165039 2.076746 0.892476 0
M  V30 35 H 0.992943 1.140521 2.398977 0
M  V30 36 H 1.668433 4.129568 2.289268 0
M  V30 37 H 0.119396 3.426462 2.762822 0
M  V30 38 H 1.322410 2.278569 4.591728 0
M  V30 39 H 3.549907 2.971819 5.051977 0
M  V30 40 H 3.518476 3.904818 3.450147 0
M  V30 41 H 4.549348 1.495219 3.367912 0
M  V30 42 H 2.969390 0.910449 3.884180 0
M  V30 43 H 1.788126 -2.840401 1.629908 0
M  V30 44 H -2.721020 -1.074272 -1.978531 0
M  V30 45 H -5.026811 -1.310225 -2.906432 0
M  V30 46 H -3.334173 -4.495437 0.481331 0
M  V30 47 H -6.777931 -4.607478 0.325988 0
M  V30 48 H -5.707596 -5.975957 -0.298443 0
M  V30 49 H -7.912882 -5.190091 -1.621963 0
M  V30 50 H -6.313141 -5.463924 -2.524326 0
M  V30 END ATOM
M  V30 BEGIN BOND
M  V30 1 2 1 2
M  V30 2 1 2 3
M  V30 3 1 3 4
M  V30 4 2 4 5
M  V30 5 1 5 6
M  V30 6 2 6 7
M  V30 7 1 7 8
M  V30 8 2 8 9
M  V30 9 1 9 10
M  V30 10 1 10 11
M  V30 11 1 11 12
M  V30 12 1 12 13
M  V30 13 1 13 14
M  V30 14 1 14 15
M  V30 15 1 2 16
M  V30 16 2 16 17
M  V30 17 1 17 18
M  V30 18 1 18 19
M  V30 19 1 19 20
M  V30 20 2 20 21
M  V30 21 1 21 22
M  V30 22 2 22 23
M  V30 23 1 23 24
M  V30 24 2 24 25
M  V30 25 1 24 26
M  V30 26 1 26 27
M  V30 27 1 27 28
M  V30 28 2 19 29
M  V30 29 1 9 4
M  V30 30 1 15 10
M  V30 31 1 29 16
M  V30 32 1 25 20
M  V30 33 1 28 23
M  V30 34 1 3 30
M  V30 35 1 5 31
M  V30 36 1 7 32
M  V30 37 1 8 33
M  V30 38 1 11 34
M  V30 39 1 11 35
M  V30 40 1 12 36
M  V30 41 1 12 37
M  V30 42 1 13 38
M  V30 43 1 14 39
M  V30 44 1 14 40
M  V30 45 1 15 41
M  V30 46 1 15 42
M  V30 47 1 17 43
M  V30 48 1 21 44
M  V30 49 1 22 45
M  V30 50 1 25 46
M  V30 51 1 26 47
M  V30 52 1 26 48
M  V30 53 1 27 49
M  V30 54 1 27 50
M  V30 END BOND
M  V30 END CTAB
M  END
>  <Dataset>  (789) 
ChEMBL_Kinases

>  <Ligand_Instance>  (789) 
nan

>  <PDB_ID>  (789) 
nan

>  <Standardized_SMILES>  (789) 
O=C(Nc1cnccc1N1CCNCC1)c1csc(-c2ccc3c(c2)CCO3)n1

>  <Name>  (789) 
nan

>  <Pocket>  (789) 
nan

>  <ATP_Site>  (789) 
nan

>  <Peripheral>  (789) 
nan

>  <Num_H_Atoms_ProtBoundConf>  (789) 
nan

>  <Num_Resolved_Atoms>  (789) 
nan

>  <Num_Not_Resolved_Atoms>  (789) 
nan

$$$$
CHEMBL2381106
     RDKit          3D

  0  0  0  0  0  0  0  0  0  0999 V3000
M  V30 BEGIN CTAB
M  V30 COUNTS 50 54 0 0 0
M  V30 BEGIN ATOM
M  V30 1 O 1.279351 0.013511 2.510304 0
M  V30 2 C 0.820872 -0.607955 1.525113 0
M  V30 3 N 1.814406 -0.731300 0.546269 0
M  V30 4 C 3.125470 -0.438706 0.171893 0
M  V30 5 C 3.730783 -1.091013 -0.879730 0
M  V30 6 C 5.026037 -0.746074 -1.161858 0
M  V30 7 N 5.739147 0.165870 -0.499141 0
M  V30 8 C 5.147494 0.813534 0.538598 0
M  V30 9 C 3.822379 0.499106 0.867148 0
M  V30 10 N 3.547515 1.403936 1.909740 0
M  V30 11 C 2.726257 2.534908 1.443304 0
M  V30 12 C 2.559064 3.488986 2.603527 0
M  V30 13 N 2.640607 2.839982 3.876503 0
M  V30 14 C 3.933272 2.239048 4.110482 0
M  V30 15 C 4.151213 1.055900 3.187114 0
M  V30 16 C -0.527498 -1.090190 1.489583 0
M  V30 17 C -0.992503 -0.965997 2.844709 0
M  V30 18 S -2.762760 -1.628388 2.678961 0
M  V30 19 C -2.549337 -1.931990 0.889731 0
M  V30 20 C -3.707923 -2.517308 0.074957 0
M  V30 21 C -4.849599 -2.817805 0.769016 0
M  V30 22 C -5.878105 -3.338654 0.008375 0
M  V30 23 C -5.773221 -3.543159 -1.348136 0
M  V30 24 C -4.547788 -3.192976 -1.946151 0
M  V30 25 C -3.458731 -2.662087 -1.245372 0
M  V30 26 C -4.631097 -3.484105 -3.423402 0
M  V30 27 C -6.155512 -3.358911 -3.590919 0
M  V30 28 O -6.565958 -4.027596 -2.397263 0
M  V30 29 N -1.583915 -1.572584 0.973049 0
M  V30 30 H 1.310793 -1.273421 -0.225771 0
M  V30 31 H 3.188588 -1.833686 -1.444594 0
M  V30 32 H 5.441708 -1.309137 -2.011344 0
M  V30 33 H 5.887553 1.509980 0.950151 0
M  V30 34 H 1.770978 2.225288 1.004639 0
M  V30 35 H 3.299526 3.055117 0.626227 0
M  V30 36 H 1.581066 4.006422 2.445866 0
M  V30 37 H 3.345045 4.293406 2.530912 0
M  V30 38 H 1.888396 2.188232 4.115707 0
M  V30 39 H 3.951835 1.957804 5.180750 0
M  V30 40 H 4.717492 2.978983 3.848235 0
M  V30 41 H 5.263010 0.947239 3.071765 0
M  V30 42 H 3.780080 0.107947 3.588479 0
M  V30 43 H -0.758041 -0.626788 4.049813 0
M  V30 44 H -5.003844 -2.684081 1.829287 0
M  V30 45 H -6.841639 -3.618094 0.454666 0
M  V30 46 H -2.528302 -2.395255 -1.713460 0
M  V30 47 H -4.397679 -4.534128 -3.596166 0
M  V30 48 H -4.110966 -2.746063 -4.028948 0
M  V30 49 H -6.519954 -3.912379 -4.460205 0
M  V30 50 H -6.444039 -2.286806 -3.573144 0
M  V30 END ATOM
M  V30 BEGIN BOND
M  V30 1 2 1 2
M  V30 2 1 2 3
M  V30 3 1 3 4
M  V30 4 2 4 5
M  V30 5 1 5 6
M  V30 6 2 6 7
M  V30 7 1 7 8
M  V30 8 2 8 9
M  V30 9 1 9 10
M  V30 10 1 10 11
M  V30 11 1 11 12
M  V30 12 1 12 13
M  V30 13 1 13 14
M  V30 14 1 14 15
M  V30 15 1 2 16
M  V30 16 2 16 17
M  V30 17 1 17 18
M  V30 18 1 18 19
M  V30 19 1 19 20
M  V30 20 2 20 21
M  V30 21 1 21 22
M  V30 22 2 22 23
M  V30 23 1 23 24
M  V30 24 2 24 25
M  V30 25 1 24 26
M  V30 26 1 26 27
M  V30 27 1 27 28
M  V30 28 2 19 29
M  V30 29 1 9 4
M  V30 30 1 15 10
M  V30 31 1 29 16
M  V30 32 1 25 20
M  V30 33 1 28 23
M  V30 34 1 3 30
M  V30 35 1 5 31
M  V30 36 1 6 32
M  V30 37 1 8 33
M  V30 38 1 11 34
M  V30 39 1 11 35
M  V30 40 1 12 36
M  V30 41 1 12 37
M  V30 42 1 13 38
M  V30 43 1 14 39
M  V30 44 1 14 40
M  V30 45 1 15 41
M  V30 46 1 15 42
M  V30 47 1 17 43
M  V30 48 1 21 44
M  V30 49 1 22 45
M  V30 50 1 25 46
M  V30 51 1 26 47
M  V30 52 1 26 48
M  V30 53 1 27 49
M  V30 54 1 27 50
M  V30 END BOND
M  V30 END CTAB
M  END
>  <Dataset>  (790) 
ChEMBL_Kinases

>  <Ligand_Instance>  (790) 
nan

>  <PDB_ID>  (790) 
nan

>  <Standardized_SMILES>  (790) 
O=C(Nc1ccncc1N1CCNCC1)c1csc(-c2ccc3c(c2)CCO3)n1

>  <Name>  (790) 
nan

>  <Pocket>  (790) 
nan

>  <ATP_Site>  (790) 
nan

>  <Peripheral>  (790) 
nan

>  <Num_H_Atoms_ProtBoundConf>  (790) 
nan

>  <Num_Resolved_Atoms>  (790) 
nan

>  <Num_Not_Resolved_Atoms>  (790) 
nan

$$$$
CHEMBL2381105
     RDKit          3D

  0  0  0  0  0  0  0  0  0  0999 V3000
M  V30 BEGIN CTAB
M  V30 COUNTS 50 54 0 0 0
M  V30 BEGIN ATOM
M  V30 1 O 2.478537 -3.042292 2.755458 0
M  V30 2 C 1.537015 -2.596532 2.057415 0
M  V30 3 N 1.821587 -1.991546 0.776425 0
M  V30 4 C 2.999725 -1.755255 0.038527 0
M  V30 5 C 3.387817 -2.849676 -0.748440 0
M  V30 6 C 4.513546 -2.728994 -1.499058 0
M  V30 7 C 5.220064 -1.551513 -1.457822 0
M  V30 8 N 4.806208 -0.535333 -0.689453 0
M  V30 9 C 3.705262 -0.585598 0.075537 0
M  V30 10 N 3.342884 0.562968 0.825417 0
M  V30 11 C 4.273292 1.665356 0.849119 0
M  V30 12 C 3.678480 2.922192 0.256584 0
M  V30 13 N 2.403148 3.241666 0.874820 0
M  V30 14 C 1.513264 2.099289 0.855746 0
M  V30 15 C 2.225588 0.974647 1.610427 0
M  V30 16 C 0.151331 -2.676268 2.513307 0
M  V30 17 C -0.090985 -3.248837 3.771499 0
M  V30 18 S -2.000263 -3.114370 3.862618 0
M  V30 19 C -2.037239 -2.340498 2.232510 0
M  V30 20 C -3.380427 -1.916219 1.596921 0
M  V30 21 C -4.537926 -2.142626 2.302281 0
M  V30 22 C -5.713090 -1.731750 1.657824 0
M  V30 23 C -5.682941 -1.137055 0.389229 0
M  V30 24 C -4.460873 -0.957466 -0.228748 0
M  V30 25 C -3.283517 -1.348340 0.373284 0
M  V30 26 C -4.693461 -0.313742 -1.554856 0
M  V30 27 C -6.057879 0.311140 -1.353086 0
M  V30 28 O -6.660784 -0.644270 -0.467209 0
M  V30 29 N -0.948314 -2.276090 1.882989 0
M  V30 30 H 1.000241 -1.621573 0.214480 0
M  V30 31 H 2.831766 -3.775887 -0.782022 0
M  V30 32 H 4.880200 -3.531896 -2.134637 0
M  V30 33 H 6.125670 -1.356958 -2.015113 0
M  V30 34 H 5.168262 1.399230 0.261659 0
M  V30 35 H 4.640955 1.841578 1.883748 0
M  V30 36 H 3.567250 2.868601 -0.828164 0
M  V30 37 H 4.378661 3.740220 0.506029 0
M  V30 38 H 1.950337 3.958719 0.233196 0
M  V30 39 H 1.284251 1.764693 -0.187511 0
M  V30 40 H 0.558876 2.388088 1.315028 0
M  V30 41 H 1.502441 0.177000 1.874832 0
M  V30 42 H 2.552100 1.392486 2.580748 0
M  V30 43 H 0.621139 -3.688903 4.562835 0
M  V30 44 H -4.545486 -2.597537 3.269587 0
M  V30 45 H -6.657351 -1.884935 2.166049 0
M  V30 46 H -2.309267 -1.209490 -0.113938 0
M  V30 47 H -4.667490 -1.036923 -2.395099 0
M  V30 48 H -3.959821 0.514116 -1.678045 0
M  V30 49 H -5.901130 1.291028 -0.838327 0
M  V30 50 H -6.630131 0.433919 -2.285337 0
M  V30 END ATOM
M  V30 BEGIN BOND
M  V30 1 2 1 2
M  V30 2 1 2 3
M  V30 3 1 3 4
M  V30 4 2 4 5
M  V30 5 1 5 6
M  V30 6 2 6 7
M  V30 7 1 7 8
M  V30 8 2 8 9
M  V30 9 1 9 10
M  V30 10 1 10 11
M  V30 11 1 11 12
M  V30 12 1 12 13
M  V30 13 1 13 14
M  V30 14 1 14 15
M  V30 15 1 2 16
M  V30 16 2 16 17
M  V30 17 1 17 18
M  V30 18 1 18 19
M  V30 19 1 19 20
M  V30 20 2 20 21
M  V30 21 1 21 22
M  V30 22 2 22 23
M  V30 23 1 23 24
M  V30 24 2 24 25
M  V30 25 1 24 26
M  V30 26 1 26 27
M  V30 27 1 27 28
M  V30 28 2 19 29
M  V30 29 1 9 4
M  V30 30 1 15 10
M  V30 31 1 29 16
M  V30 32 1 25 20
M  V30 33 1 28 23
M  V30 34 1 3 30
M  V30 35 1 5 31
M  V30 36 1 6 32
M  V30 37 1 7 33
M  V30 38 1 11 34
M  V30 39 1 11 35
M  V30 40 1 12 36
M  V30 41 1 12 37
M  V30 42 1 13 38
M  V30 43 1 14 39
M  V30 44 1 14 40
M  V30 45 1 15 41
M  V30 46 1 15 42
M  V30 47 1 17 43
M  V30 48 1 21 44
M  V30 49 1 22 45
M  V30 50 1 25 46
M  V30 51 1 26 47
M  V30 52 1 26 48
M  V30 53 1 27 49
M  V30 54 1 27 50
M  V30 END BOND
M  V30 END CTAB
M  END
>  <Dataset>  (791) 
ChEMBL_Kinases

>  <Ligand_Instance>  (791) 
nan

>  <PDB_ID>  (791) 
nan

>  <Standardized_SMILES>  (791) 
O=C(Nc1cccnc1N1CCNCC1)c1csc(-c2ccc3c(c2)CCO3)n1

>  <Name>  (791) 
nan

>  <Pocket>  (791) 
nan

>  <ATP_Site>  (791) 
nan

>  <Peripheral>  (791) 
nan

>  <Num_H_Atoms_ProtBoundConf>  (791) 
nan

>  <Num_Resolved_Atoms>  (791) 
nan

>  <Num_Not_Resolved_Atoms>  (791) 
nan

$$$$
CHEMBL2381104
     RDKit          3D

  0  0  0  0  0  0  0  0  0  0999 V3000
M  V30 BEGIN CTAB
M  V30 COUNTS 59 63 0 0 0
M  V30 BEGIN ATOM
M  V30 1 C 3.909447 -1.171310 7.416299 0
M  V30 2 O 4.931069 -0.580848 6.606489 0
M  V30 3 C 4.675097 -0.168360 5.305868 0
M  V30 4 C 5.665948 0.405658 4.517187 0
M  V30 5 C 5.410233 0.821632 3.207368 0
M  V30 6 C 4.126670 0.628297 2.752785 0
M  V30 7 C 3.761106 1.030452 1.398801 0
M  V30 8 C 4.552552 1.620018 0.422906 0
M  V30 9 C 3.811712 1.846133 -0.742692 0
M  V30 10 N 4.254332 2.428071 -1.962840 0
M  V30 11 N 2.613308 1.389513 -0.430446 0
M  V30 12 C 1.418252 1.398385 -1.356715 0
M  V30 13 N 0.273807 0.997663 -1.153808 0
M  V30 14 C -0.664955 1.075622 -2.067949 0
M  V30 15 C -2.009871 0.584001 -1.778745 0
M  V30 16 O -2.947632 0.634619 -2.613629 0
M  V30 17 N -2.429287 -0.000769 -0.552219 0
M  V30 18 C -3.705740 -0.479905 -0.246593 0
M  V30 19 C -4.517242 0.442357 0.379755 0
M  V30 20 C -5.816103 0.082439 0.727018 0
M  V30 21 C -6.218692 -1.203868 0.415574 0
M  V30 22 C -5.367445 -2.088136 -0.211907 0
M  V30 23 C -4.077551 -1.765676 -0.569726 0
M  V30 24 N -3.273328 -2.724517 -1.206766 0
M  V30 25 C -3.828127 -3.993167 -1.631072 0
M  V30 26 C -3.177549 -4.350396 -2.971680 0
M  V30 27 N -1.836589 -4.828977 -2.639743 0
M  V30 28 C -1.323508 -4.085821 -1.491363 0
M  V30 29 C -1.873763 -2.648841 -1.526643 0
M  V30 30 C -0.332201 1.634717 -3.302810 0
M  V30 31 S 1.496942 2.026625 -2.966809 0
M  V30 32 N 2.553071 0.921329 0.775084 0
M  V30 33 C 3.133666 0.059580 3.525546 0
M  V30 34 C 3.389434 -0.342842 4.799055 0
M  V30 35 H 3.603249 -2.094202 6.846818 0
M  V30 36 H 2.991647 -0.546461 7.446762 0
M  V30 37 H 4.323231 -1.418511 8.394697 0
M  V30 38 H 6.681276 0.545536 4.911338 0
M  V30 39 H 6.179533 1.267267 2.595319 0
M  V30 40 H 5.604122 1.863445 0.569113 0
M  V30 41 H 4.470938 1.738783 -2.721183 0
M  V30 42 H 4.363909 3.453434 -2.119132 0
M  V30 43 H -1.701966 -0.068912 0.224576 0
M  V30 44 H -4.202157 1.449693 0.623966 0
M  V30 45 H -6.459291 0.798131 1.218136 0
M  V30 46 H -7.238628 -1.412007 0.715213 0
M  V30 47 H -5.863943 -3.031830 -0.360492 0
M  V30 48 H -4.930710 -3.910413 -1.859313 0
M  V30 49 H -3.717680 -4.790439 -0.885581 0
M  V30 50 H -3.768870 -5.092545 -3.530221 0
M  V30 51 H -3.055399 -3.401941 -3.533997 0
M  V30 52 H -1.943145 -5.818037 -2.328984 0
M  V30 53 H -1.717079 -4.551741 -0.584666 0
M  V30 54 H -0.223546 -4.113035 -1.536398 0
M  V30 55 H -1.272952 -2.124049 -0.757896 0
M  V30 56 H -1.689276 -2.222892 -2.538952 0
M  V30 57 H -1.072833 1.750758 -4.168627 0
M  V30 58 H 2.119656 -0.087896 3.152256 0
M  V30 59 H 2.611721 -0.790750 5.411216 0
M  V30 END ATOM
M  V30 BEGIN BOND
M  V30 1 1 1 2
M  V30 2 1 2 3
M  V30 3 2 3 4
M  V30 4 1 4 5
M  V30 5 2 5 6
M  V30 6 1 6 7
M  V30 7 1 7 8
M  V30 8 2 8 9
M  V30 9 1 9 10
M  V30 10 1 9 11
M  V30 11 1 11 12
M  V30 12 2 12 13
M  V30 13 1 13 14
M  V30 14 1 14 15
M  V30 15 2 15 16
M  V30 16 1 15 17
M  V30 17 1 17 18
M  V30 18 2 18 19
M  V30 19 1 19 20
M  V30 20 2 20 21
M  V30 21 1 21 22
M  V30 22 2 22 23
M  V30 23 1 23 24
M  V30 24 1 24 25
M  V30 25 1 25 26
M  V30 26 1 26 27
M  V30 27 1 27 28
M  V30 28 1 28 29
M  V30 29 2 14 30
M  V30 30 1 30 31
M  V30 31 1 11 32
M  V30 32 1 6 33
M  V30 33 2 33 34
M  V30 34 1 34 3
M  V30 35 2 32 7
M  V30 36 1 31 12
M  V30 37 1 23 18
M  V30 38 1 29 24
M  V30 39 1 1 35
M  V30 40 1 1 36
M  V30 41 1 1 37
M  V30 42 1 4 38
M  V30 43 1 5 39
M  V30 44 1 8 40
M  V30 45 1 10 41
M  V30 46 1 10 42
M  V30 47 1 17 43
M  V30 48 1 19 44
M  V30 49 1 20 45
M  V30 50 1 21 46
M  V30 51 1 22 47
M  V30 52 1 25 48
M  V30 53 1 25 49
M  V30 54 1 26 50
M  V30 55 1 26 51
M  V30 56 1 27 52
M  V30 57 1 28 53
M  V30 58 1 28 54
M  V30 59 1 29 55
M  V30 60 1 29 56
M  V30 61 1 30 57
M  V30 62 1 33 58
M  V30 63 1 34 59
M  V30 END BOND
M  V30 END CTAB
M  END
>  <Dataset>  (792) 
ChEMBL_Kinases

>  <Ligand_Instance>  (792) 
nan

>  <PDB_ID>  (792) 
nan

>  <Standardized_SMILES>  (792) 
COc1ccc(-c2cc(N)n(-c3nc(C(=O)Nc4ccccc4N4CCNCC4)cs3)n2)cc1

>  <Name>  (792) 
nan

>  <Pocket>  (792) 
nan

>  <ATP_Site>  (792) 
nan

>  <Peripheral>  (792) 
nan

>  <Num_H_Atoms_ProtBoundConf>  (792) 
nan

>  <Num_Resolved_Atoms>  (792) 
nan

>  <Num_Not_Resolved_Atoms>  (792) 
nan

$$$$
CHEMBL2376929
     RDKit          3D

  0  0  0  0  0  0  0  0  0  0999 V3000
M  V30 BEGIN CTAB
M  V30 COUNTS 63 67 0 0 0
M  V30 BEGIN ATOM
M  V30 1 C 3.801578 -0.633909 6.300801 0
M  V30 2 N 3.922721 -0.596787 4.860027 0
M  V30 3 C 5.188070 -1.094087 4.416079 0
M  V30 4 C 5.660161 -0.340954 3.233507 0
M  V30 5 N 4.588828 -0.066501 2.238565 0
M  V30 6 C 3.914354 -1.284850 1.932630 0
M  V30 7 C 3.185521 -1.390424 0.658252 0
M  V30 8 N 2.186605 -0.443625 0.313017 0
M  V30 9 C 2.159843 0.931993 -0.025447 0
M  V30 10 O 3.301565 1.509176 -0.061325 0
M  V30 11 C 1.013547 1.771728 -0.336373 0
M  V30 12 C 1.279214 3.086960 -0.648785 0
M  V30 13 N 0.240505 3.924256 -0.950548 0
M  V30 14 C -1.023388 3.468772 -0.942103 0
M  V30 15 C -1.344890 2.152988 -0.634289 0
M  V30 16 N -2.711168 1.747177 -0.647121 0
M  V30 17 N -3.621203 2.531417 -0.089670 0
M  V30 18 C -4.857540 2.007884 -0.186383 0
M  V30 19 C -4.678228 0.814579 -0.854398 0
M  V30 20 C -5.546327 -0.179941 -1.258436 0
M  V30 21 C -5.059129 -1.286585 -1.925064 0
M  V30 22 N -5.946505 -2.297905 -2.337261 0
M  V30 23 C -5.483056 -3.475824 -2.984419 0
M  V30 24 C -5.273189 -3.755074 -4.304689 0
M  V30 25 Cl -5.646533 -2.401897 -5.362879 0
M  V30 26 C -4.818638 -4.973964 -4.712035 0
M  V30 27 C -4.552246 -5.979989 -3.787012 0
M  V30 28 C -4.756810 -5.721264 -2.446425 0
M  V30 29 C -5.219794 -4.476499 -2.043451 0
M  V30 30 Cl -5.424059 -4.318955 -0.298060 0
M  V30 31 C -3.707267 -1.398566 -2.187040 0
M  V30 32 C -2.791844 -0.415501 -1.796319 0
M  V30 33 C -3.328297 0.667299 -1.135089 0
M  V30 34 C -0.283251 1.324849 -0.332766 0
M  V30 35 C 3.649100 0.858317 2.937662 0
M  V30 36 C 3.817715 0.777023 4.428705 0
M  V30 37 H 2.738358 -0.330942 6.522161 0
M  V30 38 H 3.943101 -1.661091 6.704209 0
M  V30 39 H 4.451692 0.070737 6.825590 0
M  V30 40 H 5.909569 -0.948369 5.248305 0
M  V30 41 H 5.166090 -2.190700 4.244048 0
M  V30 42 H 6.114439 0.617452 3.489657 0
M  V30 43 H 6.392797 -0.979720 2.674294 0
M  V30 44 H 4.640634 -2.127801 2.090712 0
M  V30 45 H 3.176843 -1.458756 2.790229 0
M  V30 46 H 3.905432 -1.547859 -0.217705 0
M  V30 47 H 2.654459 -2.402290 0.680631 0
M  V30 48 H 1.163750 -0.757347 0.274241 0
M  V30 49 H 2.248192 3.562766 -0.687747 0
M  V30 50 H -1.834631 4.140694 -1.182394 0
M  V30 51 H -5.778025 2.439295 0.182904 0
M  V30 52 H -6.591974 -0.036102 -1.025268 0
M  V30 53 H -6.974937 -2.213151 -2.179666 0
M  V30 54 H -4.676390 -5.119434 -5.776319 0
M  V30 55 H -4.191963 -6.946076 -4.109701 0
M  V30 56 H -4.537150 -6.534530 -1.749387 0
M  V30 57 H -3.283292 -2.265332 -2.715473 0
M  V30 58 H -1.732626 -0.488640 -1.994867 0
M  V30 59 H -0.513044 0.298922 -0.089945 0
M  V30 60 H 2.642558 0.486669 2.713822 0
M  V30 61 H 3.810424 1.880679 2.566405 0
M  V30 62 H 2.945741 1.223681 4.964424 0
M  V30 63 H 4.718529 1.313358 4.745277 0
M  V30 END ATOM
M  V30 BEGIN BOND
M  V30 1 1 1 2
M  V30 2 1 2 3
M  V30 3 1 3 4
M  V30 4 1 4 5
M  V30 5 1 5 6
M  V30 6 1 6 7
M  V30 7 1 7 8
M  V30 8 1 8 9
M  V30 9 2 9 10
M  V30 10 1 9 11
M  V30 11 2 11 12
M  V30 12 1 12 13
M  V30 13 2 13 14
M  V30 14 1 14 15
M  V30 15 1 15 16
M  V30 16 1 16 17
M  V30 17 2 17 18
M  V30 18 1 18 19
M  V30 19 2 19 20
M  V30 20 1 20 21
M  V30 21 1 21 22
M  V30 22 1 22 23
M  V30 23 2 23 24
M  V30 24 1 24 25
M  V30 25 1 24 26
M  V30 26 2 26 27
M  V30 27 1 27 28
M  V30 28 2 28 29
M  V30 29 1 29 30
M  V30 30 2 21 31
M  V30 31 1 31 32
M  V30 32 2 32 33
M  V30 33 2 15 34
M  V30 34 1 5 35
M  V30 35 1 35 36
M  V30 36 1 36 2
M  V30 37 1 34 11
M  V30 38 1 33 16
M  V30 39 1 33 19
M  V30 40 1 29 23
M  V30 41 1 1 37
M  V30 42 1 1 38
M  V30 43 1 1 39
M  V30 44 1 3 40
M  V30 45 1 3 41
M  V30 46 1 4 42
M  V30 47 1 4 43
M  V30 48 1 6 44
M  V30 49 1 6 45
M  V30 50 1 7 46
M  V30 51 1 7 47
M  V30 52 1 8 48
M  V30 53 1 12 49
M  V30 54 1 14 50
M  V30 55 1 18 51
M  V30 56 1 20 52
M  V30 57 1 22 53
M  V30 58 1 26 54
M  V30 59 1 27 55
M  V30 60 1 28 56
M  V30 61 1 31 57
M  V30 62 1 32 58
M  V30 63 1 34 59
M  V30 64 1 35 60
M  V30 65 1 35 61
M  V30 66 1 36 62
M  V30 67 1 36 63
M  V30 END BOND
M  V30 END CTAB
M  END
>  <Dataset>  (793) 
ChEMBL_Kinases

>  <Ligand_Instance>  (793) 
nan

>  <PDB_ID>  (793) 
nan

>  <Standardized_SMILES>  (793) 
CN1CCN(CCNC(=O)c2cncc(-n3ncc4cc(Nc5c(Cl)cccc5Cl)ccc43)c2)CC1

>  <Name>  (793) 
nan

>  <Pocket>  (793) 
nan

>  <ATP_Site>  (793) 
nan

>  <Peripheral>  (793) 
nan

>  <Num_H_Atoms_ProtBoundConf>  (793) 
nan

>  <Num_Resolved_Atoms>  (793) 
nan

>  <Num_Not_Resolved_Atoms>  (793) 
nan

$$$$
CHEMBL2377716
     RDKit          3D

  0  0  0  0  0  0  0  0  0  0999 V3000
M  V30 BEGIN CTAB
M  V30 COUNTS 30 32 0 0 0
M  V30 BEGIN ATOM
M  V30 1 C -3.537170 -2.376489 1.532789 0
M  V30 2 C -2.354168 -1.774160 0.783356 0
M  V30 3 C -1.052293 -2.369163 1.273958 0
M  V30 4 C 0.136930 -1.823249 0.587034 0
M  V30 5 C 0.797230 -2.523811 -0.425031 0
M  V30 6 N 1.825708 -1.792371 -0.874647 0
M  V30 7 C 1.856212 -0.626756 -0.180746 0
M  V30 8 C 2.732781 0.425133 -0.296766 0
M  V30 9 N 3.779158 0.357304 -1.258710 0 CHG=1 VAL=4
M  V30 10 O 4.325622 -0.693514 -1.600325 0
M  V30 11 O 4.386823 1.346274 -1.980400 0 CHG=-1 VAL=1
M  V30 12 C 2.536125 1.505559 0.547934 0
M  V30 13 C 1.490467 1.493443 1.458865 0
M  V30 14 C 1.040654 2.388353 2.413452 0
M  V30 15 N -0.032293 1.833577 3.011913 0
M  V30 16 N -0.301730 0.646825 2.508463 0
M  V30 17 C 0.606135 0.413448 1.563473 0
M  V30 18 C 0.816086 -0.642161 0.722262 0
M  V30 19 H -3.894860 -3.241945 0.938949 0
M  V30 20 H -4.322177 -1.618622 1.573279 0
M  V30 21 H -3.250661 -2.695228 2.573952 0
M  V30 22 H -2.355379 -0.686313 0.996298 0
M  V30 23 H -2.514779 -1.985478 -0.293325 0
M  V30 24 H -0.995143 -2.256732 2.393215 0
M  V30 25 H -1.140671 -3.464357 1.124734 0
M  V30 26 H 0.520549 -3.520944 -0.798517 0
M  V30 27 H 2.462025 -2.118223 -1.634905 0
M  V30 28 H 3.209602 2.351902 0.481403 0
M  V30 29 H 1.535689 3.342608 2.572353 0
M  V30 30 H -1.103595 0.087949 2.868595 0
M  V30 END ATOM
M  V30 BEGIN BOND
M  V30 1 1 1 2
M  V30 2 1 2 3
M  V30 3 1 3 4
M  V30 4 2 4 5
M  V30 5 1 5 6
M  V30 6 1 6 7
M  V30 7 2 7 8
M  V30 8 1 8 9
M  V30 9 2 9 10
M  V30 10 1 9 11
M  V30 11 1 8 12
M  V30 12 2 12 13
M  V30 13 1 13 14
M  V30 14 2 14 15
M  V30 15 1 15 16
M  V30 16 1 16 17
M  V30 17 2 17 18
M  V30 18 1 18 4
M  V30 19 1 18 7
M  V30 20 1 17 13
M  V30 21 1 1 19
M  V30 22 1 1 20
M  V30 23 1 1 21
M  V30 24 1 2 22
M  V30 25 1 2 23
M  V30 26 1 3 24
M  V30 27 1 3 25
M  V30 28 1 5 26
M  V30 29 1 6 27
M  V30 30 1 12 28
M  V30 31 1 14 29
M  V30 32 1 16 30
M  V30 END BOND
M  V30 END CTAB
M  END
>  <Dataset>  (794) 
ChEMBL_Kinases

>  <Ligand_Instance>  (794) 
nan

>  <PDB_ID>  (794) 
nan

>  <Standardized_SMILES>  (794) 
CCCc1c[nH]c2c([N+](=O)[O-])cc3cn[nH]c3c12

>  <Name>  (794) 
nan

>  <Pocket>  (794) 
nan

>  <ATP_Site>  (794) 
nan

>  <Peripheral>  (794) 
nan

>  <Num_H_Atoms_ProtBoundConf>  (794) 
nan

>  <Num_Resolved_Atoms>  (794) 
nan

>  <Num_Not_Resolved_Atoms>  (794) 
nan

$$$$
CHEMBL2377717
     RDKit          3D

  0  0  0  0  0  0  0  0  0  0999 V3000
M  V30 BEGIN CTAB
M  V30 COUNTS 36 38 0 0 0
M  V30 BEGIN ATOM
M  V30 1 C -0.236942 -4.613805 0.256262 0
M  V30 2 C -0.519434 -3.136498 0.340616 0
M  V30 3 C 0.758487 -2.320475 0.325710 0
M  V30 4 C 0.545781 -0.873138 0.403657 0
M  V30 5 C 0.174858 -0.093674 -0.670543 0
M  V30 6 C -0.044132 -0.574963 -2.026674 0
M  V30 7 O 0.014465 -1.683660 -2.607319 0
M  V30 8 O -0.414785 0.234159 -3.083977 0
M  V30 9 C -0.615450 -0.302852 -4.400557 0
M  V30 10 N 0.027879 1.207529 -0.362752 0
M  V30 11 C 0.311161 1.274569 0.946905 0
M  V30 12 C 0.318913 2.363720 1.793061 0
M  V30 13 N -0.002888 3.650599 1.307375 0 CHG=1 VAL=4
M  V30 14 O 0.409419 4.722586 1.785328 0
M  V30 15 O -0.810808 4.010144 0.240281 0 CHG=-1 VAL=1
M  V30 16 C 0.644108 2.217326 3.142819 0
M  V30 17 C 0.957358 0.960033 3.612358 0
M  V30 18 C 1.311431 0.484243 4.869016 0
M  V30 19 N 1.487250 -0.817766 4.701305 0
M  V30 20 N 1.275710 -1.200032 3.454786 0
M  V30 21 C 0.946462 -0.111534 2.764087 0
M  V30 22 C 0.628132 0.028058 1.437239 0
M  V30 23 H -1.008707 -5.225303 0.787223 0
M  V30 24 H 0.720785 -4.889256 0.770041 0
M  V30 25 H -0.179290 -4.990857 -0.774071 0
M  V30 26 H -1.210111 -2.871671 -0.479850 0
M  V30 27 H -1.036437 -2.953257 1.319681 0
M  V30 28 H 1.203163 -2.556242 -0.705627 0
M  V30 29 H 1.506675 -2.710402 1.010690 0
M  V30 30 H -1.472935 -1.014536 -4.315747 0
M  V30 31 H 0.298231 -0.827337 -4.744645 0
M  V30 32 H -0.965125 0.491042 -5.088822 0
M  V30 33 H -0.242686 1.988884 -0.989118 0
M  V30 34 H 0.645467 3.083522 3.793370 0
M  V30 35 H 1.395539 1.132960 5.733072 0
M  V30 36 H 1.392122 -2.208987 3.249806 0
M  V30 END ATOM
M  V30 BEGIN BOND
M  V30 1 1 1 2
M  V30 2 1 2 3
M  V30 3 1 3 4
M  V30 4 2 4 5
M  V30 5 1 5 6
M  V30 6 2 6 7
M  V30 7 1 6 8
M  V30 8 1 8 9
M  V30 9 1 5 10
M  V30 10 1 10 11
M  V30 11 2 11 12
M  V30 12 1 12 13
M  V30 13 2 13 14
M  V30 14 1 13 15
M  V30 15 1 12 16
M  V30 16 2 16 17
M  V30 17 1 17 18
M  V30 18 2 18 19
M  V30 19 1 19 20
M  V30 20 1 20 21
M  V30 21 2 21 22
M  V30 22 1 22 4
M  V30 23 1 22 11
M  V30 24 1 21 17
M  V30 25 1 1 23
M  V30 26 1 1 24
M  V30 27 1 1 25
M  V30 28 1 2 26
M  V30 29 1 2 27
M  V30 30 1 3 28
M  V30 31 1 3 29
M  V30 32 1 9 30
M  V30 33 1 9 31
M  V30 34 1 9 32
M  V30 35 1 10 33
M  V30 36 1 16 34
M  V30 37 1 18 35
M  V30 38 1 20 36
M  V30 END BOND
M  V30 END CTAB
M  END
>  <Dataset>  (795) 
ChEMBL_Kinases

>  <Ligand_Instance>  (795) 
nan

>  <PDB_ID>  (795) 
nan

>  <Standardized_SMILES>  (795) 
CCCc1c(C(=O)OC)[nH]c2c([N+](=O)[O-])cc3cn[nH]c3c12

>  <Name>  (795) 
nan

>  <Pocket>  (795) 
nan

>  <ATP_Site>  (795) 
nan

>  <Peripheral>  (795) 
nan

>  <Num_H_Atoms_ProtBoundConf>  (795) 
nan

>  <Num_Resolved_Atoms>  (795) 
nan

>  <Num_Not_Resolved_Atoms>  (795) 
nan

$$$$
CHEMBL2377724
     RDKit          3D

  0  0  0  0  0  0  0  0  0  0999 V3000
M  V30 BEGIN CTAB
M  V30 COUNTS 33 35 0 0 0
M  V30 BEGIN ATOM
M  V30 1 C 0.680283 -2.887542 3.309394 0
M  V30 2 Si 0.766958 -3.000633 1.446043 0 VAL=4
M  V30 3 C -0.539214 -4.223503 0.855764 0
M  V30 4 C 2.462552 -3.568854 0.952395 0
M  V30 5 C 0.391806 -1.341809 0.751016 0
M  V30 6 C -0.882407 -0.839203 0.853576 0
M  V30 7 C -0.899303 0.417556 0.253773 0
M  V30 8 C 0.402089 0.643011 -0.206303 0
M  V30 9 N 1.141114 -0.437712 0.113790 0
M  V30 10 C 0.697130 1.836626 -0.860416 0
M  V30 11 N 2.009113 2.093363 -1.338699 0 CHG=1 VAL=4
M  V30 12 O 2.236491 2.839944 -2.309271 0
M  V30 13 O 3.161033 1.569860 -0.811784 0 CHG=-1 VAL=1
M  V30 14 C -0.294263 2.799092 -1.055618 0
M  V30 15 C -1.585380 2.584374 -0.603317 0
M  V30 16 C -2.784711 3.285816 -0.617058 0
M  V30 17 N -3.704980 2.534306 -0.007020 0
M  V30 18 N -3.161213 1.382675 0.400396 0
M  V30 19 C -1.850869 1.393029 0.041611 0
M  V30 20 H 0.737683 -3.900307 3.775752 0
M  V30 21 H -0.230694 -2.358179 3.663812 0
M  V30 22 H 1.548676 -2.254150 3.654763 0
M  V30 23 H -0.507611 -5.172399 1.392032 0
M  V30 24 H -1.530479 -3.693244 0.957360 0
M  V30 25 H -0.392354 -4.327149 -0.258011 0
M  V30 26 H 3.162608 -3.383867 1.790218 0
M  V30 27 H 2.403813 -4.663121 0.781206 0
M  V30 28 H 2.800423 -3.071922 0.004528 0
M  V30 29 H -1.788616 -1.253332 1.297342 0
M  V30 30 H 2.139476 -0.588984 -0.082942 0
M  V30 31 H -0.111988 3.742265 -1.558762 0
M  V30 32 H -2.891625 4.266247 -1.059962 0
M  V30 33 H -3.644558 0.595673 0.909503 0
M  V30 END ATOM
M  V30 BEGIN BOND
M  V30 1 1 1 2
M  V30 2 1 2 3
M  V30 3 1 2 4
M  V30 4 1 2 5
M  V30 5 2 5 6
M  V30 6 1 6 7
M  V30 7 2 7 8
M  V30 8 1 8 9
M  V30 9 1 8 10
M  V30 10 1 10 11
M  V30 11 2 11 12
M  V30 12 1 11 13
M  V30 13 2 10 14
M  V30 14 1 14 15
M  V30 15 1 15 16
M  V30 16 2 16 17
M  V30 17 1 17 18
M  V30 18 1 18 19
M  V30 19 1 9 5
M  V30 20 2 19 15
M  V30 21 1 19 7
M  V30 22 1 1 20
M  V30 23 1 1 21
M  V30 24 1 1 22
M  V30 25 1 3 23
M  V30 26 1 3 24
M  V30 27 1 3 25
M  V30 28 1 4 26
M  V30 29 1 4 27
M  V30 30 1 4 28
M  V30 31 1 6 29
M  V30 32 1 9 30
M  V30 33 1 14 31
M  V30 34 1 16 32
M  V30 35 1 18 33
M  V30 END BOND
M  V30 END CTAB
M  END
>  <Dataset>  (796) 
ChEMBL_Kinases

>  <Ligand_Instance>  (796) 
nan

>  <PDB_ID>  (796) 
nan

>  <Standardized_SMILES>  (796) 
C[Si](C)(C)c1cc2c([nH]1)c([N+](=O)[O-])cc1cn[nH]c12

>  <Name>  (796) 
nan

>  <Pocket>  (796) 
nan

>  <ATP_Site>  (796) 
nan

>  <Peripheral>  (796) 
nan

>  <Num_H_Atoms_ProtBoundConf>  (796) 
nan

>  <Num_Resolved_Atoms>  (796) 
nan

>  <Num_Not_Resolved_Atoms>  (796) 
nan

$$$$
CHEMBL2377825
     RDKit          3D

  0  0  0  0  0  0  0  0  0  0999 V3000
M  V30 BEGIN CTAB
M  V30 COUNTS 41 43 0 0 0
M  V30 BEGIN ATOM
M  V30 1 N -0.600510 -3.825526 4.641456 0
M  V30 2 C 0.133193 -3.064413 3.701033 0
M  V30 3 N 1.331715 -2.499611 3.717128 0
M  V30 4 C 1.858151 -1.887440 2.942566 0
M  V30 5 N 2.986347 -1.068823 2.395324 0
M  V30 6 C 2.865582 0.204543 1.764990 0
M  V30 7 C 2.453994 0.049304 0.438607 0
M  V30 8 C 2.248844 1.185022 -0.359003 0
M  V30 9 C 2.460874 2.472120 0.178866 0
M  V30 10 S 2.177407 3.835129 -0.859385 0
M  V30 11 N 3.502500 4.285517 -1.816008 0
M  V30 12 O 1.734746 5.046737 -0.052881 0
M  V30 13 O 0.980243 3.514349 -1.736205 0
M  V30 14 C 2.874433 2.592386 1.514714 0
M  V30 15 C 3.061175 1.463591 2.249017 0
M  V30 16 S 0.578321 -1.839749 1.532932 0
M  V30 17 C -0.669686 -2.890846 2.514362 0
M  V30 18 C -1.958508 -3.271868 1.845700 0
M  V30 19 O -2.268047 -4.189695 2.577234 0
M  V30 20 C -2.221082 -2.412644 0.670736 0
M  V30 21 C -2.035820 -1.052065 0.903911 0
M  V30 22 C -2.240231 -0.111106 -0.070100 0
M  V30 23 C -2.641146 -0.647125 -1.276877 0
M  V30 24 C -2.836454 -1.983060 -1.546577 0
M  V30 25 C -2.622139 -2.893107 -0.552505 0
M  V30 26 N -2.829299 -4.277693 -0.755929 0 CHG=1 VAL=4
M  V30 27 O -2.729308 -4.709878 -1.928319 0
M  V30 28 O -3.147041 -5.339966 0.035740 0 CHG=-1 VAL=1
M  V30 29 H -0.994451 -3.428116 5.499372 0
M  V30 30 H -0.831149 -4.865240 4.555968 0
M  V30 31 H 4.010105 -1.401535 2.438660 0
M  V30 32 H 2.263185 -0.860259 -0.111529 0
M  V30 33 H 1.932670 1.111475 -1.404308 0
M  V30 34 H 4.007169 5.111100 -1.481944 0
M  V30 35 H 4.100373 3.523040 -2.170435 0
M  V30 36 H 3.036058 3.576360 1.945896 0
M  V30 37 H 3.388280 1.459705 3.290664 0
M  V30 38 H -1.718742 -0.675702 1.891102 0
M  V30 39 H -2.097826 0.935528 0.116347 0
M  V30 40 H -2.835656 0.023641 -2.118712 0
M  V30 41 H -3.155436 -2.290128 -2.566526 0
M  V30 END ATOM
M  V30 BEGIN BOND
M  V30 1 1 1 2
M  V30 2 1 2 3
M  V30 3 2 3 4
M  V30 4 1 4 5
M  V30 5 1 5 6
M  V30 6 2 6 7
M  V30 7 1 7 8
M  V30 8 2 8 9
M  V30 9 1 9 10
M  V30 10 1 10 11
M  V30 11 2 10 12
M  V30 12 2 10 13
M  V30 13 1 9 14
M  V30 14 2 14 15
M  V30 15 1 4 16
M  V30 16 1 16 17
M  V30 17 1 17 18
M  V30 18 2 18 19
M  V30 19 1 18 20
M  V30 20 2 20 21
M  V30 21 1 21 22
M  V30 22 2 22 23
M  V30 23 1 23 24
M  V30 24 2 24 25
M  V30 25 1 25 26
M  V30 26 2 26 27
M  V30 27 1 26 28
M  V30 28 2 17 2
M  V30 29 1 25 20
M  V30 30 1 15 6
M  V30 31 1 1 29
M  V30 32 1 1 30
M  V30 33 1 5 31
M  V30 34 1 7 32
M  V30 35 1 8 33
M  V30 36 1 11 34
M  V30 37 1 11 35
M  V30 38 1 14 36
M  V30 39 1 15 37
M  V30 40 1 21 38
M  V30 41 1 22 39
M  V30 42 1 23 40
M  V30 43 1 24 41
M  V30 END BOND
M  V30 END CTAB
M  END
>  <Dataset>  (797) 
ChEMBL_Kinases

>  <Ligand_Instance>  (797) 
nan

>  <PDB_ID>  (797) 
nan

>  <Standardized_SMILES>  (797) 
Nc1nc(Nc2ccc(S(N)(=O)=O)cc2)sc1C(=O)c1ccccc1[N+](=O)[O-]

>  <Name>  (797) 
nan

>  <Pocket>  (797) 
nan

>  <ATP_Site>  (797) 
nan

>  <Peripheral>  (797) 
nan

>  <Num_H_Atoms_ProtBoundConf>  (797) 
nan

>  <Num_Resolved_Atoms>  (797) 
nan

>  <Num_Not_Resolved_Atoms>  (797) 
nan

$$$$
CHEMBL2380573
     RDKit          3D

  0  0  0  0  0  0  0  0  0  0999 V3000
M  V30 BEGIN CTAB
M  V30 COUNTS 32 34 0 0 0
M  V30 BEGIN ATOM
M  V30 1 C -2.487386 -3.541169 3.460116 0
M  V30 2 C -1.002416 -3.412684 3.670318 0
M  V30 3 O -0.419963 -2.314908 3.011629 0
M  V30 4 C -0.513969 -2.249299 1.630107 0
M  V30 5 C -1.099959 -3.101493 0.719042 0
M  V30 6 C -1.055533 -2.804573 -0.624764 0
M  V30 7 C -0.452754 -1.690154 -1.135090 0
M  V30 8 N -0.283985 -1.198101 -2.368677 0
M  V30 9 N 0.388677 -0.066739 -2.253510 0
M  V30 10 C 0.664823 0.193666 -0.969221 0
M  V30 11 C 1.395757 1.367860 -0.501863 0
M  V30 12 C 2.413634 1.406793 0.429403 0
M  V30 13 C 2.982595 2.628876 0.740968 0
M  V30 14 C 2.564491 3.805190 0.150795 0
M  V30 15 C 1.548734 3.793468 -0.783312 0
M  V30 16 C 0.995624 2.558869 -1.078058 0
M  V30 17 C 0.132445 -0.839798 -0.222505 0
M  V30 18 C 0.115062 -1.094593 1.147279 0
M  V30 19 H -2.795237 -4.565810 3.144059 0
M  V30 20 H -2.987577 -3.379909 4.437227 0
M  V30 21 H -2.885573 -2.757524 2.774583 0
M  V30 22 H -0.792725 -3.439307 4.743854 0
M  V30 23 H -0.553515 -4.324615 3.170394 0
M  V30 24 H -1.550030 -3.952019 1.191516 0
M  V30 25 H -1.544345 -3.534224 -1.269493 0
M  V30 26 H -0.625474 -1.636056 -3.254298 0
M  V30 27 H 2.688444 0.451060 0.847960 0
M  V30 28 H 3.790065 2.622960 1.486182 0
M  V30 29 H 3.041936 4.741872 0.427716 0
M  V30 30 H 1.213590 4.708360 -1.251522 0
M  V30 31 H 0.193389 2.612653 -1.826789 0
M  V30 32 H 0.619058 -0.332948 1.763327 0
M  V30 END ATOM
M  V30 BEGIN BOND
M  V30 1 1 1 2
M  V30 2 1 2 3
M  V30 3 1 3 4
M  V30 4 2 4 5
M  V30 5 1 5 6
M  V30 6 2 6 7
M  V30 7 1 7 8
M  V30 8 1 8 9
M  V30 9 2 9 10
M  V30 10 1 10 11
M  V30 11 2 11 12
M  V30 12 1 12 13
M  V30 13 2 13 14
M  V30 14 1 14 15
M  V30 15 2 15 16
M  V30 16 1 10 17
M  V30 17 2 17 18
M  V30 18 1 18 4
M  V30 19 1 17 7
M  V30 20 1 16 11
M  V30 21 1 1 19
M  V30 22 1 1 20
M  V30 23 1 1 21
M  V30 24 1 2 22
M  V30 25 1 2 23
M  V30 26 1 5 24
M  V30 27 1 6 25
M  V30 28 1 8 26
M  V30 29 1 12 27
M  V30 30 1 13 28
M  V30 31 1 14 29
M  V30 32 1 15 30
M  V30 33 1 16 31
M  V30 34 1 18 32
M  V30 END BOND
M  V30 END CTAB
M  END
>  <Dataset>  (798) 
ChEMBL_Kinases

>  <Ligand_Instance>  (798) 
nan

>  <PDB_ID>  (798) 
nan

>  <Standardized_SMILES>  (798) 
CCOc1ccc2[nH]nc(-c3ccccc3)c2c1

>  <Name>  (798) 
nan

>  <Pocket>  (798) 
nan

>  <ATP_Site>  (798) 
nan

>  <Peripheral>  (798) 
nan

>  <Num_H_Atoms_ProtBoundConf>  (798) 
nan

>  <Num_Resolved_Atoms>  (798) 
nan

>  <Num_Not_Resolved_Atoms>  (798) 
nan

$$$$
CHEMBL2380651
     RDKit          3D

  0  0  0  0  0  0  0  0  0  0999 V3000
M  V30 BEGIN CTAB
M  V30 COUNTS 121 124 0 0 0
M  V30 BEGIN ATOM
M  V30 1 C -4.950456 -2.802643 2.959468 0
M  V30 2 C -3.641973 -2.076698 2.866470 0
M  V30 3 C -3.184055 -1.772236 4.330438 0
M  V30 4 C -3.814197 -0.751072 2.167699 0
M  V30 5 C -2.519245 -0.065469 2.084491 0 CFG=2
M  V30 6 N -2.603773 1.332737 1.738480 0
M  V30 7 C -1.961572 1.912865 0.602892 0
M  V30 8 O -1.930578 1.135242 -0.271666 0
M  V30 9 C -1.476315 3.403783 0.603571 0
M  V30 10 N -0.168802 3.423263 0.033398 0
M  V30 11 C 0.484451 2.924884 -1.074395 0
M  V30 12 C 0.497309 3.906566 -2.295732 0
M  V30 13 C 1.086648 3.123405 -3.338112 0
M  V30 14 O 2.270777 2.758238 -3.217390 0
M  V30 15 N 0.227243 2.789984 -4.423531 0
M  V30 16 C 0.782784 1.773537 -5.294861 0
M  V30 17 C 0.045376 0.457293 -4.902961 0
M  V30 18 C -1.308673 0.708719 -5.666373 0
M  V30 19 C -1.641738 0.307662 -6.850135 0
M  V30 20 N -2.930920 0.580606 -7.203550 0
M  V30 21 C -3.382809 1.277809 -6.018933 0
M  V30 22 C -4.602800 1.907160 -5.826301 0
M  V30 23 C -4.761997 2.531479 -4.508134 0
M  V30 24 C -3.871738 2.545812 -3.465240 0
M  V30 25 C -2.906295 1.861568 -4.103433 0
M  V30 26 C -2.346069 1.251363 -5.107326 0
M  V30 27 C 0.787848 4.444088 0.284778 0
M  V30 28 O 0.083741 5.380376 0.502358 0
M  V30 29 C 2.283086 4.619487 0.423897 0
M  V30 30 S 2.924891 4.506501 2.114438 0
M  V30 31 C 4.637016 3.985474 1.918913 0
M  V30 32 C 5.283044 3.378331 3.151197 0 CFG=2
M  V30 33 C 6.647515 3.198044 2.982813 0
M  V30 34 N 7.319767 3.000459 1.770728 0
M  V30 35 O 7.336676 3.172759 3.997702 0
M  V30 36 N 4.525820 2.158974 3.480548 0
M  V30 37 C 4.041615 1.139238 2.607267 0
M  V30 38 O 4.931357 0.933966 1.824204 0
M  V30 39 C 2.670393 0.428017 2.610153 0 CFG=2
M  V30 40 C 2.091486 0.803671 3.938738 0 CFG=1
M  V30 41 C 0.793895 1.677000 3.559964 0
M  V30 42 O 1.400361 -0.206554 4.597494 0
M  V30 43 P 1.316981 0.136564 6.259975 0
M  V30 44 O -0.158120 0.601905 6.414158 0
M  V30 45 O 2.326051 1.347415 6.779914 0
M  V30 46 O 1.505262 -1.289766 7.120192 0
M  V30 47 N 3.108459 -0.987430 2.700133 0
M  V30 48 C 2.859787 -1.850808 1.587093 0
M  V30 49 O 3.150718 -1.307870 0.584301 0
M  V30 50 C 2.417212 -3.225125 1.727812 0 CFG=2
M  V30 51 C 3.540114 -4.247641 1.697704 0
M  V30 52 O 3.068740 -5.434216 2.185452 0
M  V30 53 N 1.370949 -3.661432 0.825690 0
M  V30 54 C 0.481823 -2.769311 0.114050 0
M  V30 55 O 0.988921 -1.769495 -0.195417 0
M  V30 56 C -0.901180 -2.871986 -0.373374 0 CFG=2
M  V30 57 C -1.222665 -3.206875 -1.791184 0
M  V30 58 C -0.882060 -4.555619 -2.091889 0
M  V30 59 C 0.145637 -5.108401 -2.691972 0
M  V30 60 N 0.053643 -6.412147 -2.629415 0
M  V30 61 C -1.095503 -6.722346 -2.011214 0
M  V30 62 N -1.604648 -5.532690 -1.745383 0
M  V30 63 N -1.754820 -1.793593 0.101394 0
M  V30 64 C -1.606792 -0.700751 1.011398 0
M  V30 65 O -0.467679 -0.333945 0.753338 0
M  V30 66 H -5.521855 -2.477411 2.043854 0
M  V30 67 H -4.816016 -3.895380 2.910455 0
M  V30 68 H -5.528782 -2.447404 3.824073 0
M  V30 69 H -2.830122 -2.634531 2.394714 0
M  V30 70 H -3.703359 -2.449779 5.000072 0
M  V30 71 H -2.110428 -1.860097 4.460479 0
M  V30 72 H -3.466867 -0.725823 4.567880 0
M  V30 73 H -4.051013 -1.081299 1.071282 0
M  V30 74 H -4.589269 -0.067368 2.523329 0
M  V30 75 H -1.871942 -0.209477 2.944006 0
M  V30 76 H -3.194704 1.855357 2.254079 0
M  V30 77 H -2.120971 3.891073 -0.209121 0
M  V30 78 H -1.570646 3.852944 1.537579 0
M  V30 79 H 1.422476 2.438668 -0.966760 0
M  V30 80 H -0.196009 2.095370 -1.487658 0
M  V30 81 H 1.258836 4.721381 -1.929922 0
M  V30 82 H -0.515078 4.276876 -2.380223 0
M  V30 83 H -0.678773 3.251744 -4.505746 0
M  V30 84 H 1.818655 1.533197 -5.046134 0
M  V30 85 H 0.681929 1.975793 -6.363425 0
M  V30 86 H 0.558332 -0.407132 -5.211517 0
M  V30 87 H -0.118663 0.574457 -3.790878 0
M  V30 88 H -0.869074 -0.269620 -7.591734 0
M  V30 89 H -3.359124 0.547672 -8.116189 0
M  V30 90 H -5.342013 1.914292 -6.589229 0
M  V30 91 H -5.784073 3.080160 -4.428084 0
M  V30 92 H -4.017170 3.000857 -2.634239 0
M  V30 93 H -2.148894 1.735272 -3.255094 0
M  V30 94 H 2.604604 5.542295 -0.006024 0
M  V30 95 H 2.755148 3.751789 -0.109978 0
M  V30 96 H 4.677155 3.234630 1.082944 0
M  V30 97 H 5.287326 4.813917 1.655217 0
M  V30 98 H 4.910452 4.041535 3.964863 0
M  V30 99 H 7.844942 2.136188 1.524163 0
M  V30 100 H 7.316498 3.780141 1.145116 0
M  V30 101 H 4.516274 1.785002 4.434105 0
M  V30 102 H 2.131400 0.742028 1.755511 0
M  V30 103 H 2.636431 1.454243 4.596529 0
M  V30 104 H 0.276657 1.933884 4.485174 0
M  V30 105 H 0.177296 0.941043 3.036531 0
M  V30 106 H 1.030075 2.454269 2.886068 0
M  V30 107 H 1.787905 2.054846 7.264935 0
M  V30 108 H 1.157726 -2.034474 6.576807 0
M  V30 109 H 3.655059 -1.322758 3.408116 0
M  V30 110 H 1.894079 -3.310665 2.728384 0
M  V30 111 H 3.725897 -4.394768 0.542952 0
M  V30 112 H 4.365851 -3.772051 2.193147 0
M  V30 113 H 2.231475 -5.347257 2.739563 0
M  V30 114 H 1.110321 -4.495353 0.462066 0
M  V30 115 H -1.360842 -3.702512 0.291950 0
M  V30 116 H -0.421872 -2.482726 -2.362762 0
M  V30 117 H -2.173571 -2.793640 -2.120553 0
M  V30 118 H 0.841046 -4.595526 -3.154538 0
M  V30 119 H 0.705197 -7.031359 -2.992479 0
M  V30 120 H -1.422530 -7.734871 -1.823944 0
M  V30 121 H -2.614459 -1.533337 -0.390346 0
M  V30 END ATOM
M  V30 BEGIN BOND
M  V30 1 1 1 2
M  V30 2 1 2 3
M  V30 3 1 2 4
M  V30 4 1 4 5
M  V30 5 1 5 6
M  V30 6 1 6 7
M  V30 7 2 7 8
M  V30 8 1 7 9
M  V30 9 1 9 10
M  V30 10 1 10 11
M  V30 11 1 11 12
M  V30 12 1 12 13
M  V30 13 2 13 14
M  V30 14 1 13 15
M  V30 15 1 15 16
M  V30 16 1 16 17
M  V30 17 1 17 18
M  V30 18 2 18 19
M  V30 19 1 19 20
M  V30 20 1 20 21
M  V30 21 2 21 22
M  V30 22 1 22 23
M  V30 23 2 23 24
M  V30 24 1 24 25
M  V30 25 2 25 26
M  V30 26 1 10 27
M  V30 27 2 27 28
M  V30 28 1 27 29
M  V30 29 1 29 30
M  V30 30 1 30 31
M  V30 31 1 31 32
M  V30 32 1 32 33
M  V30 33 1 33 34
M  V30 34 2 33 35
M  V30 35 1 32 36
M  V30 36 1 36 37
M  V30 37 2 37 38
M  V30 38 1 37 39
M  V30 39 1 39 40
M  V30 40 1 40 41
M  V30 41 1 40 42
M  V30 42 1 42 43
M  V30 43 2 43 44
M  V30 44 1 43 45
M  V30 45 1 43 46
M  V30 46 1 39 47
M  V30 47 1 47 48
M  V30 48 2 48 49
M  V30 49 1 48 50
M  V30 50 1 50 51
M  V30 51 1 51 52
M  V30 52 1 50 53
M  V30 53 1 53 54
M  V30 54 2 54 55
M  V30 55 1 54 56
M  V30 56 1 56 57
M  V30 57 1 57 58
M  V30 58 2 58 59
M  V30 59 1 59 60
M  V30 60 1 60 61
M  V30 61 2 61 62
M  V30 62 1 56 63
M  V30 63 1 63 64
M  V30 64 2 64 65
M  V30 65 1 64 5
M  V30 66 1 26 18
M  V30 67 1 62 58
M  V30 68 1 26 21
M  V30 69 1 1 66
M  V30 70 1 1 67
M  V30 71 1 1 68
M  V30 72 1 2 69
M  V30 73 1 3 70
M  V30 74 1 3 71
M  V30 75 1 3 72
M  V30 76 1 4 73
M  V30 77 1 4 74
M  V30 78 1 5 75 CFG=1
M  V30 79 1 6 76
M  V30 80 1 9 77
M  V30 81 1 9 78
M  V30 82 1 11 79
M  V30 83 1 11 80
M  V30 84 1 12 81
M  V30 85 1 12 82
M  V30 86 1 15 83
M  V30 87 1 16 84
M  V30 88 1 16 85
M  V30 89 1 17 86
M  V30 90 1 17 87
M  V30 91 1 19 88
M  V30 92 1 20 89
M  V30 93 1 22 90
M  V30 94 1 23 91
M  V30 95 1 24 92
M  V30 96 1 25 93
M  V30 97 1 29 94
M  V30 98 1 29 95
M  V30 99 1 31 96
M  V30 100 1 31 97
M  V30 101 1 32 98 CFG=1
M  V30 102 1 34 99
M  V30 103 1 34 100
M  V30 104 1 36 101
M  V30 105 1 39 102 CFG=3
M  V30 106 1 40 103 CFG=1
M  V30 107 1 41 104
M  V30 108 1 41 105
M  V30 109 1 41 106
M  V30 110 1 45 107
M  V30 111 1 46 108
M  V30 112 1 47 109
M  V30 113 1 50 110 CFG=1
M  V30 114 1 51 111
M  V30 115 1 51 112
M  V30 116 1 52 113
M  V30 117 1 53 114
M  V30 118 1 56 115 CFG=1
M  V30 119 1 57 116
M  V30 120 1 57 117
M  V30 121 1 59 118
M  V30 122 1 60 119
M  V30 123 1 61 120
M  V30 124 1 63 121
M  V30 END BOND
M  V30 END CTAB
M  END
>  <Dataset>  (799) 
ChEMBL_Kinases

>  <Ligand_Instance>  (799) 
nan

>  <PDB_ID>  (799) 
nan

>  <Standardized_SMILES>  (799) 
CC(C)C[C@@H]1NC(=O)CN(CCC(=O)NCCc2c[nH]c3ccccc23)C(=O)CSC[C@H](C(N)=O)NC(=O)[C@H]([C@@H](C)OP(=O)(O)O)NC(=O)[C@H](CO)NC(=O)[C@H](Cc2c[nH]cn2)NC1=O

>  <Name>  (799) 
nan

>  <Pocket>  (799) 
nan

>  <ATP_Site>  (799) 
nan

>  <Peripheral>  (799) 
nan

>  <Num_H_Atoms_ProtBoundConf>  (799) 
nan

>  <Num_Resolved_Atoms>  (799) 
nan

>  <Num_Not_Resolved_Atoms>  (799) 
nan

$$$$
CHEMBL2380653
     RDKit          3D

  0  0  0  0  0  0  0  0  0  0999 V3000
M  V30 BEGIN CTAB
M  V30 COUNTS 111 114 0 0 0
M  V30 BEGIN ATOM
M  V30 1 C 7.270119 2.614885 0.350982 0
M  V30 2 C 6.851829 1.189117 -0.054064 0
M  V30 3 C 6.429132 1.401003 -1.572192 0
M  V30 4 C 5.650837 0.632237 0.628126 0
M  V30 5 C 4.378985 1.225048 0.272848 0 CFG=2
M  V30 6 N 4.028707 2.493687 0.603839 0
M  V30 7 C 2.939199 3.194845 0.349404 0
M  V30 8 O 1.980148 2.760526 -0.230604 0
M  V30 9 C 2.018120 4.328257 0.309630 0
M  V30 10 N 0.792683 4.036202 -0.371452 0
M  V30 11 C -0.029922 4.831848 0.448850 0
M  V30 12 C -0.654306 4.824251 1.661397 0
M  V30 13 C -1.573005 3.895433 2.157043 0
M  V30 14 C -2.793906 3.404557 1.879722 0
M  V30 15 N -3.400547 2.495160 2.492755 0
M  V30 16 C -2.462673 2.227393 3.474467 0
M  V30 17 C -2.329147 1.436683 4.586426 0
M  V30 18 C -1.401536 1.283125 5.523816 0
M  V30 19 C -0.259930 2.110523 5.322536 0
M  V30 20 C -0.220089 2.964519 4.252127 0
M  V30 21 C -1.311268 3.056388 3.341407 0
M  V30 22 C 0.063346 3.807027 -1.562624 0
M  V30 23 O 1.035752 4.324352 -2.099134 0
M  V30 24 C -0.787092 3.517526 -2.688424 0
M  V30 25 S 0.145310 2.750174 -4.074062 0
M  V30 26 C 0.550655 0.998922 -3.802664 0
M  V30 27 C -0.193801 -0.053507 -4.586374 0 CFG=2
M  V30 28 C -1.286706 0.412660 -5.315342 0
M  V30 29 N -1.270989 1.270770 -6.388885 0
M  V30 30 O -1.406769 -0.365984 -4.350074 0
M  V30 31 N -0.713047 -0.896495 -3.386234 0
M  V30 32 C -1.055935 -2.238009 -3.696377 0
M  V30 33 O -0.666168 -2.858132 -4.699632 0
M  V30 34 C -1.811958 -3.331430 -3.151853 0 CFG=2
M  V30 35 C -2.639574 -4.290547 -3.749048 0 CFG=1
M  V30 36 C -2.720575 -5.439571 -2.631946 0
M  V30 37 O -3.974288 -3.825046 -3.827568 0
M  V30 38 P -4.982949 -5.088945 -4.311405 0
M  V30 39 O -6.084886 -4.553676 -5.179042 0
M  V30 40 O -5.704361 -5.733402 -2.902406 0
M  V30 41 O -4.179259 -6.288426 -5.174894 0
M  V30 42 N -2.442724 -2.932924 -1.842365 0
M  V30 43 C -2.514323 -1.664366 -1.294669 0
M  V30 44 O -2.736539 -0.703532 -1.983946 0
M  V30 45 C -2.422872 -0.850824 -0.073641 0 CFG=2
M  V30 46 C -3.003720 0.504061 -0.091635 0
M  V30 47 O -4.381245 0.460997 -0.045328 0
M  V30 48 N -0.934867 -0.525862 -0.008552 0
M  V30 49 C 0.051527 -1.450058 0.577082 0
M  V30 50 O -0.521924 -2.516416 0.588735 0
M  V30 51 C 1.385699 -1.124585 0.994731 0 CFG=2
M  V30 52 C 1.312989 -0.828184 2.522870 0
M  V30 53 C 0.888340 -2.084502 3.166290 0
M  V30 54 C 2.007473 -2.913851 3.397518 0
M  V30 55 N 1.414997 -4.062149 3.894421 0
M  V30 56 C 0.119976 -4.001747 3.973093 0
M  V30 57 N -0.224720 -2.772382 3.504102 0
M  V30 58 N 1.979003 -0.138074 0.279684 0
M  V30 59 C 3.292928 0.246029 0.465038 0
M  V30 60 O 3.748323 -0.755846 1.010282 0
M  V30 61 H 7.529386 3.280680 -0.480135 0
M  V30 62 H 6.657679 3.097661 1.113704 0
M  V30 63 H 8.303539 2.505910 0.913641 0
M  V30 64 H 7.707903 0.563953 -0.133529 0
M  V30 65 H 5.980469 0.481645 -1.888803 0
M  V30 66 H 5.748535 2.283255 -1.645547 0
M  V30 67 H 7.328282 1.652473 -2.087870 0
M  V30 68 H 5.879519 1.020944 1.739799 0
M  V30 69 H 5.722673 -0.415187 0.780140 0
M  V30 70 H 4.282212 1.157558 -0.940074 0
M  V30 71 H 4.497292 3.326343 1.003192 0
M  V30 72 H 2.383185 5.248204 -0.041529 0
M  V30 73 H 1.720698 4.434816 1.424560 0
M  V30 74 H 0.186264 5.949534 0.065650 0
M  V30 75 H -1.107071 4.824830 -0.254432 0
M  V30 76 H -1.208908 5.841901 1.760282 0
M  V30 77 H 0.092076 5.035699 2.533902 0
M  V30 78 H -3.261153 3.965547 1.045889 0
M  V30 79 H -4.309699 1.977238 2.544400 0
M  V30 80 H -3.073288 0.675448 4.671481 0
M  V30 81 H -1.389950 0.591930 6.356078 0
M  V30 82 H 0.549646 2.169686 6.005960 0
M  V30 83 H 0.655984 3.618546 4.035487 0
M  V30 84 H -1.566319 2.810983 -2.388126 0
M  V30 85 H -1.293840 4.442543 -3.014300 0
M  V30 86 H 0.177667 0.908253 -2.641446 0
M  V30 87 H 1.630135 0.904989 -3.702430 0
M  V30 88 H 0.467311 -0.762868 -5.087841 0
M  V30 89 H -2.104296 1.806405 -6.661718 0
M  V30 90 H -0.391875 1.424745 -6.845230 0
M  V30 91 H -0.711490 -0.749096 -2.405593 0
M  V30 92 H -0.871963 -3.930168 -2.661073 0
M  V30 93 H -2.357492 -4.832858 -4.586198 0
M  V30 94 H -3.109503 -5.030872 -1.706513 0
M  V30 95 H -1.702249 -5.828268 -2.579174 0
M  V30 96 H -3.363495 -6.210992 -2.997890 0
M  V30 97 H -5.619359 -5.125530 -2.119004 0
M  V30 98 H -4.462196 -7.197632 -4.943768 0
M  V30 99 H -2.971292 -3.260864 -0.982859 0
M  V30 100 H -2.638869 -1.457770 0.805347 0
M  V30 101 H -2.845116 0.877255 -1.190959 0
M  V30 102 H -2.468381 1.259785 0.447550 0
M  V30 103 H -4.775562 1.310784 -0.292963 0
M  V30 104 H -0.402652 0.316530 -0.218029 0
M  V30 105 H 2.027793 -2.048501 1.034057 0
M  V30 106 H 2.168786 -0.398664 2.869857 0
M  V30 107 H 0.374557 -0.143299 2.651937 0
M  V30 108 H 3.101665 -2.899765 3.368711 0
M  V30 109 H 1.827084 -5.019575 4.218279 0
M  V30 110 H -0.701838 -4.614773 4.217262 0
M  V30 111 H 1.542099 0.386820 -0.485646 0
M  V30 END ATOM
M  V30 BEGIN BOND
M  V30 1 1 1 2
M  V30 2 1 2 3
M  V30 3 1 2 4
M  V30 4 1 4 5
M  V30 5 1 5 6
M  V30 6 1 6 7
M  V30 7 2 7 8
M  V30 8 1 7 9
M  V30 9 1 9 10
M  V30 10 1 10 11
M  V30 11 1 11 12
M  V30 12 1 12 13
M  V30 13 2 13 14
M  V30 14 1 14 15
M  V30 15 1 15 16
M  V30 16 2 16 17
M  V30 17 1 17 18
M  V30 18 2 18 19
M  V30 19 1 19 20
M  V30 20 2 20 21
M  V30 21 1 10 22
M  V30 22 2 22 23
M  V30 23 1 22 24
M  V30 24 1 24 25
M  V30 25 1 25 26
M  V30 26 1 26 27
M  V30 27 1 27 28
M  V30 28 1 28 29
M  V30 29 2 28 30
M  V30 30 1 27 31
M  V30 31 1 31 32
M  V30 32 2 32 33
M  V30 33 1 32 34
M  V30 34 1 34 35
M  V30 35 1 35 36
M  V30 36 1 35 37
M  V30 37 1 37 38
M  V30 38 2 38 39
M  V30 39 1 38 40
M  V30 40 1 38 41
M  V30 41 1 34 42
M  V30 42 1 42 43
M  V30 43 2 43 44
M  V30 44 1 43 45
M  V30 45 1 45 46
M  V30 46 1 46 47
M  V30 47 1 45 48
M  V30 48 1 48 49
M  V30 49 2 49 50
M  V30 50 1 49 51
M  V30 51 1 51 52
M  V30 52 1 52 53
M  V30 53 2 53 54
M  V30 54 1 54 55
M  V30 55 1 55 56
M  V30 56 2 56 57
M  V30 57 1 51 58
M  V30 58 1 58 59
M  V30 59 2 59 60
M  V30 60 1 59 5
M  V30 61 1 21 13
M  V30 62 1 57 53
M  V30 63 1 21 16
M  V30 64 1 1 61
M  V30 65 1 1 62
M  V30 66 1 1 63
M  V30 67 1 2 64
M  V30 68 1 3 65
M  V30 69 1 3 66
M  V30 70 1 3 67
M  V30 71 1 4 68
M  V30 72 1 4 69
M  V30 73 1 5 70 CFG=3
M  V30 74 1 6 71
M  V30 75 1 9 72
M  V30 76 1 9 73
M  V30 77 1 11 74
M  V30 78 1 11 75
M  V30 79 1 12 76
M  V30 80 1 12 77
M  V30 81 1 14 78
M  V30 82 1 15 79
M  V30 83 1 17 80
M  V30 84 1 18 81
M  V30 85 1 19 82
M  V30 86 1 20 83
M  V30 87 1 24 84
M  V30 88 1 24 85
M  V30 89 1 26 86
M  V30 90 1 26 87
M  V30 91 1 27 88 CFG=3
M  V30 92 1 29 89
M  V30 93 1 29 90
M  V30 94 1 31 91
M  V30 95 1 34 92 CFG=1
M  V30 96 1 35 93 CFG=3
M  V30 97 1 36 94
M  V30 98 1 36 95
M  V30 99 1 36 96
M  V30 100 1 40 97
M  V30 101 1 41 98
M  V30 102 1 42 99
M  V30 103 1 45 100 CFG=1
M  V30 104 1 46 101
M  V30 105 1 46 102
M  V30 106 1 47 103
M  V30 107 1 48 104
M  V30 108 1 51 105 CFG=1
M  V30 109 1 52 106
M  V30 110 1 52 107
M  V30 111 1 54 108
M  V30 112 1 55 109
M  V30 113 1 56 110
M  V30 114 1 58 111
M  V30 END BOND
M  V30 END CTAB
M  END
>  <Dataset>  (800) 
ChEMBL_Kinases

>  <Ligand_Instance>  (800) 
nan

>  <PDB_ID>  (800) 
nan

>  <Standardized_SMILES>  (800) 
CC(C)C[C@@H]1NC(=O)CN(CCc2c[nH]c3ccccc23)C(=O)CSC[C@H](C(N)=O)NC(=O)[C@H]([C@@H](C)OP(=O)(O)O)NC(=O)[C@H](CO)NC(=O)[C@H](Cc2c[nH]cn2)NC1=O

>  <Name>  (800) 
nan

>  <Pocket>  (800) 
nan

>  <ATP_Site>  (800) 
nan

>  <Peripheral>  (800) 
nan

>  <Num_H_Atoms_ProtBoundConf>  (800) 
nan

>  <Num_Resolved_Atoms>  (800) 
nan

>  <Num_Not_Resolved_Atoms>  (800) 
nan

$$$$
CHEMBL2381103
     RDKit          3D

  0  0  0  0  0  0  0  0  0  0999 V3000
M  V30 BEGIN CTAB
M  V30 COUNTS 58 62 0 0 0
M  V30 BEGIN ATOM
M  V30 1 C 0.474628 2.414299 2.825619 0
M  V30 2 N 1.593717 1.741637 2.200072 0
M  V30 3 N 2.185906 0.699415 2.787147 0
M  V30 4 C 3.179215 0.246445 2.006827 0
M  V30 5 C 4.075520 -0.867436 2.259616 0
M  V30 6 C 3.985018 -1.617209 3.403967 0
M  V30 7 C 4.703923 -2.689712 3.853611 0
M  V30 8 C 5.715602 -3.059616 2.936602 0
M  V30 9 C 5.899525 -2.362826 1.733198 0
M  V30 10 C 5.073091 -1.282554 1.425396 0
M  V30 11 C 3.160536 1.070935 0.907698 0
M  V30 12 C 2.157490 2.029004 1.015253 0
M  V30 13 N 1.815800 3.060557 0.102885 0
M  V30 14 C 0.492569 2.761791 -0.460766 0
M  V30 15 N -0.269385 1.945201 -0.233307 0
M  V30 16 C -1.456488 1.771203 -0.834457 0
M  V30 17 C -2.303853 0.666983 -0.392336 0
M  V30 18 O -2.060159 -0.134487 0.561889 0
M  V30 19 N -3.565780 0.245194 -0.913806 0
M  V30 20 C -3.824834 -0.869570 -0.031935 0
M  V30 21 C -4.610715 -0.492659 1.032899 0
M  V30 22 C -4.907060 -1.476574 1.982041 0
M  V30 23 C -4.392192 -2.721912 1.769045 0
M  V30 24 C -3.609865 -3.043863 0.683015 0
M  V30 25 C -3.290086 -2.109914 -0.279481 0
M  V30 26 N -2.503567 -2.473344 -1.383510 0
M  V30 27 C -1.771531 -3.723993 -1.431297 0
M  V30 28 C -0.313740 -3.353369 -1.174114 0
M  V30 29 N -0.020002 -2.007969 -1.604822 0
M  V30 30 C -0.773067 -1.553827 -2.735571 0
M  V30 31 C -2.262946 -1.782630 -2.630182 0
M  V30 32 C -1.815068 2.693163 -1.864969 0
M  V30 33 S -0.268860 3.795557 -1.842266 0
M  V30 34 H -0.430474 1.728322 2.793631 0
M  V30 35 H 0.202977 3.331920 2.282415 0
M  V30 36 H 0.659390 2.674108 3.878170 0
M  V30 37 H 3.184605 -1.309957 4.101185 0
M  V30 38 H 4.543164 -3.206545 4.776570 0
M  V30 39 H 6.365326 -3.904856 3.175337 0
M  V30 40 H 6.692326 -2.687426 1.062385 0
M  V30 41 H 5.232022 -0.748777 0.482597 0
M  V30 42 H 3.828248 0.998088 0.074664 0
M  V30 43 H 2.281347 3.911064 -0.214033 0
M  V30 44 H -3.909876 0.846650 -1.729615 0
M  V30 45 H -5.013326 0.487824 1.189731 0
M  V30 46 H -5.523016 -1.216433 2.835364 0
M  V30 47 H -4.668311 -3.434951 2.554468 0
M  V30 48 H -3.314655 -4.077133 0.715597 0
M  V30 49 H -2.125945 -4.496833 -0.756645 0
M  V30 50 H -1.752855 -4.169958 -2.472794 0
M  V30 51 H 0.394790 -4.103955 -1.587268 0
M  V30 52 H -0.186609 -3.411078 -0.051546 0
M  V30 53 H -0.031985 -1.391570 -0.785147 0
M  V30 54 H -0.390475 -2.093946 -3.631939 0
M  V30 55 H -0.578932 -0.464836 -2.838485 0
M  V30 56 H -2.853625 -0.897108 -2.819679 0
M  V30 57 H -2.584101 -2.510749 -3.441389 0
M  V30 58 H -2.768744 2.592360 -2.380270 0
M  V30 END ATOM
M  V30 BEGIN BOND
M  V30 1 1 1 2
M  V30 2 1 2 3
M  V30 3 2 3 4
M  V30 4 1 4 5
M  V30 5 2 5 6
M  V30 6 1 6 7
M  V30 7 2 7 8
M  V30 8 1 8 9
M  V30 9 2 9 10
M  V30 10 1 4 11
M  V30 11 2 11 12
M  V30 12 1 12 13
M  V30 13 1 13 14
M  V30 14 2 14 15
M  V30 15 1 15 16
M  V30 16 1 16 17
M  V30 17 2 17 18
M  V30 18 1 17 19
M  V30 19 1 19 20
M  V30 20 2 20 21
M  V30 21 1 21 22
M  V30 22 2 22 23
M  V30 23 1 23 24
M  V30 24 2 24 25
M  V30 25 1 25 26
M  V30 26 1 26 27
M  V30 27 1 27 28
M  V30 28 1 28 29
M  V30 29 1 29 30
M  V30 30 1 30 31
M  V30 31 2 16 32
M  V30 32 1 32 33
M  V30 33 1 12 2
M  V30 34 1 33 14
M  V30 35 1 10 5
M  V30 36 1 25 20
M  V30 37 1 31 26
M  V30 38 1 1 34
M  V30 39 1 1 35
M  V30 40 1 1 36
M  V30 41 1 6 37
M  V30 42 1 7 38
M  V30 43 1 8 39
M  V30 44 1 9 40
M  V30 45 1 10 41
M  V30 46 1 11 42
M  V30 47 1 13 43
M  V30 48 1 19 44
M  V30 49 1 21 45
M  V30 50 1 22 46
M  V30 51 1 23 47
M  V30 52 1 24 48
M  V30 53 1 27 49
M  V30 54 1 27 50
M  V30 55 1 28 51
M  V30 56 1 28 52
M  V30 57 1 29 53
M  V30 58 1 30 54
M  V30 59 1 30 55
M  V30 60 1 31 56
M  V30 61 1 31 57
M  V30 62 1 32 58
M  V30 END BOND
M  V30 END CTAB
M  END
>  <Dataset>  (801) 
ChEMBL_Kinases

>  <Ligand_Instance>  (801) 
nan

>  <PDB_ID>  (801) 
nan

>  <Standardized_SMILES>  (801) 
Cn1nc(-c2ccccc2)cc1Nc1nc(C(=O)Nc2ccccc2N2CCNCC2)cs1

>  <Name>  (801) 
nan

>  <Pocket>  (801) 
nan

>  <ATP_Site>  (801) 
nan

>  <Peripheral>  (801) 
nan

>  <Num_H_Atoms_ProtBoundConf>  (801) 
nan

>  <Num_Resolved_Atoms>  (801) 
nan

>  <Num_Not_Resolved_Atoms>  (801) 
nan

$$$$
CHEMBL2380764
     RDKit          3D

  0  0  0  0  0  0  0  0  0  0999 V3000
M  V30 BEGIN CTAB
M  V30 COUNTS 169 173 0 0 0
M  V30 BEGIN ATOM
M  V30 1 C 0.869770 -4.152204 -2.954197 0
M  V30 2 C 0.363522 -4.126040 -1.566559 0
M  V30 3 O -0.748391 -3.537198 -1.433743 0
M  V30 4 N 1.041465 -4.704793 -0.471128 0
M  V30 5 C 0.547553 -4.628106 0.769854 0
M  V30 6 C 1.335279 -5.294566 1.719119 0
M  V30 7 C 1.014930 -5.457937 3.203168 0
M  V30 8 C -0.526923 -5.159217 3.253819 0
M  V30 9 N -1.110175 -6.113843 2.266004 0
M  V30 10 C -2.389141 -5.574442 2.138402 0
M  V30 11 O -2.831505 -4.586281 2.834482 0
M  V30 12 C -3.524962 -5.961698 1.145657 0
M  V30 13 C -4.022071 -4.562619 0.877112 0
M  V30 14 C -4.618877 -4.287779 -0.448391 0
M  V30 15 C -4.835073 -2.742399 -0.448919 0
M  V30 16 C -5.541184 -2.360445 -1.658460 0
M  V30 17 N -5.596149 -0.949412 -1.928761 0
M  V30 18 C -4.998496 -0.574984 -3.251363 0
M  V30 19 C -3.651938 -0.047765 -2.905903 0
M  V30 20 O -4.050281 -0.247745 -1.806456 0
M  V30 21 N -2.438032 0.447150 -3.614141 0
M  V30 22 C -1.603159 0.873326 -2.496463 0 CFG=1
M  V30 23 C -1.086499 -0.414167 -1.796942 0
M  V30 24 C -0.239655 -0.185525 -0.626054 0
M  V30 25 C -0.827422 0.624274 0.478585 0
M  V30 26 C 1.208175 0.157605 -0.828257 0
M  V30 27 C -0.439217 1.633870 -2.788396 0
M  V30 28 O 0.517623 1.080025 -3.336281 0
M  V30 29 N 0.060050 2.959563 -2.663076 0
M  V30 30 C 1.432651 3.464472 -2.761411 0 CFG=1
M  V30 31 C 1.956272 4.096941 -3.943823 0
M  V30 32 C 2.097437 3.221405 -5.127685 0
M  V30 33 C 1.315882 2.928442 -6.269187 0
M  V30 34 N 2.099023 2.150387 -6.992920 0
M  V30 35 C 3.277001 1.923080 -6.424038 0
M  V30 36 N 3.329525 2.587087 -5.238931 0
M  V30 37 C 4.409164 2.535042 -4.327500 0
M  V30 38 C 4.715986 1.292762 -3.596315 0
M  V30 39 C 5.319306 0.182461 -4.475897 0
M  V30 40 C 5.764957 -0.974954 -3.609719 0
M  V30 41 C 4.681488 -1.688677 -2.910243 0
M  V30 42 C 5.266506 -2.666956 -1.844626 0
M  V30 43 C 5.820247 -1.759262 -0.811020 0
M  V30 44 C 6.527529 -2.320918 0.385772 0
M  V30 45 C 6.880538 -1.066325 1.182270 0
M  V30 46 C 8.052451 -0.481632 0.760799 0
M  V30 47 C 8.419561 0.710734 1.347383 0
M  V30 48 C 7.591894 1.252828 2.330814 0
M  V30 49 C 6.441364 0.631216 2.710297 0
M  V30 50 C 6.028893 -0.580318 2.140524 0
M  V30 51 C 1.694271 4.007419 -1.409636 0
M  V30 52 O 2.825784 4.150892 -0.898044 0
M  V30 53 N 0.853745 4.504954 -0.376627 0
M  V30 54 C 1.145443 4.813957 0.993444 0 CFG=1
M  V30 55 C 1.956889 6.046357 1.265403 0
M  V30 56 O 2.105708 6.088781 2.661414 0
M  V30 57 C -0.021706 4.771577 1.875433 0
M  V30 58 O 0.176086 5.021495 3.079521 0
M  V30 59 N -1.351885 4.596427 2.223680 0
M  V30 60 C -2.619054 4.481715 2.807636 0 CFG=1
M  V30 61 C -3.791272 5.129816 2.133839 0 CFG=1
M  V30 62 C -4.132457 4.454189 0.770638 0
M  V30 63 O -4.860676 4.825711 3.008153 0
M  V30 64 P -6.263660 5.590025 2.825998 0
M  V30 65 O -6.852514 5.892827 4.213820 0
M  V30 66 O -7.403201 4.500978 2.109559 0
M  V30 67 O -6.276779 7.039958 1.952049 0
M  V30 68 C -3.000873 3.015162 2.954663 0
M  V30 69 O -2.101002 2.318917 2.560690 0
M  V30 70 N -4.031539 2.137951 3.390792 0
M  V30 71 C -3.883178 0.647313 3.408686 0 CFG=1
M  V30 72 C -3.919256 0.474143 4.946675 0
M  V30 73 N -3.738925 -0.712993 5.678859 0
M  V30 74 O -4.140897 1.623742 5.361993 0
M  V30 75 C -5.138602 -0.019030 2.888562 0
M  V30 76 S -5.932211 0.786159 1.552102 0
M  V30 77 C -6.955319 -0.161486 0.440316 0
M  V30 78 C -6.293671 -0.269977 -0.914902 0
M  V30 79 O -6.335990 0.731451 -1.611007 0
M  V30 80 C 2.390601 -5.811444 0.991395 0
M  V30 81 C 3.481872 -6.559612 1.361308 0
M  V30 82 C 4.360199 -6.937461 0.397003 0
M  V30 83 C 4.125352 -6.557160 -0.884006 0
M  V30 84 C 3.041880 -5.798131 -1.308067 0
M  V30 85 C 2.164355 -5.426563 -0.324243 0
M  V30 86 H 0.875730 -5.220671 -3.312331 0
M  V30 87 H 0.114764 -3.681623 -3.659906 0
M  V30 88 H 1.794918 -3.600291 -3.103427 0
M  V30 89 H -0.334589 -4.097829 1.015450 0
M  V30 90 H 1.262378 -6.442665 3.533558 0
M  V30 91 H 1.514883 -4.652177 3.730377 0
M  V30 92 H -0.666674 -4.120515 2.944209 0
M  V30 93 H -0.845339 -5.398810 4.256787 0
M  V30 94 H -1.003228 -6.928538 1.662460 0
M  V30 95 H -4.258430 -6.563471 1.705629 0
M  V30 96 H -3.145104 -6.423795 0.265368 0
M  V30 97 H -3.420987 -3.727429 1.241982 0
M  V30 98 H -4.966891 -4.472383 1.628606 0
M  V30 99 H -3.754293 -4.440315 -1.228906 0
M  V30 100 H -5.473857 -4.856542 -0.697553 0
M  V30 101 H -3.921784 -2.303094 -0.117664 0
M  V30 102 H -5.645855 -2.701397 0.394771 0
M  V30 103 H -4.958616 -2.868629 -2.548613 0
M  V30 104 H -6.543379 -2.812141 -1.711361 0
M  V30 105 H -5.560404 0.284879 -3.704392 0
M  V30 106 H -5.054818 -1.409757 -3.919860 0
M  V30 107 H -3.008578 0.153828 -4.412295 0
M  V30 108 H -2.266201 1.302631 -1.717570 0
M  V30 109 H -1.944041 -1.011367 -1.507759 0
M  V30 110 H -0.464807 -0.919150 -2.583687 0
M  V30 111 H -0.160617 -1.257180 -0.146643 0
M  V30 112 H -0.660959 1.732417 0.354490 0
M  V30 113 H -1.872627 0.398579 0.656546 0
M  V30 114 H -0.292151 0.361226 1.415713 0
M  V30 115 H 1.334612 1.234394 -0.799556 0
M  V30 116 H 1.733669 -0.400192 -1.612873 0
M  V30 117 H 1.757549 -0.188415 0.126954 0
M  V30 118 H -0.861454 3.406409 -2.516014 0
M  V30 119 H 2.083202 2.466167 -2.702655 0
M  V30 120 H 2.875603 4.642958 -3.727497 0
M  V30 121 H 1.257489 4.973967 -4.305136 0
M  V30 122 H 0.326068 3.357003 -6.363200 0
M  V30 123 H 3.966513 1.319394 -6.924280 0
M  V30 124 H 5.348697 2.719694 -4.967678 0
M  V30 125 H 4.445667 3.438883 -3.651334 0
M  V30 126 H 3.729381 0.819466 -3.242859 0
M  V30 127 H 5.286486 1.406941 -2.678233 0
M  V30 128 H 6.223899 0.564096 -4.971403 0
M  V30 129 H 4.630841 -0.219448 -5.221124 0
M  V30 130 H 6.670521 -0.735080 -3.076523 0
M  V30 131 H 6.143265 -1.755099 -4.399929 0
M  V30 132 H 4.126798 -2.359342 -3.620261 0
M  V30 133 H 4.006919 -1.018744 -2.365107 0
M  V30 134 H 6.030706 -3.299742 -2.366023 0
M  V30 135 H 4.463271 -3.304583 -1.504453 0
M  V30 136 H 6.417718 -0.947853 -1.273388 0
M  V30 137 H 4.884201 -1.218970 -0.393494 0
M  V30 138 H 5.883549 -2.945004 1.024475 0
M  V30 139 H 7.442340 -2.876015 0.172255 0
M  V30 140 H 8.710902 -0.871989 0.007818 0
M  V30 141 H 9.315560 1.218512 1.092785 0
M  V30 142 H 7.828399 2.186692 2.810019 0
M  V30 143 H 5.748414 1.014945 3.466525 0
M  V30 144 H 5.126017 -1.142007 2.403698 0
M  V30 145 H -0.029007 4.594222 -0.883936 0
M  V30 146 H 1.859377 3.955836 1.319774 0
M  V30 147 H 3.010490 5.793128 0.914525 0
M  V30 148 H 1.570521 6.975076 0.843760 0
M  V30 149 H 2.621295 5.270234 2.895822 0
M  V30 150 H -1.554125 4.350384 1.232304 0
M  V30 151 H -2.637310 4.855350 3.868378 0
M  V30 152 H -3.772189 6.185471 1.956707 0
M  V30 153 H -5.244567 4.340046 0.707518 0
M  V30 154 H -3.844175 5.148786 -0.012347 0
M  V30 155 H -3.684667 3.477511 0.689450 0
M  V30 156 H -8.163853 4.389188 2.695922 0
M  V30 157 H -7.241266 7.334294 1.910520 0
M  V30 158 H -4.781963 2.751913 3.660500 0
M  V30 159 H -2.953270 0.340327 3.002070 0
M  V30 160 H -3.425602 -1.556134 6.241834 0
M  V30 161 H -4.159747 -1.608690 6.119229 0
M  V30 162 H -5.860541 -0.198648 3.757582 0
M  V30 163 H -4.821874 -1.063837 2.593590 0
M  V30 164 H -7.890981 0.422439 0.284781 0
M  V30 165 H -7.273309 -1.126185 0.808738 0
M  V30 166 H 3.529339 -6.807974 2.443645 0
M  V30 167 H 5.216949 -7.511956 0.698751 0
M  V30 168 H 4.834057 -6.851398 -1.677981 0
M  V30 169 H 2.935903 -5.548217 -2.356740 0
M  V30 END ATOM
M  V30 BEGIN BOND
M  V30 1 1 1 2
M  V30 2 2 2 3
M  V30 3 1 2 4
M  V30 4 1 4 5
M  V30 5 2 5 6
M  V30 6 1 6 7
M  V30 7 1 7 8
M  V30 8 1 8 9
M  V30 9 1 9 10
M  V30 10 2 10 11
M  V30 11 1 10 12
M  V30 12 1 12 13
M  V30 13 1 13 14
M  V30 14 1 14 15
M  V30 15 1 15 16
M  V30 16 1 16 17
M  V30 17 1 17 18
M  V30 18 1 18 19
M  V30 19 2 19 20
M  V30 20 1 19 21
M  V30 21 1 21 22
M  V30 22 1 22 23
M  V30 23 1 23 24
M  V30 24 1 24 25
M  V30 25 1 24 26
M  V30 26 1 22 27
M  V30 27 2 27 28
M  V30 28 1 27 29
M  V30 29 1 29 30
M  V30 30 1 30 31
M  V30 31 1 31 32
M  V30 32 2 32 33
M  V30 33 1 33 34
M  V30 34 2 34 35
M  V30 35 1 35 36
M  V30 36 1 36 37
M  V30 37 1 37 38
M  V30 38 1 38 39
M  V30 39 1 39 40
M  V30 40 1 40 41
M  V30 41 1 41 42
M  V30 42 1 42 43
M  V30 43 1 43 44
M  V30 44 1 44 45
M  V30 45 2 45 46
M  V30 46 1 46 47
M  V30 47 2 47 48
M  V30 48 1 48 49
M  V30 49 2 49 50
M  V30 50 1 30 51
M  V30 51 2 51 52
M  V30 52 1 51 53
M  V30 53 1 53 54
M  V30 54 1 54 55
M  V30 55 1 55 56
M  V30 56 1 54 57
M  V30 57 2 57 58
M  V30 58 1 57 59
M  V30 59 1 59 60
M  V30 60 1 60 61
M  V30 61 1 61 62
M  V30 62 1 61 63
M  V30 63 1 63 64
M  V30 64 2 64 65
M  V30 65 1 64 66
M  V30 66 1 64 67
M  V30 67 1 60 68
M  V30 68 2 68 69
M  V30 69 1 68 70
M  V30 70 1 70 71
M  V30 71 1 71 72
M  V30 72 1 72 73
M  V30 73 2 72 74
M  V30 74 1 71 75
M  V30 75 1 75 76
M  V30 76 1 76 77
M  V30 77 1 77 78
M  V30 78 2 78 79
M  V30 79 1 6 80
M  V30 80 2 80 81
M  V30 81 1 81 82
M  V30 82 2 82 83
M  V30 83 1 83 84
M  V30 84 2 84 85
M  V30 85 1 85 4
M  V30 86 1 78 17
M  V30 87 1 85 80
M  V30 88 1 36 32
M  V30 89 1 50 45
M  V30 90 1 1 86
M  V30 91 1 1 87
M  V30 92 1 1 88
M  V30 93 1 5 89
M  V30 94 1 7 90
M  V30 95 1 7 91
M  V30 96 1 8 92
M  V30 97 1 8 93
M  V30 98 1 9 94
M  V30 99 1 12 95
M  V30 100 1 12 96
M  V30 101 1 13 97
M  V30 102 1 13 98
M  V30 103 1 14 99
M  V30 104 1 14 100
M  V30 105 1 15 101
M  V30 106 1 15 102
M  V30 107 1 16 103
M  V30 108 1 16 104
M  V30 109 1 18 105
M  V30 110 1 18 106
M  V30 111 1 21 107
M  V30 112 1 22 108 CFG=1
M  V30 113 1 23 109
M  V30 114 1 23 110
M  V30 115 1 24 111
M  V30 116 1 25 112
M  V30 117 1 25 113
M  V30 118 1 25 114
M  V30 119 1 26 115
M  V30 120 1 26 116
M  V30 121 1 26 117
M  V30 122 1 29 118
M  V30 123 1 30 119 CFG=1
M  V30 124 1 31 120
M  V30 125 1 31 121
M  V30 126 1 33 122
M  V30 127 1 35 123
M  V30 128 1 37 124
M  V30 129 1 37 125
M  V30 130 1 38 126
M  V30 131 1 38 127
M  V30 132 1 39 128
M  V30 133 1 39 129
M  V30 134 1 40 130
M  V30 135 1 40 131
M  V30 136 1 41 132
M  V30 137 1 41 133
M  V30 138 1 42 134
M  V30 139 1 42 135
M  V30 140 1 43 136
M  V30 141 1 43 137
M  V30 142 1 44 138
M  V30 143 1 44 139
M  V30 144 1 46 140
M  V30 145 1 47 141
M  V30 146 1 48 142
M  V30 147 1 49 143
M  V30 148 1 50 144
M  V30 149 1 53 145
M  V30 150 1 54 146 CFG=1
M  V30 151 1 55 147
M  V30 152 1 55 148
M  V30 153 1 56 149
M  V30 154 1 59 150
M  V30 155 1 60 151 CFG=1
M  V30 156 1 61 152 CFG=3
M  V30 157 1 62 153
M  V30 158 1 62 154
M  V30 159 1 62 155
M  V30 160 1 66 156
M  V30 161 1 67 157
M  V30 162 1 70 158
M  V30 163 1 71 159 CFG=3
M  V30 164 1 73 160
M  V30 165 1 73 161
M  V30 166 1 75 162
M  V30 167 1 75 163
M  V30 168 1 77 164
M  V30 169 1 77 165
M  V30 170 1 81 166
M  V30 171 1 82 167
M  V30 172 1 83 168
M  V30 173 1 84 169
M  V30 END BOND
M  V30 END CTAB
M  END
>  <Dataset>  (802) 
ChEMBL_Kinases

>  <Ligand_Instance>  (802) 
nan

>  <PDB_ID>  (802) 
nan

>  <Standardized_SMILES>  (802) 
CC(=O)n1cc(CCNC(=O)CCCCCN2CC(=O)N[C@@H](CC(C)C)C(=O)N[C@@H](Cc3cncn3CCCCCCCCc3ccccc3)C(=O)N[C@@H](CO)C(=O)N[C@@H]([C@@H](C)OP(=O)(O)O)C(=O)N[C@@H](C(N)=O)CSCC2=O)c2ccccc21

>  <Name>  (802) 
nan

>  <Pocket>  (802) 
nan

>  <ATP_Site>  (802) 
nan

>  <Peripheral>  (802) 
nan

>  <Num_H_Atoms_ProtBoundConf>  (802) 
nan

>  <Num_Resolved_Atoms>  (802) 
nan

>  <Num_Not_Resolved_Atoms>  (802) 
nan

$$$$
CHEMBL2380765
     RDKit          2D

  0  0  0  0  0  0  0  0  0  0999 V3000
M  V30 BEGIN CTAB
M  V30 COUNTS 97 99 0 0 0
M  V30 BEGIN ATOM
M  V30 1 C 4.134117 1.488584 0.000000 0
M  V30 2 C 5.192129 2.551885 0.000000 0
M  V30 3 C 6.250141 3.615187 0.000000 0
M  V30 4 C 4.128828 3.609898 0.000000 0
M  V30 5 C 3.065526 4.667910 0.000000 0
M  V30 6 N 2.538464 3.263558 0.000000 0
M  V30 7 C 1.620877 2.076951 0.000000 0
M  V30 8 O 2.561306 1.307653 0.000000 0
M  V30 9 C 0.394298 1.213525 0.000000 0
M  V30 10 C 1.275976 0.000000 0.000000 0
M  V30 11 C 0.394298 -1.213525 0.000000 0
M  V30 12 C -1.032286 -0.750000 0.000000 0
M  V30 13 N -1.032286 0.750000 0.000000 0
M  V30 14 C -2.532119 0.727561 0.000000 0
M  V30 15 O -2.913156 -0.723236 0.000000 0
M  V30 16 C -3.971931 1.148202 0.000000 0
M  V30 17 S -5.223791 1.974547 0.000000 0
M  V30 18 C -6.176465 3.133173 0.000000 0
M  V30 19 C -6.745303 4.521129 0.000000 0
M  V30 20 C -8.162359 5.013016 0.000000 0
M  V30 21 O -9.296874 4.031753 0.000000 0
M  V30 22 O -8.444900 6.486166 0.000000 0
M  V30 23 N -6.879762 6.015091 0.000000 0
M  V30 24 C -6.567895 7.482312 0.000000 0
M  V30 25 O -7.972247 8.009374 0.000000 0
M  V30 26 C -5.837411 8.792424 0.000000 0
M  V30 27 C -6.336359 10.207010 0.000000 0
M  V30 28 C -6.835306 11.621595 0.000000 0
M  V30 29 O -7.750944 9.708063 0.000000 0
M  V30 30 P -8.890337 10.683656 0.000000 0
M  V30 31 O -10.029731 11.659249 0.000000 0
M  V30 32 O -7.914744 11.823050 0.000000 0
M  V30 33 O -9.865931 9.544262 0.000000 0
M  V30 34 N -4.753219 9.829018 0.000000 0
M  V30 35 C -3.411653 10.499988 0.000000 0
M  V30 36 O -3.875178 11.926573 0.000000 0
M  V30 37 C -1.931917 10.745715 0.000000 0
M  V30 38 C -1.137038 12.017787 0.000000 0
M  V30 39 O -0.342159 13.289859 0.000000 0
M  V30 40 N -0.445492 10.544365 0.000000 0
M  V30 41 C 0.915546 9.913829 0.000000 0
M  V30 42 O 1.741891 11.165689 0.000000 0
M  V30 43 C 2.030263 8.910133 0.000000 0
M  V30 44 C 3.520408 9.081796 0.000000 0
M  V30 45 C 5.010553 9.253459 0.000000 0
M  V30 46 C 5.747560 10.559912 0.000000 0
M  V30 47 N 7.217819 10.262693 0.000000 0
M  V30 48 C 7.389481 8.772548 0.000000 0
M  V30 49 N 6.025316 8.148807 0.000000 0
M  V30 50 N 2.799612 7.622460 0.000000 0
M  V30 51 C 3.155232 6.165225 0.000000 0
M  V30 52 O 4.365341 6.274137 0.000000 0
M  V30 53 H 3.277127 0.627310 0.000000 0
M  V30 54 H 5.197418 0.430572 0.000000 0
M  V30 55 H 3.449772 1.897411 0.000000 0
M  V30 56 H 6.255430 1.493873 0.000000 0
M  V30 57 H 7.308154 4.678488 0.000000 0
M  V30 58 H 7.313443 2.557174 0.000000 0
M  V30 59 H 5.741210 4.457529 0.000000 0
M  V30 60 H 3.674576 2.849515 0.000000 0
M  V30 61 H 4.822989 4.307530 0.000000 0
M  V30 62 H 4.062493 5.362375 0.000000 0
M  V30 63 H 3.717565 2.606123 0.000000 0
M  V30 64 H 1.874034 0.967799 0.000000 0
M  V30 65 H 2.504727 0.860332 0.000000 0
M  V30 66 H 2.390693 -1.003696 0.000000 0
M  V30 67 H 1.693336 -1.963525 0.000000 0
M  V30 68 H -0.215807 -2.583844 0.000000 0
M  V30 69 H -1.344154 -2.217221 0.000000 0
M  V30 70 H -2.532057 -0.776219 0.000000 0
M  V30 71 H -5.240024 0.346990 0.000000 0
M  V30 72 H -3.763172 -0.337200 0.000000 0
M  V30 73 H -7.670754 3.002399 0.000000 0
M  V30 74 H -6.840736 1.788278 0.000000 0
M  V30 75 H -7.901575 3.565601 0.000000 0
M  V30 76 H -9.861956 6.978053 0.000000 0
M  V30 77 H -8.310875 6.464443 0.000000 0
M  V30 78 H -7.318341 8.554000 0.000000 0
M  V30 79 H -5.194615 11.179852 0.000000 0
M  V30 80 H -7.334253 13.036181 0.000000 0
M  V30 81 H -8.318528 11.845318 0.000000 0
M  V30 82 H -5.420720 12.120542 0.000000 0
M  V30 83 H -8.413691 13.237635 0.000000 0
M  V30 84 H -11.340471 9.819454 0.000000 0
M  V30 85 H -5.460691 11.151699 0.000000 0
M  V30 86 H -2.910379 11.882646 0.000000 0
M  V30 87 H -2.302732 12.961799 0.000000 0
M  V30 88 H 0.335426 11.731693 0.000000 0
M  V30 89 H -1.046367 14.614281 0.000000 0
M  V30 90 H 0.147519 11.922167 0.000000 0
M  V30 91 H 2.309091 10.383991 0.000000 0
M  V30 92 H 4.214796 7.752200 0.000000 0
M  V30 93 H 3.531668 10.581754 0.000000 0
M  V30 94 H 5.123819 11.924077 0.000000 0
M  V30 95 H 8.695935 8.035541 0.000000 0
M  V30 96 H 5.728097 6.678548 0.000000 0
M  V30 97 H 4.246557 8.017870 0.000000 0
M  V30 END ATOM
M  V30 BEGIN BOND
M  V30 1 1 1 2
M  V30 2 1 2 3
M  V30 3 1 2 4
M  V30 4 1 4 5
M  V30 5 1 5 6
M  V30 6 1 6 7
M  V30 7 2 7 8
M  V30 8 1 7 9
M  V30 9 1 9 10
M  V30 10 1 10 11
M  V30 11 1 11 12
M  V30 12 1 12 13
M  V30 13 1 13 14
M  V30 14 2 14 15
M  V30 15 1 14 16
M  V30 16 1 16 17
M  V30 17 1 17 18
M  V30 18 1 18 19
M  V30 19 1 19 20
M  V30 20 2 20 21
M  V30 21 1 20 22
M  V30 22 1 19 23
M  V30 23 1 23 24
M  V30 24 2 24 25
M  V30 25 1 24 26
M  V30 26 1 26 27
M  V30 27 1 27 28
M  V30 28 1 27 29
M  V30 29 1 29 30
M  V30 30 2 30 31
M  V30 31 1 30 32
M  V30 32 1 30 33
M  V30 33 1 26 34
M  V30 34 1 34 35
M  V30 35 2 35 36
M  V30 36 1 35 37
M  V30 37 1 37 38
M  V30 38 1 38 39
M  V30 39 1 37 40
M  V30 40 1 40 41
M  V30 41 2 41 42
M  V30 42 1 41 43
M  V30 43 1 43 44
M  V30 44 1 44 45
M  V30 45 2 45 46
M  V30 46 1 46 47
M  V30 47 2 47 48
M  V30 48 1 48 49
M  V30 49 1 43 50
M  V30 50 1 50 51
M  V30 51 2 51 52
M  V30 52 1 51 5
M  V30 53 1 13 9
M  V30 54 1 49 45
M  V30 55 1 1 53
M  V30 56 1 1 54
M  V30 57 1 1 55
M  V30 58 1 2 56
M  V30 59 1 3 57
M  V30 60 1 3 58
M  V30 61 1 3 59
M  V30 62 1 4 60
M  V30 63 1 4 61
M  V30 64 1 5 62 CFG=1
M  V30 65 1 6 63
M  V30 66 1 9 64 CFG=1
M  V30 67 1 10 65
M  V30 68 1 10 66
M  V30 69 1 11 67
M  V30 70 1 11 68
M  V30 71 1 12 69
M  V30 72 1 12 70
M  V30 73 1 16 71
M  V30 74 1 16 72
M  V30 75 1 18 73
M  V30 76 1 18 74
M  V30 77 1 19 75 CFG=3
M  V30 78 1 22 76
M  V30 79 1 23 77
M  V30 80 1 26 78 CFG=1
M  V30 81 1 27 79 CFG=1
M  V30 82 1 28 80
M  V30 83 1 28 81
M  V30 84 1 28 82
M  V30 85 1 32 83
M  V30 86 1 33 84
M  V30 87 1 34 85
M  V30 88 1 37 86 CFG=1
M  V30 89 1 38 87
M  V30 90 1 38 88
M  V30 91 1 39 89
M  V30 92 1 40 90
M  V30 93 1 43 91 CFG=1
M  V30 94 1 44 92
M  V30 95 1 44 93
M  V30 96 1 46 94
M  V30 97 1 48 95
M  V30 98 1 49 96
M  V30 99 1 50 97
M  V30 END BOND
M  V30 END CTAB
M  END
>  <Dataset>  (803) 
ChEMBL_Kinases

>  <Ligand_Instance>  (803) 
nan

>  <PDB_ID>  (803) 
nan

>  <Standardized_SMILES>  (803) 
CC(C)C[C@@H]1NC(=O)[C@@H]2CCCN2C(=O)CSC[C@@H](C(=O)O)NC(=O)[C@H]([C@@H](C)OP(=O)(O)O)NC(=O)[C@H](CO)NC(=O)[C@H](Cc2cnc[nH]2)NC1=O

>  <Name>  (803) 
nan

>  <Pocket>  (803) 
nan

>  <ATP_Site>  (803) 
nan

>  <Peripheral>  (803) 
nan

>  <Num_H_Atoms_ProtBoundConf>  (803) 
nan

>  <Num_Resolved_Atoms>  (803) 
nan

>  <Num_Not_Resolved_Atoms>  (803) 
nan

$$$$
CHEMBL2380836
     RDKit          3D

  0  0  0  0  0  0  0  0  0  0999 V3000
M  V30 BEGIN CTAB
M  V30 COUNTS 52 56 0 0 0
M  V30 BEGIN ATOM
M  V30 1 O 0.471201 -2.424801 -2.721594 0
M  V30 2 C 0.273814 -3.409005 -1.936028 0
M  V30 3 N -0.127954 -2.915294 -0.674645 0
M  V30 4 C -0.304455 -1.560589 -0.274593 0
M  V30 5 C 0.643703 -0.722246 0.281791 0
M  V30 6 C 0.305506 0.578492 0.618658 0
M  V30 7 C -0.983693 1.019810 0.391217 0
M  V30 8 N -1.313270 2.403469 0.762054 0
M  V30 9 C -0.562499 3.408035 1.386274 0
M  V30 10 C -0.267120 4.328747 0.360308 0
M  V30 11 C 0.545497 5.434619 0.641464 0
M  V30 12 N 1.058461 5.650878 1.867415 0
M  V30 13 C 0.774477 4.769347 2.862399 0
M  V30 14 N 1.250781 4.938779 4.089506 0
M  V30 15 C 0.995974 4.111694 5.104099 0
M  V30 16 O 1.462489 4.294015 6.252931 0
M  V30 17 C 0.171959 3.011476 4.830696 0
M  V30 18 C -0.133254 2.197409 5.898592 0
M  V30 19 C -0.994507 1.156259 5.635523 0
M  V30 20 C -1.556922 0.890634 4.390235 0
M  V30 21 C -1.162252 1.782485 3.420931 0
M  V30 22 C -0.318499 2.831896 3.574760 0
M  V30 23 C -0.017391 3.700931 2.581516 0
M  V30 24 C -1.970417 0.234014 -0.158941 0
M  V30 25 C -1.583269 -1.054273 -0.477352 0
M  V30 26 C 0.433276 -4.805108 -2.275503 0
M  V30 27 C 0.827135 -4.995315 -3.607335 0
M  V30 28 C 1.026443 -6.262947 -4.108373 0
M  V30 29 C 0.852987 -7.394127 -3.342643 0
M  V30 30 C 1.043181 -8.796708 -3.791193 0
M  V30 31 F 1.345410 -8.905852 -5.125834 0
M  V30 32 F 2.061246 -9.349343 -3.038998 0
M  V30 33 F -0.138457 -9.489064 -3.521008 0
M  V30 34 C 0.468382 -7.214967 -2.041270 0
M  V30 35 C 0.269172 -5.955622 -1.539284 0
M  V30 36 F -0.109782 -5.728685 -0.263267 0
M  V30 37 H -0.339138 -3.549075 0.109764 0
M  V30 38 H 1.618965 -1.161853 0.418325 0
M  V30 39 H 1.059446 1.190471 1.042844 0
M  V30 40 H -2.306437 2.722609 0.525604 0
M  V30 41 H -0.548895 4.380652 -0.684097 0
M  V30 42 H 0.845049 6.204353 -0.041347 0
M  V30 43 H 1.860289 5.777089 4.249623 0
M  V30 44 H 0.294797 2.394482 6.864467 0
M  V30 45 H -1.207339 0.535373 6.507248 0
M  V30 46 H -2.198212 0.043588 4.392273 0
M  V30 47 H -1.726397 1.487870 2.586413 0
M  V30 48 H -2.971481 0.602420 -0.327053 0
M  V30 49 H -2.382712 -1.672574 -0.916930 0
M  V30 50 H 0.998387 -4.181663 -4.318732 0
M  V30 51 H 1.329628 -6.414128 -5.132588 0
M  V30 52 H 0.301037 -8.015202 -1.344633 0
M  V30 END ATOM
M  V30 BEGIN BOND
M  V30 1 2 1 2
M  V30 2 1 2 3
M  V30 3 1 3 4
M  V30 4 2 4 5
M  V30 5 1 5 6
M  V30 6 2 6 7
M  V30 7 1 7 8
M  V30 8 1 8 9
M  V30 9 2 9 10
M  V30 10 1 10 11
M  V30 11 2 11 12
M  V30 12 1 12 13
M  V30 13 1 13 14
M  V30 14 1 14 15
M  V30 15 2 15 16
M  V30 16 1 15 17
M  V30 17 2 17 18
M  V30 18 1 18 19
M  V30 19 2 19 20
M  V30 20 1 20 21
M  V30 21 2 21 22
M  V30 22 1 22 23
M  V30 23 1 7 24
M  V30 24 2 24 25
M  V30 25 1 2 26
M  V30 26 2 26 27
M  V30 27 1 27 28
M  V30 28 2 28 29
M  V30 29 1 29 30
M  V30 30 1 30 31
M  V30 31 1 30 32
M  V30 32 1 30 33
M  V30 33 1 29 34
M  V30 34 2 34 35
M  V30 35 1 35 36
M  V30 36 1 25 4
M  V30 37 1 35 26
M  V30 38 1 23 9
M  V30 39 2 23 13
M  V30 40 1 22 17
M  V30 41 1 3 37
M  V30 42 1 5 38
M  V30 43 1 6 39
M  V30 44 1 8 40
M  V30 45 1 10 41
M  V30 46 1 11 42
M  V30 47 1 14 43
M  V30 48 1 18 44
M  V30 49 1 19 45
M  V30 50 1 20 46
M  V30 51 1 21 47
M  V30 52 1 24 48
M  V30 53 1 25 49
M  V30 54 1 27 50
M  V30 55 1 28 51
M  V30 56 1 34 52
M  V30 END BOND
M  V30 END CTAB
M  END
>  <Dataset>  (804) 
ChEMBL_Kinases

>  <Ligand_Instance>  (804) 
nan

>  <PDB_ID>  (804) 
nan

>  <Standardized_SMILES>  (804) 
O=C(Nc1ccc(Nc2ccnc3[nH]c(=O)c4ccccc4c23)cc1)c1ccc(C(F)(F)F)cc1F

>  <Name>  (804) 
nan

>  <Pocket>  (804) 
nan

>  <ATP_Site>  (804) 
nan

>  <Peripheral>  (804) 
nan

>  <Num_H_Atoms_ProtBoundConf>  (804) 
nan

>  <Num_Resolved_Atoms>  (804) 
nan

>  <Num_Not_Resolved_Atoms>  (804) 
nan

$$$$
CHEMBL2380837
     RDKit          3D

  0  0  0  0  0  0  0  0  0  0999 V3000
M  V30 BEGIN CTAB
M  V30 COUNTS 52 56 0 0 0
M  V30 BEGIN ATOM
M  V30 1 O -0.839834 -3.796560 0.119441 0
M  V30 2 C -0.147054 -3.763289 -0.930191 0
M  V30 3 N 0.328520 -2.542750 -1.473590 0
M  V30 4 C 0.095550 -1.244060 -0.927645 0
M  V30 5 C 0.935998 -0.651608 -0.007093 0
M  V30 6 C 0.601489 0.607291 0.444937 0
M  V30 7 C -0.539114 1.220500 -0.028365 0
M  V30 8 N -0.852981 2.559829 0.484348 0
M  V30 9 C -0.237006 3.377454 1.442011 0
M  V30 10 C 0.384706 4.403155 0.698515 0
M  V30 11 C 1.158327 5.367485 1.352154 0
M  V30 12 N 1.327023 5.340975 2.696311 0
M  V30 13 C 0.736471 4.371140 3.415372 0
M  V30 14 N 0.867387 4.302689 4.736858 0
M  V30 15 C 0.292890 3.362952 5.499233 0
M  V30 16 O 0.440061 3.325555 6.744713 0
M  V30 17 C -0.492193 2.407829 4.837078 0
M  V30 18 C -1.119466 1.487300 5.648856 0
M  V30 19 C -1.938913 0.592633 4.994136 0
M  V30 20 C -2.166481 0.561991 3.611742 0
M  V30 21 C -1.464827 1.543163 2.956230 0
M  V30 22 C -0.632352 2.466012 3.492730 0
M  V30 23 C -0.021475 3.431154 2.778855 0
M  V30 24 C -1.393404 0.654599 -0.944181 0
M  V30 25 C -1.034382 -0.606178 -1.379852 0
M  V30 26 C 0.139556 -5.050478 -1.556787 0
M  V30 27 C -0.349764 -6.204336 -0.979458 0
M  V30 28 C -0.111241 -7.453092 -1.528140 0
M  V30 29 F -0.605340 -8.591927 -0.941628 0
M  V30 30 C 0.639429 -7.592243 -2.695625 0
M  V30 31 C 1.130328 -6.440802 -3.275676 0
M  V30 32 C 1.947069 -6.507700 -4.535161 0
M  V30 33 F 1.165561 -6.054256 -5.605923 0
M  V30 34 F 3.045753 -5.682889 -4.485012 0
M  V30 35 F 2.246821 -7.815855 -4.779023 0
M  V30 36 C 0.880653 -5.205906 -2.711953 0
M  V30 37 H 0.900370 -2.515094 -2.339634 0
M  V30 38 H 1.815442 -1.173915 0.330638 0
M  V30 39 H 1.233295 1.097036 1.161240 0
M  V30 40 H -1.721896 3.024295 0.066408 0
M  V30 41 H 0.399388 4.633804 -0.362741 0
M  V30 42 H 1.678059 6.189314 0.911253 0
M  V30 43 H 1.451672 5.017265 5.236351 0
M  V30 44 H -0.967010 1.487773 6.695335 0
M  V30 45 H -2.422949 -0.129810 5.663287 0
M  V30 46 H -2.832840 -0.204014 3.312331 0
M  V30 47 H -1.795057 1.437327 1.964851 0
M  V30 48 H -2.279155 1.167064 -1.291984 0
M  V30 49 H -1.703307 -1.071571 -2.109147 0
M  V30 50 H -0.946154 -6.170831 -0.063042 0
M  V30 51 H 0.857043 -8.540004 -3.168104 0
M  V30 52 H 1.279673 -4.324957 -3.191576 0
M  V30 END ATOM
M  V30 BEGIN BOND
M  V30 1 2 1 2
M  V30 2 1 2 3
M  V30 3 1 3 4
M  V30 4 2 4 5
M  V30 5 1 5 6
M  V30 6 2 6 7
M  V30 7 1 7 8
M  V30 8 1 8 9
M  V30 9 2 9 10
M  V30 10 1 10 11
M  V30 11 2 11 12
M  V30 12 1 12 13
M  V30 13 1 13 14
M  V30 14 1 14 15
M  V30 15 2 15 16
M  V30 16 1 15 17
M  V30 17 2 17 18
M  V30 18 1 18 19
M  V30 19 2 19 20
M  V30 20 1 20 21
M  V30 21 2 21 22
M  V30 22 1 22 23
M  V30 23 1 7 24
M  V30 24 2 24 25
M  V30 25 1 2 26
M  V30 26 2 26 27
M  V30 27 1 27 28
M  V30 28 1 28 29
M  V30 29 2 28 30
M  V30 30 1 30 31
M  V30 31 1 31 32
M  V30 32 1 32 33
M  V30 33 1 32 34
M  V30 34 1 32 35
M  V30 35 2 31 36
M  V30 36 1 25 4
M  V30 37 1 36 26
M  V30 38 1 23 9
M  V30 39 2 23 13
M  V30 40 1 22 17
M  V30 41 1 3 37
M  V30 42 1 5 38
M  V30 43 1 6 39
M  V30 44 1 8 40
M  V30 45 1 10 41
M  V30 46 1 11 42
M  V30 47 1 14 43
M  V30 48 1 18 44
M  V30 49 1 19 45
M  V30 50 1 20 46
M  V30 51 1 21 47
M  V30 52 1 24 48
M  V30 53 1 25 49
M  V30 54 1 27 50
M  V30 55 1 30 51
M  V30 56 1 36 52
M  V30 END BOND
M  V30 END CTAB
M  END
>  <Dataset>  (805) 
ChEMBL_Kinases

>  <Ligand_Instance>  (805) 
nan

>  <PDB_ID>  (805) 
nan

>  <Standardized_SMILES>  (805) 
O=C(Nc1ccc(Nc2ccnc3[nH]c(=O)c4ccccc4c23)cc1)c1cc(F)cc(C(F)(F)F)c1

>  <Name>  (805) 
nan

>  <Pocket>  (805) 
nan

>  <ATP_Site>  (805) 
nan

>  <Peripheral>  (805) 
nan

>  <Num_H_Atoms_ProtBoundConf>  (805) 
nan

>  <Num_Resolved_Atoms>  (805) 
nan

>  <Num_Not_Resolved_Atoms>  (805) 
nan

$$$$
CHEMBL2380841
     RDKit          3D

  0  0  0  0  0  0  0  0  0  0999 V3000
M  V30 BEGIN CTAB
M  V30 COUNTS 25 27 0 0 0
M  V30 BEGIN ATOM
M  V30 1 N -1.141566 -2.260597 2.004002 0
M  V30 2 C 0.144861 -2.017595 1.530359 0
M  V30 3 C 0.926909 -3.137228 1.716104 0
M  V30 4 C 2.264999 -3.090593 1.300466 0
M  V30 5 N 2.816663 -1.989658 0.724807 0
M  V30 6 C 2.033010 -0.890917 0.547351 0
M  V30 7 N 2.619205 0.169922 -0.023593 0
M  V30 8 C 1.908847 1.291824 -0.231510 0
M  V30 9 O 2.443406 2.277287 -0.758916 0
M  V30 10 C 0.568998 1.268627 0.175895 0
M  V30 11 C -0.126973 2.429833 -0.050969 0
M  V30 12 C -1.436553 2.439465 0.335172 0
M  V30 13 C -2.094619 1.364705 0.932704 0
M  V30 14 C -1.320363 0.242274 1.121780 0
M  V30 15 C -0.015241 0.186706 0.754132 0
M  V30 16 C 0.727944 -0.932590 0.951305 0
M  V30 17 H -1.076542 -1.960218 3.014961 0
M  V30 18 H -1.629789 -2.654314 1.137672 0
M  V30 19 H 0.660628 -4.108025 2.158203 0
M  V30 20 H 2.933987 -3.928233 1.414464 0
M  V30 21 H 3.615026 0.137777 -0.307930 0
M  V30 22 H 0.331220 3.291421 -0.509349 0
M  V30 23 H -1.976663 3.377095 0.145486 0
M  V30 24 H -3.141047 1.557876 1.171928 0
M  V30 25 H -1.950900 -0.469481 1.575436 0
M  V30 END ATOM
M  V30 BEGIN BOND
M  V30 1 1 1 2
M  V30 2 2 2 3
M  V30 3 1 3 4
M  V30 4 2 4 5
M  V30 5 1 5 6
M  V30 6 1 6 7
M  V30 7 1 7 8
M  V30 8 2 8 9
M  V30 9 1 8 10
M  V30 10 2 10 11
M  V30 11 1 11 12
M  V30 12 2 12 13
M  V30 13 1 13 14
M  V30 14 2 14 15
M  V30 15 1 15 16
M  V30 16 1 16 2
M  V30 17 2 16 6
M  V30 18 1 15 10
M  V30 19 1 1 17
M  V30 20 1 1 18
M  V30 21 1 3 19
M  V30 22 1 4 20
M  V30 23 1 7 21
M  V30 24 1 11 22
M  V30 25 1 12 23
M  V30 26 1 13 24
M  V30 27 1 14 25
M  V30 END BOND
M  V30 END CTAB
M  END
>  <Dataset>  (806) 
ChEMBL_Kinases

>  <Ligand_Instance>  (806) 
nan

>  <PDB_ID>  (806) 
nan

>  <Standardized_SMILES>  (806) 
Nc1ccnc2[nH]c(=O)c3ccccc3c12

>  <Name>  (806) 
nan

>  <Pocket>  (806) 
nan

>  <ATP_Site>  (806) 
nan

>  <Peripheral>  (806) 
nan

>  <Num_H_Atoms_ProtBoundConf>  (806) 
nan

>  <Num_Resolved_Atoms>  (806) 
nan

>  <Num_Not_Resolved_Atoms>  (806) 
nan

$$$$
CHEMBL2380842
     RDKit          3D

  0  0  0  0  0  0  0  0  0  0999 V3000
M  V30 BEGIN CTAB
M  V30 COUNTS 35 38 0 0 0
M  V30 BEGIN ATOM
M  V30 1 O -1.731237 -2.362294 4.703799 0
M  V30 2 C -1.148533 -2.247188 3.608614 0
M  V30 3 N -0.133109 -3.047325 3.239659 0
M  V30 4 C 0.519564 -2.951224 2.071945 0
M  V30 5 N 1.531305 -3.793764 1.746643 0
M  V30 6 C 2.145254 -3.642414 0.542677 0
M  V30 7 C 1.761395 -2.644237 -0.355612 0
M  V30 8 C 0.712028 -1.766717 -0.019488 0
M  V30 9 N 0.651225 -0.865147 -1.091088 0
M  V30 10 C 1.038343 0.533087 -1.214297 0
M  V30 11 C 1.626514 1.184718 -0.128675 0
M  V30 12 C 2.016032 2.506581 -0.177684 0
M  V30 13 C 1.819151 3.205997 -1.332528 0
M  V30 14 C 1.237751 2.540474 -2.387209 0
M  V30 15 C 0.837270 1.219847 -2.369975 0
M  V30 16 C 0.144182 -1.986807 1.192283 0
M  V30 17 C -0.873266 -1.147640 1.488638 0
M  V30 18 C -1.361311 -0.210701 0.645569 0
M  V30 19 C -2.420395 0.631701 0.866128 0
M  V30 20 C -3.015050 0.443978 2.118704 0
M  V30 21 C -2.603143 -0.482019 3.047287 0
M  V30 22 C -1.525490 -1.261848 2.686708 0
M  V30 23 H 0.165110 -3.791010 3.906810 0
M  V30 24 H 2.918768 -4.380611 0.427763 0
M  V30 25 H 2.401981 -2.739435 -1.225327 0
M  V30 26 H 0.243767 -1.281387 -1.964285 0
M  V30 27 H 1.794764 0.645287 0.807946 0
M  V30 28 H 2.470216 2.949666 0.712453 0
M  V30 29 H 2.121310 4.231270 -1.370428 0
M  V30 30 H 1.070586 3.083077 -3.323526 0
M  V30 31 H 0.388617 0.713806 -3.190339 0
M  V30 32 H -1.086973 0.001605 -0.340805 0
M  V30 33 H -2.885439 1.403979 0.275925 0
M  V30 34 H -3.865637 1.046953 2.430908 0
M  V30 35 H -3.071386 -0.611711 4.000099 0
M  V30 END ATOM
M  V30 BEGIN BOND
M  V30 1 2 1 2
M  V30 2 1 2 3
M  V30 3 1 3 4
M  V30 4 2 4 5
M  V30 5 1 5 6
M  V30 6 2 6 7
M  V30 7 1 7 8
M  V30 8 1 8 9
M  V30 9 1 9 10
M  V30 10 2 10 11
M  V30 11 1 11 12
M  V30 12 2 12 13
M  V30 13 1 13 14
M  V30 14 2 14 15
M  V30 15 2 8 16
M  V30 16 1 16 17
M  V30 17 2 17 18
M  V30 18 1 18 19
M  V30 19 2 19 20
M  V30 20 1 20 21
M  V30 21 2 21 22
M  V30 22 1 22 2
M  V30 23 1 16 4
M  V30 24 1 22 17
M  V30 25 1 15 10
M  V30 26 1 3 23
M  V30 27 1 6 24
M  V30 28 1 7 25
M  V30 29 1 9 26
M  V30 30 1 11 27
M  V30 31 1 12 28
M  V30 32 1 13 29
M  V30 33 1 14 30
M  V30 34 1 15 31
M  V30 35 1 18 32
M  V30 36 1 19 33
M  V30 37 1 20 34
M  V30 38 1 21 35
M  V30 END BOND
M  V30 END CTAB
M  END
>  <Dataset>  (807) 
ChEMBL_Kinases

>  <Ligand_Instance>  (807) 
nan

>  <PDB_ID>  (807) 
nan

>  <Standardized_SMILES>  (807) 
O=c1[nH]c2nccc(Nc3ccccc3)c2c2ccccc12

>  <Name>  (807) 
nan

>  <Pocket>  (807) 
nan

>  <ATP_Site>  (807) 
nan

>  <Peripheral>  (807) 
nan

>  <Num_H_Atoms_ProtBoundConf>  (807) 
nan

>  <Num_Resolved_Atoms>  (807) 
nan

>  <Num_Not_Resolved_Atoms>  (807) 
nan

$$$$
CHEMBL2380844
     RDKit          3D

  0  0  0  0  0  0  0  0  0  0999 V3000
M  V30 BEGIN CTAB
M  V30 COUNTS 40 43 0 0 0
M  V30 BEGIN ATOM
M  V30 1 C 1.314151 -6.388196 1.565103 0
M  V30 2 N 1.790134 -5.018946 1.500352 0
M  V30 3 C 1.224368 -3.861412 0.897664 0
M  V30 4 C 1.885954 -2.654906 0.977651 0
M  V30 5 C 1.282721 -1.572885 0.372189 0
M  V30 6 C 0.075529 -1.666426 -0.288195 0
M  V30 7 N -0.499171 -0.467547 -0.905746 0
M  V30 8 C -0.079265 0.867493 -0.950199 0
M  V30 9 C 0.363984 1.056289 -2.275560 0
M  V30 10 C 0.924429 2.287701 -2.646150 0
M  V30 11 N 1.052705 3.303216 -1.767476 0
M  V30 12 C 0.628645 3.132188 -0.502431 0
M  V30 13 N 0.725086 4.103159 0.417647 0
M  V30 14 C 0.307643 3.980552 1.689948 0
M  V30 15 O 0.416359 4.903573 2.519026 0
M  V30 16 C -0.262948 2.749979 2.044734 0
M  V30 17 C -0.737064 2.666214 3.335195 0
M  V30 18 C -1.353455 1.480651 3.663080 0
M  V30 19 C -1.524062 0.393447 2.796907 0
M  V30 20 C -0.995308 0.637633 1.552969 0
M  V30 21 C -0.367258 1.760756 1.131979 0
M  V30 22 C 0.078385 1.937305 -0.132684 0
M  V30 23 C -0.598111 -2.860511 -0.378033 0
M  V30 24 C 0.023124 -3.931105 0.234830 0
M  V30 25 H 1.163660 -6.711658 2.623493 0
M  V30 26 H 0.324138 -6.509914 1.079671 0
M  V30 27 H 1.991123 -7.098147 1.056102 0
M  V30 28 H 2.703626 -4.956030 2.002019 0
M  V30 29 H 2.826624 -2.628492 1.503581 0
M  V30 30 H 1.788455 -0.619652 0.425771 0
M  V30 31 H -1.421435 -0.626104 -1.421601 0
M  V30 32 H 0.374062 0.418031 -3.150978 0
M  V30 33 H 1.299836 2.566542 -3.613620 0
M  V30 34 H 1.158096 5.014136 0.107329 0
M  V30 35 H -0.623527 3.474097 4.014383 0
M  V30 36 H -1.718187 1.442176 4.696927 0
M  V30 37 H -2.026845 -0.425331 3.242916 0
M  V30 38 H -1.267329 -0.222154 1.015303 0
M  V30 39 H -1.535711 -2.915539 -0.895237 0
M  V30 40 H -0.509680 -4.888629 0.166967 0
M  V30 END ATOM
M  V30 BEGIN BOND
M  V30 1 1 1 2
M  V30 2 1 2 3
M  V30 3 2 3 4
M  V30 4 1 4 5
M  V30 5 2 5 6
M  V30 6 1 6 7
M  V30 7 1 7 8
M  V30 8 2 8 9
M  V30 9 1 9 10
M  V30 10 2 10 11
M  V30 11 1 11 12
M  V30 12 1 12 13
M  V30 13 1 13 14
M  V30 14 2 14 15
M  V30 15 1 14 16
M  V30 16 2 16 17
M  V30 17 1 17 18
M  V30 18 2 18 19
M  V30 19 1 19 20
M  V30 20 2 20 21
M  V30 21 1 21 22
M  V30 22 1 6 23
M  V30 23 2 23 24
M  V30 24 1 24 3
M  V30 25 1 22 8
M  V30 26 2 22 12
M  V30 27 1 21 16
M  V30 28 1 1 25
M  V30 29 1 1 26
M  V30 30 1 1 27
M  V30 31 1 2 28
M  V30 32 1 4 29
M  V30 33 1 5 30
M  V30 34 1 7 31
M  V30 35 1 9 32
M  V30 36 1 10 33
M  V30 37 1 13 34
M  V30 38 1 17 35
M  V30 39 1 18 36
M  V30 40 1 19 37
M  V30 41 1 20 38
M  V30 42 1 23 39
M  V30 43 1 24 40
M  V30 END BOND
M  V30 END CTAB
M  END
>  <Dataset>  (808) 
ChEMBL_Kinases

>  <Ligand_Instance>  (808) 
nan

>  <PDB_ID>  (808) 
nan

>  <Standardized_SMILES>  (808) 
CNc1ccc(Nc2ccnc3[nH]c(=O)c4ccccc4c23)cc1

>  <Name>  (808) 
nan

>  <Pocket>  (808) 
nan

>  <ATP_Site>  (808) 
nan

>  <Peripheral>  (808) 
nan

>  <Num_H_Atoms_ProtBoundConf>  (808) 
nan

>  <Num_Resolved_Atoms>  (808) 
nan

>  <Num_Not_Resolved_Atoms>  (808) 
nan

$$$$
CHEMBL2381102
     RDKit          3D

  0  0  0  0  0  0  0  0  0  0999 V3000
M  V30 BEGIN CTAB
M  V30 COUNTS 59 63 0 0 0
M  V30 BEGIN ATOM
M  V30 1 C 4.515318 -6.897501 1.057230 0
M  V30 2 O 4.528616 -5.565267 1.545821 0
M  V30 3 C 4.209028 -4.489745 0.748437 0
M  V30 4 C 4.275799 -3.258699 1.394691 0
M  V30 5 C 3.974096 -2.114186 0.684720 0
M  V30 6 C 3.612722 -2.206947 -0.648151 0
M  V30 7 C 3.296057 -0.983525 -1.395009 0
M  V30 8 C 3.320619 0.302126 -0.897989 0
M  V30 9 C 2.956480 1.157193 -1.939031 0
M  V30 10 N 2.893575 2.560700 -1.723027 0
M  V30 11 C 1.533711 2.957274 -1.299027 0
M  V30 12 N 0.521389 2.382990 -1.110226 0
M  V30 13 C -0.601650 2.954478 -0.724070 0
M  V30 14 C -1.832907 2.171557 -0.507334 0
M  V30 15 O -2.919131 2.683087 -0.135663 0
M  V30 16 N -1.946300 0.764286 -0.687434 0
M  V30 17 C -3.271951 0.394149 -0.382024 0
M  V30 18 C -4.100989 0.398116 -1.480453 0
M  V30 19 C -5.434557 0.067716 -1.328824 0
M  V30 20 C -5.853835 -0.254882 -0.035223 0
M  V30 21 C -4.986233 -0.244787 1.032735 0
M  V30 22 C -3.662109 0.081081 0.895506 0
M  V30 23 N -2.834225 0.047335 2.042993 0
M  V30 24 C -3.435841 -0.019726 3.366972 0
M  V30 25 C -3.066150 -1.287510 4.089366 0
M  V30 26 N -1.964586 -1.979481 3.535120 0
M  V30 27 C -0.982045 -1.255577 2.829543 0
M  V30 28 C -1.397826 0.042846 2.201129 0
M  V30 29 C -0.599041 4.339122 -0.522280 0
M  V30 30 S 1.193372 4.725449 -0.948869 0
M  V30 31 N 2.722758 0.376319 -3.029055 0
M  V30 32 N 2.925063 -0.876055 -2.697651 0
M  V30 33 C 3.539251 -3.417608 -1.311548 0
M  V30 34 C 3.845724 -4.533396 -0.574985 0
M  V30 35 H 5.332516 -7.031389 0.290063 0
M  V30 36 H 3.561158 -7.151109 0.585328 0
M  V30 37 H 4.758519 -7.585980 1.894165 0
M  V30 38 H 4.551339 -3.148223 2.424743 0
M  V30 39 H 4.027490 -1.142200 1.197769 0
M  V30 40 H 3.581656 0.529987 0.114225 0
M  V30 41 H 3.630765 3.260256 -1.822570 0
M  V30 42 H -1.074694 0.246883 -1.014609 0
M  V30 43 H -3.774101 0.648971 -2.485950 0
M  V30 44 H -6.102494 0.065047 -2.177916 0
M  V30 45 H -6.911095 -0.502471 0.004048 0
M  V30 46 H -5.521172 -0.529339 1.917236 0
M  V30 47 H -2.938308 0.807110 3.966880 0
M  V30 48 H -4.498402 0.208391 3.403814 0
M  V30 49 H -2.870224 -1.097414 5.182191 0
M  V30 50 H -3.955845 -1.951678 4.064986 0
M  V30 51 H -1.504390 -2.530376 4.294959 0
M  V30 52 H -0.033474 -1.055749 3.411175 0
M  V30 53 H -0.618642 -1.924835 1.996719 0
M  V30 54 H -1.160180 0.886619 2.924598 0
M  V30 55 H -0.818429 0.167053 1.287398 0
M  V30 56 H -1.468542 4.944059 -0.199383 0
M  V30 57 H 2.437320 0.849872 -3.907204 0
M  V30 58 H 3.258770 -3.495868 -2.347521 0
M  V30 59 H 3.805126 -5.503485 -1.041990 0
M  V30 END ATOM
M  V30 BEGIN BOND
M  V30 1 1 1 2
M  V30 2 1 2 3
M  V30 3 2 3 4
M  V30 4 1 4 5
M  V30 5 2 5 6
M  V30 6 1 6 7
M  V30 7 1 7 8
M  V30 8 2 8 9
M  V30 9 1 9 10
M  V30 10 1 10 11
M  V30 11 2 11 12
M  V30 12 1 12 13
M  V30 13 1 13 14
M  V30 14 2 14 15
M  V30 15 1 14 16
M  V30 16 1 16 17
M  V30 17 2 17 18
M  V30 18 1 18 19
M  V30 19 2 19 20
M  V30 20 1 20 21
M  V30 21 2 21 22
M  V30 22 1 22 23
M  V30 23 1 23 24
M  V30 24 1 24 25
M  V30 25 1 25 26
M  V30 26 1 26 27
M  V30 27 1 27 28
M  V30 28 2 13 29
M  V30 29 1 29 30
M  V30 30 1 9 31
M  V30 31 1 31 32
M  V30 32 1 6 33
M  V30 33 2 33 34
M  V30 34 1 34 3
M  V30 35 2 32 7
M  V30 36 1 30 11
M  V30 37 1 22 17
M  V30 38 1 28 23
M  V30 39 1 1 35
M  V30 40 1 1 36
M  V30 41 1 1 37
M  V30 42 1 4 38
M  V30 43 1 5 39
M  V30 44 1 8 40
M  V30 45 1 10 41
M  V30 46 1 16 42
M  V30 47 1 18 43
M  V30 48 1 19 44
M  V30 49 1 20 45
M  V30 50 1 21 46
M  V30 51 1 24 47
M  V30 52 1 24 48
M  V30 53 1 25 49
M  V30 54 1 25 50
M  V30 55 1 26 51
M  V30 56 1 27 52
M  V30 57 1 27 53
M  V30 58 1 28 54
M  V30 59 1 28 55
M  V30 60 1 29 56
M  V30 61 1 31 57
M  V30 62 1 33 58
M  V30 63 1 34 59
M  V30 END BOND
M  V30 END CTAB
M  END
>  <Dataset>  (809) 
ChEMBL_Kinases

>  <Ligand_Instance>  (809) 
nan

>  <PDB_ID>  (809) 
nan

>  <Standardized_SMILES>  (809) 
COc1ccc(-c2cc(Nc3nc(C(=O)Nc4ccccc4N4CCNCC4)cs3)[nH]n2)cc1

>  <Name>  (809) 
nan

>  <Pocket>  (809) 
nan

>  <ATP_Site>  (809) 
nan

>  <Peripheral>  (809) 
nan

>  <Num_H_Atoms_ProtBoundConf>  (809) 
nan

>  <Num_Resolved_Atoms>  (809) 
nan

>  <Num_Not_Resolved_Atoms>  (809) 
nan

$$$$
CHEMBL2380660
     RDKit          3D

  0  0  0  0  0  0  0  0  0  0999 V3000
M  V30 BEGIN CTAB
M  V30 COUNTS 135 138 0 0 0
M  V30 BEGIN ATOM
M  V30 1 C 6.616518 5.455291 -3.397650 0
M  V30 2 C 5.183865 5.609775 -3.503139 0
M  V30 3 O 4.697147 6.693662 -3.854943 0
M  V30 4 N 4.150993 4.644195 -3.231778 0
M  V30 5 C 4.557444 3.523013 -2.501287 0
M  V30 6 C 3.609697 2.652333 -2.220821 0
M  V30 7 C 3.410815 1.290216 -1.757514 0
M  V30 8 C 3.908069 1.266643 -0.405262 0
M  V30 9 N 3.512682 0.288491 0.502733 0
M  V30 10 C 3.720498 -1.116182 0.215280 0
M  V30 11 O 4.337045 -1.356873 -0.808870 0
M  V30 12 C 3.152551 -2.029693 1.275813 0
M  V30 13 C 2.111181 -2.853400 0.617318 0
M  V30 14 C 0.952642 -1.862010 0.337139 0
M  V30 15 C 0.206657 -1.476037 1.630601 0
M  V30 16 C -1.053558 -2.142205 1.809935 0
M  V30 17 N -1.363332 -3.594859 1.876445 0
M  V30 18 C -0.623324 -4.016524 3.083693 0
M  V30 19 C -1.302133 -3.387355 4.184330 0
M  V30 20 O -2.437289 -3.426607 3.927809 0
M  V30 21 N -0.462417 -2.872191 5.167492 0
M  V30 22 C -0.844299 -1.925097 6.054609 0 CFG=1
M  V30 23 C -0.001619 -1.825328 7.275498 0
M  V30 24 C 0.321553 -3.125595 7.922780 0
M  V30 25 C 1.480575 -3.826172 7.240912 0
M  V30 26 C -0.874908 -4.085981 7.698472 0
M  V30 27 C -1.008655 -0.470939 5.601365 0
M  V30 28 O -0.724339 0.464764 6.346727 0
M  V30 29 N -1.469220 0.275595 4.491011 0
M  V30 30 C -1.102257 1.616147 4.191362 0 CFG=1
M  V30 31 C 0.351640 1.674647 3.969327 0
M  V30 32 C 0.918880 3.104397 4.135382 0
M  V30 33 C 1.877021 3.551897 4.884894 0
M  V30 34 N 2.538467 4.687544 4.776710 0
M  V30 35 C 1.860201 5.127675 3.608912 0
M  V30 36 N 0.867723 4.185364 3.172845 0
M  V30 37 C -1.856058 1.918683 2.925784 0
M  V30 38 O -2.394127 3.020191 2.791613 0
M  V30 39 N -2.198902 1.290875 1.689396 0
M  V30 40 C -2.441117 1.719781 0.339239 0 CFG=1
M  V30 41 C -1.650702 3.014873 0.083839 0
M  V30 42 O -2.278599 4.080835 0.652291 0
M  V30 43 C -2.120051 0.785568 -0.738204 0
M  V30 44 O -1.371797 -0.038278 -1.007341 0
M  V30 45 N -2.857584 0.722907 -2.009035 0
M  V30 46 C -3.320136 -0.647593 -2.516724 0 CFG=1
M  V30 47 C -4.254394 -0.483956 -3.665139 0 CFG=1
M  V30 48 C -5.185424 -1.738052 -3.640702 0
M  V30 49 O -5.105266 0.629379 -3.544160 0
M  V30 50 P -5.189031 1.350524 -5.117621 0
M  V30 51 O -6.625308 1.178223 -5.492512 0
M  V30 52 O -4.748778 2.958798 -4.963748 0
M  V30 53 O -4.149446 0.614954 -6.204001 0
M  V30 54 C -2.081388 -1.161057 -3.275791 0
M  V30 55 O -1.250115 -0.716879 -3.834808 0
M  V30 56 N -1.837286 -2.489302 -3.341166 0
M  V30 57 C -0.704144 -3.326500 -3.579435 0 CFG=1
M  V30 58 C 0.544082 -2.409854 -3.724788 0
M  V30 59 N 1.689194 -2.268174 -2.919091 0
M  V30 60 O 0.762927 -1.603929 -4.655890 0
M  V30 61 C -0.284541 -4.294778 -2.543855 0
M  V30 62 S -1.707357 -5.108125 -1.772075 0
M  V30 63 C -2.488843 -3.983136 -0.576411 0
M  V30 64 C -1.985640 -3.904474 0.723778 0
M  V30 65 O -2.398586 -4.755812 1.394395 0
M  V30 66 C 2.628786 3.382918 -2.847275 0
M  V30 67 C 1.360144 2.882502 -3.626066 0
M  V30 68 C 0.579582 3.600851 -4.583230 0
M  V30 69 C 1.232922 4.898439 -4.768195 0
M  V30 70 C 2.314047 5.478055 -4.253560 0
M  V30 71 C 2.660222 4.470105 -3.440672 0
M  V30 72 H 7.084278 6.340714 -3.055650 0
M  V30 73 H 6.976019 5.209356 -4.466001 0
M  V30 74 H 6.871711 4.572111 -2.750021 0
M  V30 75 H 5.596228 3.217406 -2.154630 0
M  V30 76 H 4.012778 0.654871 -2.432737 0
M  V30 77 H 2.383354 1.035129 -1.849693 0
M  V30 78 H 5.082404 0.997928 -0.555694 0
M  V30 79 H 4.050593 2.287612 -0.003445 0
M  V30 80 H 2.937299 0.724589 1.220739 0
M  V30 81 H 3.990752 -2.654726 1.687469 0
M  V30 82 H 2.764067 -1.439242 2.099105 0
M  V30 83 H 2.401031 -3.312807 -0.264252 0
M  V30 84 H 1.812680 -3.614351 1.319307 0
M  V30 85 H 0.201622 -2.169291 -0.375697 0
M  V30 86 H 1.471497 -0.923900 -0.076520 0
M  V30 87 H 0.144402 -0.440932 1.770360 0
M  V30 88 H 0.899447 -1.866709 2.471685 0
M  V30 89 H -1.778679 -1.700168 2.576146 0
M  V30 90 H -1.654371 -1.655579 0.867807 0
M  V30 91 H -1.157879 -5.163669 3.043042 0
M  V30 92 H 0.340073 -4.206586 3.050959 0
M  V30 93 H 0.440796 -3.346149 5.064453 0
M  V30 94 H -1.943652 -2.083571 6.243686 0
M  V30 95 H 1.015762 -1.344434 6.992540 0
M  V30 96 H -0.460724 -1.103193 7.981300 0
M  V30 97 H 0.413772 -3.068786 8.939691 0
M  V30 98 H 1.324961 -4.783746 6.794916 0
M  V30 99 H 2.239723 -4.023323 8.144825 0
M  V30 100 H 2.153501 -3.100036 6.686361 0
M  V30 101 H -1.047041 -4.726686 8.576296 0
M  V30 102 H -1.778123 -3.504814 7.506355 0
M  V30 103 H -0.690116 -4.804317 6.871747 0
M  V30 104 H -2.200966 -0.255624 4.046720 0
M  V30 105 H -1.376350 2.323432 4.940850 0
M  V30 106 H 1.016762 0.914934 4.378429 0
M  V30 107 H 0.660693 1.597467 2.727584 0
M  V30 108 H 2.380749 2.972285 5.770159 0
M  V30 109 H 3.198529 5.437866 4.951372 0
M  V30 110 H 1.370046 5.451726 2.759944 0
M  V30 111 H -2.528770 0.335732 1.891523 0
M  V30 112 H -3.542156 2.156818 0.322225 0
M  V30 113 H -0.724307 2.826433 0.739830 0
M  V30 114 H -1.328141 3.036210 -0.938070 0
M  V30 115 H -3.105843 4.169236 0.062247 0
M  V30 116 H -3.020267 1.558286 -2.555692 0
M  V30 117 H -3.663240 -1.320052 -1.740475 0
M  V30 118 H -3.818960 -0.505346 -4.670334 0
M  V30 119 H -4.936451 -2.277772 -2.732255 0
M  V30 120 H -6.240156 -1.429718 -3.551132 0
M  V30 121 H -4.966571 -2.402529 -4.486642 0
M  V30 122 H -4.001440 3.127798 -4.350395 0
M  V30 123 H -3.236919 0.926044 -6.047301 0
M  V30 124 H -2.690025 -3.058516 -3.296846 0
M  V30 125 H -0.732636 -3.715427 -4.581033 0
M  V30 126 H 1.994988 -1.433297 -2.369870 0
M  V30 127 H 2.226745 -3.127009 -2.877253 0
M  V30 128 H 0.230215 -5.149844 -3.119213 0
M  V30 129 H 0.515145 -3.934086 -1.832011 0
M  V30 130 H -3.631810 -3.966698 -0.787062 0
M  V30 131 H -2.217182 -2.966074 -1.067942 0
M  V30 132 H 0.966523 1.952138 -3.263249 0
M  V30 133 H -0.441790 3.140355 -4.786432 0
M  V30 134 H 0.571857 5.352323 -5.594222 0
M  V30 135 H 2.534443 6.373800 -4.764225 0
M  V30 END ATOM
M  V30 BEGIN BOND
M  V30 1 1 1 2
M  V30 2 2 2 3
M  V30 3 1 2 4
M  V30 4 1 4 5
M  V30 5 2 5 6
M  V30 6 1 6 7
M  V30 7 1 7 8
M  V30 8 1 8 9
M  V30 9 1 9 10
M  V30 10 2 10 11
M  V30 11 1 10 12
M  V30 12 1 12 13
M  V30 13 1 13 14
M  V30 14 1 14 15
M  V30 15 1 15 16
M  V30 16 1 16 17
M  V30 17 1 17 18
M  V30 18 1 18 19
M  V30 19 2 19 20
M  V30 20 1 19 21
M  V30 21 1 21 22
M  V30 22 1 22 23
M  V30 23 1 23 24
M  V30 24 1 24 25
M  V30 25 1 24 26
M  V30 26 1 22 27
M  V30 27 2 27 28
M  V30 28 1 27 29
M  V30 29 1 29 30
M  V30 30 1 30 31
M  V30 31 1 31 32
M  V30 32 2 32 33
M  V30 33 1 33 34
M  V30 34 1 34 35
M  V30 35 2 35 36
M  V30 36 1 30 37
M  V30 37 2 37 38
M  V30 38 1 37 39
M  V30 39 1 39 40
M  V30 40 1 40 41
M  V30 41 1 41 42
M  V30 42 1 40 43
M  V30 43 2 43 44
M  V30 44 1 43 45
M  V30 45 1 45 46
M  V30 46 1 46 47
M  V30 47 1 47 48
M  V30 48 1 47 49
M  V30 49 1 49 50
M  V30 50 2 50 51
M  V30 51 1 50 52
M  V30 52 1 50 53
M  V30 53 1 46 54
M  V30 54 2 54 55
M  V30 55 1 54 56
M  V30 56 1 56 57
M  V30 57 1 57 58
M  V30 58 1 58 59
M  V30 59 2 58 60
M  V30 60 1 57 61
M  V30 61 1 61 62
M  V30 62 1 62 63
M  V30 63 1 63 64
M  V30 64 2 64 65
M  V30 65 1 6 66
M  V30 66 2 66 67
M  V30 67 1 67 68
M  V30 68 2 68 69
M  V30 69 1 69 70
M  V30 70 2 70 71
M  V30 71 1 71 4
M  V30 72 1 64 17
M  V30 73 1 71 66
M  V30 74 1 36 32
M  V30 75 1 1 72
M  V30 76 1 1 73
M  V30 77 1 1 74
M  V30 78 1 5 75
M  V30 79 1 7 76
M  V30 80 1 7 77
M  V30 81 1 8 78
M  V30 82 1 8 79
M  V30 83 1 9 80
M  V30 84 1 12 81
M  V30 85 1 12 82
M  V30 86 1 13 83
M  V30 87 1 13 84
M  V30 88 1 14 85
M  V30 89 1 14 86
M  V30 90 1 15 87
M  V30 91 1 15 88
M  V30 92 1 16 89
M  V30 93 1 16 90
M  V30 94 1 18 91
M  V30 95 1 18 92
M  V30 96 1 21 93
M  V30 97 1 22 94 CFG=1
M  V30 98 1 23 95
M  V30 99 1 23 96
M  V30 100 1 24 97
M  V30 101 1 25 98
M  V30 102 1 25 99
M  V30 103 1 25 100
M  V30 104 1 26 101
M  V30 105 1 26 102
M  V30 106 1 26 103
M  V30 107 1 29 104
M  V30 108 1 30 105 CFG=1
M  V30 109 1 31 106
M  V30 110 1 31 107
M  V30 111 1 33 108
M  V30 112 1 34 109
M  V30 113 1 35 110
M  V30 114 1 39 111
M  V30 115 1 40 112 CFG=1
M  V30 116 1 41 113
M  V30 117 1 41 114
M  V30 118 1 42 115
M  V30 119 1 45 116
M  V30 120 1 46 117 CFG=1
M  V30 121 1 47 118 CFG=3
M  V30 122 1 48 119
M  V30 123 1 48 120
M  V30 124 1 48 121
M  V30 125 1 52 122
M  V30 126 1 53 123
M  V30 127 1 56 124
M  V30 128 1 57 125 CFG=3
M  V30 129 1 59 126
M  V30 130 1 59 127
M  V30 131 1 61 128
M  V30 132 1 61 129
M  V30 133 1 63 130
M  V30 134 1 63 131
M  V30 135 1 67 132
M  V30 136 1 68 133
M  V30 137 1 69 134
M  V30 138 1 70 135
M  V30 END BOND
M  V30 END CTAB
M  END
>  <Dataset>  (810) 
ChEMBL_Kinases

>  <Ligand_Instance>  (810) 
nan

>  <PDB_ID>  (810) 
nan

>  <Standardized_SMILES>  (810) 
CC(=O)n1cc(CCNC(=O)CCCCCN2CC(=O)N[C@@H](CC(C)C)C(=O)N[C@@H](Cc3c[nH]cn3)C(=O)N[C@@H](CO)C(=O)N[C@@H]([C@@H](C)OP(=O)(O)O)C(=O)N[C@@H](C(N)=O)CSCC2=O)c2ccccc21

>  <Name>  (810) 
nan

>  <Pocket>  (810) 
nan

>  <ATP_Site>  (810) 
nan

>  <Peripheral>  (810) 
nan

>  <Num_H_Atoms_ProtBoundConf>  (810) 
nan

>  <Num_Resolved_Atoms>  (810) 
nan

>  <Num_Not_Resolved_Atoms>  (810) 
nan

$$$$
CHEMBL2333890
     RDKit          3D

  0  0  0  0  0  0  0  0  0  0999 V3000
M  V30 BEGIN CTAB
M  V30 COUNTS 56 59 0 0 0
M  V30 BEGIN ATOM
M  V30 1 C 1.297881 -1.690100 2.913739 0
M  V30 2 N 1.709518 -1.156323 1.612569 0
M  V30 3 C 3.156981 -1.040576 1.575801 0
M  V30 4 C 3.645585 0.032333 2.522367 0
M  V30 5 C 5.163450 0.071660 2.409674 0
M  V30 6 O 5.588437 -1.215900 2.784072 0
M  V30 7 C 0.778664 -0.811961 0.562760 0
M  V30 8 N 0.684230 0.466790 0.148292 0
M  V30 9 C -0.194568 0.817980 -0.833810 0
M  V30 10 C -0.128138 2.246534 -1.133337 0 CFG=2
M  V30 11 N -0.064211 2.964680 0.147924 0
M  V30 12 C -1.241314 2.802788 -1.956464 0
M  V30 13 C -2.582995 2.681109 -1.392614 0
M  V30 14 C -2.966291 3.714406 -0.527563 0
M  V30 15 C -4.184850 3.813761 0.109396 0
M  V30 16 C -5.121396 2.823858 -0.108630 0
M  V30 17 C -4.785104 1.792938 -0.950308 0
M  V30 18 F -5.682806 0.807612 -1.183917 0
M  V30 19 C -3.545191 1.728675 -1.574065 0
M  V30 20 N -0.934170 -0.175236 -1.339598 0
M  V30 21 C -0.849012 -1.443119 -0.937848 0
M  V30 22 C -1.676421 -2.377293 -1.551150 0
M  V30 23 C -1.643961 -3.725377 -1.186738 0
M  V30 24 C -0.752890 -4.084082 -0.190781 0
M  V30 25 C -0.624700 -5.455848 0.276836 0
M  V30 26 C -0.820927 -6.567626 -0.538245 0
M  V30 27 N -0.637680 -7.707271 0.155062 0
M  V30 28 N -0.331558 -7.324779 1.383927 0
M  V30 29 C -0.313211 -5.984327 1.498306 0
M  V30 30 C 0.058528 -3.139471 0.403862 0
M  V30 31 C 0.020962 -1.815395 0.040344 0
M  V30 32 H 0.209090 -1.861577 2.893739 0
M  V30 33 H 1.793269 -2.632591 3.170751 0
M  V30 34 H 1.476218 -0.943568 3.717884 0
M  V30 35 H 3.550180 -0.791534 0.567620 0
M  V30 36 H 3.594978 -2.007285 1.863981 0
M  V30 37 H 3.369659 -0.121053 3.566273 0
M  V30 38 H 3.284649 1.033491 2.221883 0
M  V30 39 H 5.611624 0.811138 3.081331 0
M  V30 40 H 5.489239 0.217164 1.360253 0
M  V30 41 H 5.121787 -1.503594 3.603720 0
M  V30 42 H 0.845765 2.489486 -1.626925 0
M  V30 43 H 0.368299 3.893113 0.061861 0
M  V30 44 H 0.439322 2.365295 0.846783 0
M  V30 45 H -1.003595 3.895385 -2.114147 0
M  V30 46 H -1.242508 2.344821 -2.977302 0
M  V30 47 H -2.285325 4.546372 -0.294936 0
M  V30 48 H -4.438799 4.613505 0.759422 0
M  V30 49 H -6.069656 2.884093 0.375300 0
M  V30 50 H -3.280992 0.925256 -2.242194 0
M  V30 51 H -2.391102 -2.142363 -2.337016 0
M  V30 52 H -2.280420 -4.463563 -1.653895 0
M  V30 53 H -1.086005 -6.653337 -1.594547 0
M  V30 54 H -0.123735 -7.949615 2.190898 0
M  V30 55 H -0.099302 -5.379336 2.369901 0
M  V30 56 H 0.748022 -3.426009 1.172348 0
M  V30 END ATOM
M  V30 BEGIN BOND
M  V30 1 1 1 2
M  V30 2 1 2 3
M  V30 3 1 3 4
M  V30 4 1 4 5
M  V30 5 1 5 6
M  V30 6 1 2 7
M  V30 7 2 7 8
M  V30 8 1 8 9
M  V30 9 1 9 10
M  V30 10 1 10 11
M  V30 11 1 10 12
M  V30 12 1 12 13
M  V30 13 2 13 14
M  V30 14 1 14 15
M  V30 15 2 15 16
M  V30 16 1 16 17
M  V30 17 1 17 18
M  V30 18 2 17 19
M  V30 19 2 9 20
M  V30 20 1 20 21
M  V30 21 2 21 22
M  V30 22 1 22 23
M  V30 23 2 23 24
M  V30 24 1 24 25
M  V30 25 1 25 26
M  V30 26 2 26 27
M  V30 27 1 27 28
M  V30 28 1 28 29
M  V30 29 1 24 30
M  V30 30 2 30 31
M  V30 31 1 31 7
M  V30 32 1 19 13
M  V30 33 1 31 21
M  V30 34 2 29 25
M  V30 35 1 1 32
M  V30 36 1 1 33
M  V30 37 1 1 34
M  V30 38 1 3 35
M  V30 39 1 3 36
M  V30 40 1 4 37
M  V30 41 1 4 38
M  V30 42 1 5 39
M  V30 43 1 5 40
M  V30 44 1 6 41
M  V30 45 1 10 42 CFG=3
M  V30 46 1 11 43
M  V30 47 1 11 44
M  V30 48 1 12 45
M  V30 49 1 12 46
M  V30 50 1 14 47
M  V30 51 1 15 48
M  V30 52 1 16 49
M  V30 53 1 19 50
M  V30 54 1 22 51
M  V30 55 1 23 52
M  V30 56 1 26 53
M  V30 57 1 28 54
M  V30 58 1 29 55
M  V30 59 1 30 56
M  V30 END BOND
M  V30 END CTAB
M  END
>  <Dataset>  (811) 
ChEMBL_Kinases

>  <Ligand_Instance>  (811) 
nan

>  <PDB_ID>  (811) 
nan

>  <Standardized_SMILES>  (811) 
CN(CCCO)c1nc([C@H](N)Cc2cccc(F)c2)nc2ccc(-c3cn[nH]c3)cc12

>  <Name>  (811) 
nan

>  <Pocket>  (811) 
nan

>  <ATP_Site>  (811) 
nan

>  <Peripheral>  (811) 
nan

>  <Num_H_Atoms_ProtBoundConf>  (811) 
nan

>  <Num_Resolved_Atoms>  (811) 
nan

>  <Num_Not_Resolved_Atoms>  (811) 
nan

$$$$
CHEMBL2333889
     RDKit          3D

  0  0  0  0  0  0  0  0  0  0999 V3000
M  V30 BEGIN CTAB
M  V30 COUNTS 53 56 0 0 0
M  V30 BEGIN ATOM
M  V30 1 C -1.466322 -1.529971 2.952192 0
M  V30 2 N -0.265137 -1.150721 2.204365 0
M  V30 3 C 0.795821 -0.909683 3.156970 0
M  V30 4 C 2.101753 -0.514467 2.573983 0
M  V30 5 O 2.985277 -0.330261 3.657070 0
M  V30 6 C -0.029091 -1.006012 0.834138 0
M  V30 7 N 0.345631 0.179015 0.406285 0
M  V30 8 C 0.618784 0.527021 -0.853096 0
M  V30 9 C 1.034568 1.714461 -1.592642 0 CFG=2
M  V30 10 N 2.105613 1.448345 -2.538453 0
M  V30 11 C 1.386348 2.846701 -0.679377 0
M  V30 12 C 0.290848 3.305566 0.195879 0
M  V30 13 C -0.585228 4.191465 -0.403503 0
M  V30 14 C -1.677759 4.776561 0.209054 0
M  V30 15 C -1.927658 4.459231 1.530259 0
M  V30 16 C -1.071276 3.580795 2.149811 0
M  V30 17 F -1.261435 3.222842 3.462176 0
M  V30 18 C 0.006292 3.017251 1.511296 0
M  V30 19 N 0.481971 -0.485446 -1.761008 0
M  V30 20 C 0.102796 -1.709376 -1.374502 0
M  V30 21 C -0.058924 -2.793202 -2.251338 0
M  V30 22 C -0.450742 -4.051140 -1.847997 0
M  V30 23 C -0.705098 -4.283623 -0.505715 0
M  V30 24 C -1.118681 -5.617141 -0.087052 0
M  V30 25 C -0.808713 -6.877718 -0.580922 0
M  V30 26 N -1.460750 -7.810996 0.171665 0
M  V30 27 N -2.163242 -7.166842 1.114093 0
M  V30 28 C -1.978175 -5.837374 0.985649 0
M  V30 29 C -0.567952 -3.267195 0.417471 0
M  V30 30 C -0.172816 -2.039328 -0.065837 0
M  V30 31 H -1.734123 -0.704368 3.637392 0
M  V30 32 H -2.323095 -1.745173 2.297693 0
M  V30 33 H -1.220244 -2.409103 3.606880 0
M  V30 34 H 0.457992 -0.075869 3.824339 0
M  V30 35 H 0.942741 -1.788286 3.816430 0
M  V30 36 H 2.111943 0.411357 2.008411 0
M  V30 37 H 2.557980 -1.366533 1.997253 0
M  V30 38 H 2.544398 -0.019561 4.473495 0
M  V30 39 H 0.165071 2.015151 -2.249210 0
M  V30 40 H 3.041470 1.725305 -2.171558 0
M  V30 41 H 2.045105 0.437219 -2.777133 0
M  V30 42 H 2.247162 2.484877 -0.059223 0
M  V30 43 H 1.724359 3.713758 -1.323206 0
M  V30 44 H -0.486732 4.514525 -1.443074 0
M  V30 45 H -2.347080 5.456665 -0.258028 0
M  V30 46 H -2.766564 4.884677 2.062401 0
M  V30 47 H 0.689436 2.343284 1.992499 0
M  V30 48 H 0.137913 -2.621550 -3.305754 0
M  V30 49 H -0.556953 -4.844968 -2.573888 0
M  V30 50 H -0.148349 -7.010710 -1.428334 0
M  V30 51 H -2.744668 -7.699268 1.807772 0
M  V30 52 H -2.477537 -5.182929 1.671708 0
M  V30 53 H -0.760861 -3.421240 1.469827 0
M  V30 END ATOM
M  V30 BEGIN BOND
M  V30 1 1 1 2
M  V30 2 1 2 3
M  V30 3 1 3 4
M  V30 4 1 4 5
M  V30 5 1 2 6
M  V30 6 2 6 7
M  V30 7 1 7 8
M  V30 8 1 8 9
M  V30 9 1 9 10
M  V30 10 1 9 11
M  V30 11 1 11 12
M  V30 12 2 12 13
M  V30 13 1 13 14
M  V30 14 2 14 15
M  V30 15 1 15 16
M  V30 16 1 16 17
M  V30 17 2 16 18
M  V30 18 2 8 19
M  V30 19 1 19 20
M  V30 20 2 20 21
M  V30 21 1 21 22
M  V30 22 2 22 23
M  V30 23 1 23 24
M  V30 24 1 24 25
M  V30 25 2 25 26
M  V30 26 1 26 27
M  V30 27 1 27 28
M  V30 28 1 23 29
M  V30 29 2 29 30
M  V30 30 1 30 6
M  V30 31 1 18 12
M  V30 32 1 30 20
M  V30 33 2 28 24
M  V30 34 1 1 31
M  V30 35 1 1 32
M  V30 36 1 1 33
M  V30 37 1 3 34
M  V30 38 1 3 35
M  V30 39 1 4 36
M  V30 40 1 4 37
M  V30 41 1 5 38
M  V30 42 1 9 39 CFG=3
M  V30 43 1 10 40
M  V30 44 1 10 41
M  V30 45 1 11 42
M  V30 46 1 11 43
M  V30 47 1 13 44
M  V30 48 1 14 45
M  V30 49 1 15 46
M  V30 50 1 18 47
M  V30 51 1 21 48
M  V30 52 1 22 49
M  V30 53 1 25 50
M  V30 54 1 27 51
M  V30 55 1 28 52
M  V30 56 1 29 53
M  V30 END BOND
M  V30 END CTAB
M  END
>  <Dataset>  (812) 
ChEMBL_Kinases

>  <Ligand_Instance>  (812) 
nan

>  <PDB_ID>  (812) 
nan

>  <Standardized_SMILES>  (812) 
CN(CCO)c1nc([C@H](N)Cc2cccc(F)c2)nc2ccc(-c3cn[nH]c3)cc12

>  <Name>  (812) 
nan

>  <Pocket>  (812) 
nan

>  <ATP_Site>  (812) 
nan

>  <Peripheral>  (812) 
nan

>  <Num_H_Atoms_ProtBoundConf>  (812) 
nan

>  <Num_Resolved_Atoms>  (812) 
nan

>  <Num_Not_Resolved_Atoms>  (812) 
nan

$$$$
CHEMBL2333888
     RDKit          3D

  0  0  0  0  0  0  0  0  0  0999 V3000
M  V30 BEGIN CTAB
M  V30 COUNTS 60 63 0 0 0
M  V30 BEGIN ATOM
M  V30 1 C 2.381055 1.623258 3.613233 0
M  V30 2 N 2.260876 0.177840 3.600354 0
M  V30 3 C 1.600276 -0.309911 4.770235 0
M  V30 4 C 1.600973 -0.262657 2.356115 0
M  V30 5 C 2.569225 0.034686 1.267425 0
M  V30 6 N 2.145445 -0.331966 -0.072184 0
M  V30 7 C 3.245383 0.044718 -0.979472 0
M  V30 8 C 0.855548 -0.913731 -0.358737 0
M  V30 9 N -0.245554 -0.412223 0.213019 0
M  V30 10 C -1.474288 -0.881200 -0.049271 0
M  V30 11 C -2.733421 -0.387050 0.537611 0 CFG=2
M  V30 12 N -3.705037 -0.248571 -0.529079 0
M  V30 13 C -2.591939 0.871298 1.345020 0
M  V30 14 C -3.938656 1.272613 1.887865 0
M  V30 15 C -4.346588 0.792662 3.128894 0
M  V30 16 C -5.552481 1.099240 3.708609 0
M  V30 17 C -6.417623 1.941522 3.009724 0
M  V30 18 C -6.029061 2.420093 1.788666 0
M  V30 19 F -6.842556 3.250517 1.062913 0
M  V30 20 C -4.819710 2.115313 1.202818 0
M  V30 21 N -1.672034 -1.907941 -0.923964 0
M  V30 22 C -0.607877 -2.480628 -1.552221 0
M  V30 23 C -0.729316 -3.527244 -2.436901 0
M  V30 24 C 0.356350 -4.109068 -3.057198 0
M  V30 25 C 1.599002 -3.588024 -2.747804 0
M  V30 26 C 2.749461 -4.203691 -3.401920 0
M  V30 27 C 2.858005 -4.785407 -4.648058 0
M  V30 28 N 4.120065 -5.220471 -4.819036 0
M  V30 29 N 4.856805 -4.948897 -3.730148 0
M  V30 30 C 4.035748 -4.331443 -2.862278 0
M  V30 31 C 1.698573 -2.539350 -1.859524 0
M  V30 32 C 0.621568 -1.949493 -1.235161 0
M  V30 33 H 1.749959 2.107974 2.845260 0
M  V30 34 H 2.058324 2.050373 4.590171 0
M  V30 35 H 3.452190 1.885965 3.492085 0
M  V30 36 H 1.150806 -1.287738 4.591094 0
M  V30 37 H 2.355454 -0.298384 5.598084 0
M  V30 38 H 0.867427 0.485961 5.069453 0
M  V30 39 H 0.610154 0.230278 2.266355 0
M  V30 40 H 1.448481 -1.350193 2.453948 0
M  V30 41 H 2.957546 1.076617 1.296651 0
M  V30 42 H 3.481145 -0.593693 1.492254 0
M  V30 43 H 2.919510 0.045423 -2.040964 0
M  V30 44 H 4.143351 -0.564062 -0.842474 0
M  V30 45 H 3.567329 1.103462 -0.720009 0
M  V30 46 H -3.188926 -1.141308 1.241283 0
M  V30 47 H -3.615340 0.650669 -1.058441 0
M  V30 48 H -3.532962 -1.054356 -1.198289 0
M  V30 49 H -2.228658 1.670025 0.673670 0
M  V30 50 H -1.912941 0.764866 2.192316 0
M  V30 51 H -3.736650 0.139555 3.727891 0
M  V30 52 H -5.882124 0.738062 4.664527 0
M  V30 53 H -7.395689 2.254912 3.364196 0
M  V30 54 H -4.501405 2.495713 0.222604 0
M  V30 55 H -1.738849 -3.879371 -2.626863 0
M  V30 56 H 0.140007 -4.922839 -3.732300 0
M  V30 57 H 2.035924 -4.857250 -5.339987 0
M  V30 58 H 5.871527 -5.178743 -3.596929 0
M  V30 59 H 4.314158 -3.983388 -1.895362 0
M  V30 60 H 2.718709 -2.238286 -1.694899 0
M  V30 END ATOM
M  V30 BEGIN BOND
M  V30 1 1 1 2
M  V30 2 1 2 3
M  V30 3 1 2 4
M  V30 4 1 4 5
M  V30 5 1 5 6
M  V30 6 1 6 7
M  V30 7 1 6 8
M  V30 8 2 8 9
M  V30 9 1 9 10
M  V30 10 1 10 11
M  V30 11 1 11 12
M  V30 12 1 11 13
M  V30 13 1 13 14
M  V30 14 2 14 15
M  V30 15 1 15 16
M  V30 16 2 16 17
M  V30 17 1 17 18
M  V30 18 1 18 19
M  V30 19 2 18 20
M  V30 20 2 10 21
M  V30 21 1 21 22
M  V30 22 2 22 23
M  V30 23 1 23 24
M  V30 24 2 24 25
M  V30 25 1 25 26
M  V30 26 1 26 27
M  V30 27 2 27 28
M  V30 28 1 28 29
M  V30 29 1 29 30
M  V30 30 1 25 31
M  V30 31 2 31 32
M  V30 32 1 32 8
M  V30 33 1 20 14
M  V30 34 1 32 22
M  V30 35 2 30 26
M  V30 36 1 1 33
M  V30 37 1 1 34
M  V30 38 1 1 35
M  V30 39 1 3 36
M  V30 40 1 3 37
M  V30 41 1 3 38
M  V30 42 1 4 39
M  V30 43 1 4 40
M  V30 44 1 5 41
M  V30 45 1 5 42
M  V30 46 1 7 43
M  V30 47 1 7 44
M  V30 48 1 7 45
M  V30 49 1 11 46 CFG=1
M  V30 50 1 12 47
M  V30 51 1 12 48
M  V30 52 1 13 49
M  V30 53 1 13 50
M  V30 54 1 15 51
M  V30 55 1 16 52
M  V30 56 1 17 53
M  V30 57 1 20 54
M  V30 58 1 23 55
M  V30 59 1 24 56
M  V30 60 1 27 57
M  V30 61 1 29 58
M  V30 62 1 30 59
M  V30 63 1 31 60
M  V30 END BOND
M  V30 END CTAB
M  END
>  <Dataset>  (813) 
ChEMBL_Kinases

>  <Ligand_Instance>  (813) 
nan

>  <PDB_ID>  (813) 
nan

>  <Standardized_SMILES>  (813) 
CN(C)CCN(C)c1nc([C@H](N)Cc2cccc(F)c2)nc2ccc(-c3cn[nH]c3)cc12

>  <Name>  (813) 
nan

>  <Pocket>  (813) 
nan

>  <ATP_Site>  (813) 
nan

>  <Peripheral>  (813) 
nan

>  <Num_H_Atoms_ProtBoundConf>  (813) 
nan

>  <Num_Resolved_Atoms>  (813) 
nan

>  <Num_Not_Resolved_Atoms>  (813) 
nan

$$$$
CHEMBL2333886
     RDKit          3D

  0  0  0  0  0  0  0  0  0  0999 V3000
M  V30 BEGIN CTAB
M  V30 COUNTS 53 57 0 0 0
M  V30 BEGIN ATOM
M  V30 1 C 1.339532 3.450019 0.110443 0
M  V30 2 N 0.727986 2.118995 0.273357 0 CHG=1 VAL=4
M  V30 3 C -0.626107 2.233903 -0.259747 0
M  V30 4 C 1.538068 1.212976 -0.466519 0
M  V30 5 C 2.050526 0.168878 0.489373 0 CFG=1
M  V30 6 C 3.515703 0.244432 0.722780 0
M  V30 7 C 4.247252 1.321053 1.174587 0
M  V30 8 C 5.611669 1.280559 1.360508 0
M  V30 9 C 6.321793 0.131237 1.095453 0
M  V30 10 C 5.665697 -0.990031 0.640206 0
M  V30 11 C 4.312878 -0.883658 0.477156 0
M  V30 12 C 1.196661 0.329732 1.680154 0 CFG=2
M  V30 13 C 0.051469 -0.650043 1.574992 0
M  V30 14 N -0.762545 -0.660288 0.504668 0
M  V30 15 C -1.795469 -1.494601 0.337889 0
M  V30 16 C -2.613996 -1.487101 -0.764517 0
M  V30 17 C -3.651318 -2.359485 -0.882349 0
M  V30 18 C -3.911117 -3.280637 0.107518 0
M  V30 19 C -4.989308 -4.252539 0.079102 0
M  V30 20 C -5.724748 -4.812358 1.103060 0
M  V30 21 N -6.606389 -5.657421 0.573514 0
M  V30 22 N -6.482357 -5.677675 -0.757364 0
M  V30 23 C -5.481847 -4.810347 -1.082566 0
M  V30 24 C -3.092747 -3.298814 1.225292 0
M  V30 25 C -2.054833 -2.416414 1.329332 0
M  V30 26 C -1.247627 -2.438629 2.437790 0
M  V30 27 O -1.455398 -3.270897 3.368247 0
M  V30 28 N -0.232459 -1.563344 2.521417 0
M  V30 29 C 0.720167 1.735406 1.654999 0
M  V30 30 H 1.846127 3.718450 1.061762 0
M  V30 31 H 0.554133 4.211716 -0.047540 0
M  V30 32 H 2.025262 3.467340 -0.774766 0
M  V30 33 H -1.326053 2.072935 0.591068 0
M  V30 34 H -0.815492 1.601539 -1.131836 0
M  V30 35 H -0.857462 3.281140 -0.603386 0
M  V30 36 H 2.352145 1.700616 -1.040888 0
M  V30 37 H 0.871427 0.752913 -1.244599 0
M  V30 38 H 1.822796 -0.841633 0.013198 0
M  V30 39 H 3.689923 2.222353 1.379446 0
M  V30 40 H 6.104346 2.173835 1.718737 0
M  V30 41 H 7.392350 0.063743 1.229994 0
M  V30 42 H 6.175279 -1.914279 0.418172 0
M  V30 43 H 3.802127 -1.786979 0.112970 0
M  V30 44 H 1.689082 0.048233 2.639923 0
M  V30 45 H -2.440787 -0.782808 -1.555247 0
M  V30 46 H -4.300642 -2.363142 -1.743220 0
M  V30 47 H -5.571398 -4.572029 2.137535 0
M  V30 48 H -7.107712 -6.295889 -1.323474 0
M  V30 49 H -5.180551 -4.638806 -2.086229 0
M  V30 50 H -3.262818 -4.008246 2.027788 0
M  V30 51 H 0.379969 -1.583565 3.367135 0
M  V30 52 H 1.467471 2.372660 2.183606 0
M  V30 53 H -0.294591 1.863010 2.108679 0
M  V30 END ATOM
M  V30 BEGIN BOND
M  V30 1 1 1 2
M  V30 2 1 2 3
M  V30 3 1 2 4
M  V30 4 1 4 5
M  V30 5 1 5 6
M  V30 6 2 6 7
M  V30 7 1 7 8
M  V30 8 2 8 9
M  V30 9 1 9 10
M  V30 10 2 10 11
M  V30 11 1 5 12
M  V30 12 1 12 13
M  V30 13 2 13 14
M  V30 14 1 14 15
M  V30 15 2 15 16
M  V30 16 1 16 17
M  V30 17 2 17 18
M  V30 18 1 18 19
M  V30 19 1 19 20
M  V30 20 2 20 21
M  V30 21 1 21 22
M  V30 22 1 22 23
M  V30 23 1 18 24
M  V30 24 2 24 25
M  V30 25 1 25 26
M  V30 26 2 26 27
M  V30 27 1 26 28
M  V30 28 1 12 29
M  V30 29 1 29 2
M  V30 30 1 11 6
M  V30 31 1 28 13
M  V30 32 1 25 15
M  V30 33 2 23 19
M  V30 34 1 1 30
M  V30 35 1 1 31
M  V30 36 1 1 32
M  V30 37 1 3 33
M  V30 38 1 3 34
M  V30 39 1 3 35
M  V30 40 1 4 36
M  V30 41 1 4 37
M  V30 42 1 5 38 CFG=3
M  V30 43 1 7 39
M  V30 44 1 8 40
M  V30 45 1 9 41
M  V30 46 1 10 42
M  V30 47 1 11 43
M  V30 48 1 12 44 CFG=1
M  V30 49 1 16 45
M  V30 50 1 17 46
M  V30 51 1 20 47
M  V30 52 1 22 48
M  V30 53 1 23 49
M  V30 54 1 24 50
M  V30 55 1 28 51
M  V30 56 1 29 52
M  V30 57 1 29 53
M  V30 END BOND
M  V30 END CTAB
M  END
>  <Dataset>  (814) 
ChEMBL_Kinases

>  <Ligand_Instance>  (814) 
nan

>  <PDB_ID>  (814) 
nan

>  <Standardized_SMILES>  (814) 
C[N+]1(C)C[C@@H](c2ccccc2)[C@H](c2nc3ccc(-c4cn[nH]c4)cc3c(=O)[nH]2)C1

>  <Name>  (814) 
nan

>  <Pocket>  (814) 
nan

>  <ATP_Site>  (814) 
nan

>  <Peripheral>  (814) 
nan

>  <Num_H_Atoms_ProtBoundConf>  (814) 
nan

>  <Num_Resolved_Atoms>  (814) 
nan

>  <Num_Not_Resolved_Atoms>  (814) 
nan

$$$$
CHEMBL2333885
     RDKit          3D

  0  0  0  0  0  0  0  0  0  0999 V3000
M  V30 BEGIN CTAB
M  V30 COUNTS 56 60 0 0 0
M  V30 BEGIN ATOM
M  V30 1 N 3.534681 -3.136013 3.414242 0
M  V30 2 C 3.778284 -1.776883 3.792984 0
M  V30 3 C 4.281883 -0.931623 2.651160 0
M  V30 4 C 5.623442 -0.785748 2.364218 0
M  V30 5 C 6.002777 0.006476 1.300846 0
M  V30 6 C 5.034300 0.652184 0.525690 0
M  V30 7 C 3.687112 0.522437 0.791972 0
M  V30 8 C 2.733041 1.224273 -0.057819 0
M  V30 9 O 3.219878 1.909553 -0.989183 0
M  V30 10 N 1.337392 1.112276 0.188752 0
M  V30 11 C 0.236395 1.722370 -0.530620 0
M  V30 12 C -0.647196 2.539110 0.342431 0
M  V30 13 C -1.074218 3.796998 -0.060817 0
M  V30 14 C -1.894345 4.605948 0.699974 0
M  V30 15 C -2.300991 4.121576 1.923236 0
M  V30 16 Cl -3.346065 5.054507 2.986039 0
M  V30 17 C -1.906211 2.878164 2.372961 0
M  V30 18 C -1.082123 2.100199 1.575067 0
M  V30 19 C -0.615708 0.595487 -1.045715 0
M  V30 20 N -0.858636 -0.393478 -0.139558 0
M  V30 21 C -1.594417 -1.468704 -0.420591 0
M  V30 22 C -1.789717 -2.427725 0.566472 0
M  V30 23 C -2.573264 -3.524605 0.191653 0
M  V30 24 C -3.093143 -3.605494 -1.076538 0
M  V30 25 C -3.903641 -4.801440 -1.366743 0
M  V30 26 C -4.053692 -5.455760 -2.571565 0
M  V30 27 N -4.892513 -6.504792 -2.370929 0
M  V30 28 N -5.271986 -6.536369 -1.102418 0
M  V30 29 C -4.683752 -5.500160 -0.444001 0
M  V30 30 C -2.880799 -2.637738 -2.031719 0
M  V30 31 C -2.111023 -1.542352 -1.691463 0
M  V30 32 C -1.869029 -0.543962 -2.615016 0
M  V30 33 O -2.328370 -0.585702 -3.782412 0
M  V30 34 N -1.119046 0.535914 -2.303202 0
M  V30 35 C 3.364543 -0.279078 1.863387 0
M  V30 36 H 2.595721 -3.261804 2.992632 0
M  V30 37 H 3.732373 -3.802946 4.192713 0
M  V30 38 H 2.785380 -1.341851 4.112274 0
M  V30 39 H 4.434607 -1.658863 4.691629 0
M  V30 40 H 6.325519 -1.312113 3.002426 0
M  V30 41 H 7.047393 0.080280 1.129396 0
M  V30 42 H 5.440570 1.259231 -0.297257 0
M  V30 43 H 0.927615 0.543969 0.961588 0
M  V30 44 H 0.580680 2.345926 -1.374562 0
M  V30 45 H -0.759273 4.185204 -1.020595 0
M  V30 46 H -2.210607 5.583175 0.357721 0
M  V30 47 H -2.217107 2.494306 3.321091 0
M  V30 48 H -0.781209 1.128962 1.940238 0
M  V30 49 H -1.368272 -2.340337 1.560055 0
M  V30 50 H -2.739270 -4.284594 0.943529 0
M  V30 51 H -3.587031 -5.185807 -3.517337 0
M  V30 52 H -5.897793 -7.171590 -0.561089 0
M  V30 53 H -4.759936 -5.210544 0.597273 0
M  V30 54 H -3.303060 -2.725673 -3.026844 0
M  V30 55 H -0.886152 1.332118 -2.932714 0
M  V30 56 H 2.319511 -0.402761 2.099903 0
M  V30 END ATOM
M  V30 BEGIN BOND
M  V30 1 1 1 2
M  V30 2 1 2 3
M  V30 3 2 3 4
M  V30 4 1 4 5
M  V30 5 2 5 6
M  V30 6 1 6 7
M  V30 7 1 7 8
M  V30 8 2 8 9
M  V30 9 1 8 10
M  V30 10 1 10 11
M  V30 11 1 11 12
M  V30 12 2 12 13
M  V30 13 1 13 14
M  V30 14 2 14 15
M  V30 15 1 15 16
M  V30 16 1 15 17
M  V30 17 2 17 18
M  V30 18 1 11 19
M  V30 19 2 19 20
M  V30 20 1 20 21
M  V30 21 2 21 22
M  V30 22 1 22 23
M  V30 23 2 23 24
M  V30 24 1 24 25
M  V30 25 1 25 26
M  V30 26 2 26 27
M  V30 27 1 27 28
M  V30 28 1 28 29
M  V30 29 1 24 30
M  V30 30 2 30 31
M  V30 31 1 31 32
M  V30 32 2 32 33
M  V30 33 1 32 34
M  V30 34 2 7 35
M  V30 35 1 35 3
M  V30 36 1 18 12
M  V30 37 1 34 19
M  V30 38 1 31 21
M  V30 39 2 29 25
M  V30 40 1 1 36
M  V30 41 1 1 37
M  V30 42 1 2 38
M  V30 43 1 2 39
M  V30 44 1 4 40
M  V30 45 1 5 41
M  V30 46 1 6 42
M  V30 47 1 10 43
M  V30 48 1 11 44
M  V30 49 1 13 45
M  V30 50 1 14 46
M  V30 51 1 17 47
M  V30 52 1 18 48
M  V30 53 1 22 49
M  V30 54 1 23 50
M  V30 55 1 26 51
M  V30 56 1 28 52
M  V30 57 1 29 53
M  V30 58 1 30 54
M  V30 59 1 34 55
M  V30 60 1 35 56
M  V30 END BOND
M  V30 END CTAB
M  END
>  <Dataset>  (815) 
ChEMBL_Kinases

>  <Ligand_Instance>  (815) 
nan

>  <PDB_ID>  (815) 
nan

>  <Standardized_SMILES>  (815) 
NCc1cccc(C(=O)NC(c2ccc(Cl)cc2)c2nc3ccc(-c4cn[nH]c4)cc3c(=O)[nH]2)c1

>  <Name>  (815) 
nan

>  <Pocket>  (815) 
nan

>  <ATP_Site>  (815) 
nan

>  <Peripheral>  (815) 
nan

>  <Num_H_Atoms_ProtBoundConf>  (815) 
nan

>  <Num_Resolved_Atoms>  (815) 
nan

>  <Num_Not_Resolved_Atoms>  (815) 
nan

$$$$
CHEMBL2333883
     RDKit          3D

  0  0  0  0  0  0  0  0  0  0999 V3000
M  V30 BEGIN CTAB
M  V30 COUNTS 49 52 0 0 0
M  V30 BEGIN ATOM
M  V30 1 N 4.128374 3.638398 4.311033 0
M  V30 2 C 4.015121 2.866610 3.108006 0
M  V30 3 C 2.576235 2.569096 2.725866 0
M  V30 4 C 2.585405 1.763564 1.462665 0
M  V30 5 O 3.713279 1.496858 0.981094 0
M  V30 6 N 1.387945 1.334319 0.857247 0
M  V30 7 C 1.535601 0.565174 -0.356589 0
M  V30 8 C 0.852827 1.188901 -1.513526 0
M  V30 9 C 0.050157 0.521422 -2.444534 0
M  V30 10 C -0.525810 1.237030 -3.477976 0
M  V30 11 C -0.304403 2.598717 -3.581348 0
M  V30 12 Cl -1.045958 3.497828 -4.905053 0
M  V30 13 C 0.485896 3.300093 -2.678195 0
M  V30 14 C 1.044436 2.549457 -1.658700 0
M  V30 15 C 0.911573 -0.762698 -0.101637 0
M  V30 16 N -0.297805 -0.659948 0.522706 0
M  V30 17 C -1.016730 -1.751788 0.837541 0
M  V30 18 C -2.242132 -1.622977 1.471295 0
M  V30 19 C -3.002525 -2.712529 1.807397 0
M  V30 20 C -2.533851 -3.990178 1.504984 0
M  V30 21 C -3.355931 -5.138148 1.869804 0
M  V30 22 C -3.417234 -6.325712 1.202352 0
M  V30 23 N -4.279347 -7.140609 1.830040 0
M  V30 24 N -4.756561 -6.486864 2.873961 0
M  V30 25 C -4.217634 -5.245355 2.943089 0
M  V30 26 C -1.301093 -4.124640 0.867183 0
M  V30 27 C -0.559082 -3.018543 0.541297 0
M  V30 28 C 0.666439 -3.075912 -0.089088 0
M  V30 29 O 1.134866 -4.193743 -0.383581 0
M  V30 30 N 1.378640 -1.964388 -0.399496 0
M  V30 31 H 4.536498 3.044296 5.057507 0
M  V30 32 H 3.130325 3.816168 4.634684 0
M  V30 33 H 4.504187 1.886727 3.270532 0
M  V30 34 H 4.557465 3.323123 2.250585 0
M  V30 35 H 1.958285 3.475734 2.598706 0
M  V30 36 H 2.084022 1.951694 3.502240 0
M  V30 37 H 0.451045 1.556050 1.257467 0
M  V30 38 H 2.586644 0.439441 -0.607252 0
M  V30 39 H -0.055847 -0.540769 -2.269648 0
M  V30 40 H -1.139461 0.693996 -4.179839 0
M  V30 41 H 0.650804 4.364930 -2.770598 0
M  V30 42 H 1.657402 3.134716 -0.970772 0
M  V30 43 H -2.580507 -0.604061 1.694340 0
M  V30 44 H -3.952763 -2.537906 2.302457 0
M  V30 45 H -2.882566 -6.607116 0.317104 0
M  V30 46 H -5.450194 -6.835374 3.572553 0
M  V30 47 H -4.435310 -4.508149 3.695993 0
M  V30 48 H -0.930015 -5.102312 0.629397 0
M  V30 49 H 2.292189 -1.972075 -0.867692 0
M  V30 END ATOM
M  V30 BEGIN BOND
M  V30 1 1 1 2
M  V30 2 1 2 3
M  V30 3 1 3 4
M  V30 4 2 4 5
M  V30 5 1 4 6
M  V30 6 1 6 7
M  V30 7 1 7 8
M  V30 8 2 8 9
M  V30 9 1 9 10
M  V30 10 2 10 11
M  V30 11 1 11 12
M  V30 12 1 11 13
M  V30 13 2 13 14
M  V30 14 1 7 15
M  V30 15 2 15 16
M  V30 16 1 16 17
M  V30 17 2 17 18
M  V30 18 1 18 19
M  V30 19 2 19 20
M  V30 20 1 20 21
M  V30 21 1 21 22
M  V30 22 2 22 23
M  V30 23 1 23 24
M  V30 24 1 24 25
M  V30 25 1 20 26
M  V30 26 2 26 27
M  V30 27 1 27 28
M  V30 28 2 28 29
M  V30 29 1 28 30
M  V30 30 1 14 8
M  V30 31 1 30 15
M  V30 32 1 27 17
M  V30 33 2 25 21
M  V30 34 1 1 31
M  V30 35 1 1 32
M  V30 36 1 2 33
M  V30 37 1 2 34
M  V30 38 1 3 35
M  V30 39 1 3 36
M  V30 40 1 6 37
M  V30 41 1 7 38
M  V30 42 1 9 39
M  V30 43 1 10 40
M  V30 44 1 13 41
M  V30 45 1 14 42
M  V30 46 1 18 43
M  V30 47 1 19 44
M  V30 48 1 22 45
M  V30 49 1 24 46
M  V30 50 1 25 47
M  V30 51 1 26 48
M  V30 52 1 30 49
M  V30 END BOND
M  V30 END CTAB
M  END
>  <Dataset>  (816) 
ChEMBL_Kinases

>  <Ligand_Instance>  (816) 
nan

>  <PDB_ID>  (816) 
nan

>  <Standardized_SMILES>  (816) 
NCCC(=O)NC(c1ccc(Cl)cc1)c1nc2ccc(-c3cn[nH]c3)cc2c(=O)[nH]1

>  <Name>  (816) 
nan

>  <Pocket>  (816) 
nan

>  <ATP_Site>  (816) 
nan

>  <Peripheral>  (816) 
nan

>  <Num_H_Atoms_ProtBoundConf>  (816) 
nan

>  <Num_Resolved_Atoms>  (816) 
nan

>  <Num_Not_Resolved_Atoms>  (816) 
nan

$$$$
CHEMBL2333881
     RDKit          3D

  0  0  0  0  0  0  0  0  0  0999 V3000
M  V30 BEGIN CTAB
M  V30 COUNTS 61 65 0 0 0
M  V30 BEGIN ATOM
M  V30 1 C 3.853783 -3.381543 1.645126 0
M  V30 2 N 2.950987 -2.488556 2.343204 0
M  V30 3 C 3.536185 -2.257651 3.665475 0
M  V30 4 C 2.834570 -1.208258 1.697523 0
M  V30 5 C 1.901104 -0.282731 2.419321 0
M  V30 6 N 0.554825 -0.763105 2.540295 0
M  V30 7 C -0.178623 -1.012418 1.348271 0
M  V30 8 N 0.358415 -0.806290 0.133965 0
M  V30 9 C -0.266026 -1.014743 -1.033273 0
M  V30 10 C 0.358356 -0.776471 -2.342338 0 CFG=2
M  V30 11 C 1.541757 -1.737960 -2.520249 0
M  V30 12 N 2.116798 -1.181319 -3.754116 0
M  V30 13 C 1.947519 0.253677 -3.678290 0
M  V30 14 C 1.105317 0.511876 -2.443344 0 CFG=1
M  V30 15 C 0.286712 1.705779 -2.695313 0
M  V30 16 C -0.609690 1.856073 -3.734816 0
M  V30 17 C -1.323695 3.029082 -3.867691 0
M  V30 18 C -1.159587 4.076269 -2.968157 0
M  V30 19 F -1.829390 5.256744 -3.039797 0
M  V30 20 C -0.273458 3.979752 -1.906252 0
M  V30 21 C 0.428082 2.779731 -1.807007 0
M  V30 22 N -1.543298 -1.470295 -1.017627 0
M  V30 23 C -2.184725 -1.713097 0.147924 0
M  V30 24 C -3.483301 -2.175729 0.147243 0
M  V30 25 C -4.105356 -2.412007 1.372330 0
M  V30 26 C -3.433713 -2.186862 2.553535 0
M  V30 27 C -4.096660 -2.438483 3.826347 0
M  V30 28 C -3.781608 -1.683584 4.950088 0
M  V30 29 N -4.554114 -2.153360 5.954142 0
M  V30 30 N -5.324797 -3.151483 5.514677 0
M  V30 31 C -5.062069 -3.348853 4.201106 0
M  V30 32 C -2.136029 -1.723784 2.490693 0
M  V30 33 C -1.476683 -1.474666 1.305598 0
M  V30 34 H 4.865105 -2.907856 1.583798 0
M  V30 35 H 3.506727 -3.597346 0.618429 0
M  V30 36 H 3.881076 -4.333617 2.231179 0
M  V30 37 H 4.004509 -3.219332 3.965388 0
M  V30 38 H 2.745568 -1.952185 4.388277 0
M  V30 39 H 4.290139 -1.422217 3.573459 0
M  V30 40 H 2.615694 -1.339278 0.619938 0
M  V30 41 H 3.839028 -0.690353 1.715828 0
M  V30 42 H 1.873353 0.684240 1.860459 0
M  V30 43 H 2.336160 -0.057818 3.406204 0
M  V30 44 H 0.197533 -0.899830 3.485062 0
M  V30 45 H -0.302321 -0.987333 -3.192357 0
M  V30 46 H 2.320435 -1.577770 -1.747399 0
M  V30 47 H 1.222483 -2.771334 -2.655228 0
M  V30 48 H 1.665813 -1.601315 -4.595008 0
M  V30 49 H 1.466288 0.642834 -4.600572 0
M  V30 50 H 2.908446 0.805989 -3.600851 0
M  V30 51 H 1.754110 0.607662 -1.549060 0
M  V30 52 H -0.727753 1.050644 -4.416214 0
M  V30 53 H -2.030595 3.188501 -4.660304 0
M  V30 54 H -0.106856 4.756834 -1.181818 0
M  V30 55 H 1.129897 2.711466 -0.960531 0
M  V30 56 H -4.032457 -2.360614 -0.754118 0
M  V30 57 H -5.135784 -2.778695 1.336387 0
M  V30 58 H -3.082569 -0.878099 5.077295 0
M  V30 59 H -6.020701 -3.699281 6.079853 0
M  V30 60 H -5.491857 -4.070651 3.506282 0
M  V30 61 H -1.670872 -1.569596 3.452463 0
M  V30 END ATOM
M  V30 BEGIN BOND
M  V30 1 1 1 2
M  V30 2 1 2 3
M  V30 3 1 2 4
M  V30 4 1 4 5
M  V30 5 1 5 6
M  V30 6 1 6 7
M  V30 7 2 7 8
M  V30 8 1 8 9
M  V30 9 1 9 10
M  V30 10 1 10 11
M  V30 11 1 11 12
M  V30 12 1 12 13
M  V30 13 1 13 14
M  V30 14 1 14 15
M  V30 15 2 15 16
M  V30 16 1 16 17
M  V30 17 2 17 18
M  V30 18 1 18 19
M  V30 19 1 18 20
M  V30 20 2 20 21
M  V30 21 2 9 22
M  V30 22 1 22 23
M  V30 23 2 23 24
M  V30 24 1 24 25
M  V30 25 2 25 26
M  V30 26 1 26 27
M  V30 27 1 27 28
M  V30 28 2 28 29
M  V30 29 1 29 30
M  V30 30 1 30 31
M  V30 31 1 26 32
M  V30 32 2 32 33
M  V30 33 1 33 7
M  V30 34 1 14 10
M  V30 35 1 21 15
M  V30 36 1 33 23
M  V30 37 2 31 27
M  V30 38 1 1 34
M  V30 39 1 1 35
M  V30 40 1 1 36
M  V30 41 1 3 37
M  V30 42 1 3 38
M  V30 43 1 3 39
M  V30 44 1 4 40
M  V30 45 1 4 41
M  V30 46 1 5 42
M  V30 47 1 5 43
M  V30 48 1 6 44
M  V30 49 1 10 45 CFG=3
M  V30 50 1 11 46
M  V30 51 1 11 47
M  V30 52 1 12 48
M  V30 53 1 13 49
M  V30 54 1 13 50
M  V30 55 1 14 51 CFG=1
M  V30 56 1 16 52
M  V30 57 1 17 53
M  V30 58 1 20 54
M  V30 59 1 21 55
M  V30 60 1 24 56
M  V30 61 1 25 57
M  V30 62 1 28 58
M  V30 63 1 30 59
M  V30 64 1 31 60
M  V30 65 1 32 61
M  V30 END BOND
M  V30 END CTAB
M  END
>  <Dataset>  (817) 
ChEMBL_Kinases

>  <Ligand_Instance>  (817) 
nan

>  <PDB_ID>  (817) 
nan

>  <Standardized_SMILES>  (817) 
CN(C)CCNc1nc([C@@H]2CNC[C@H]2c2ccc(F)cc2)nc2ccc(-c3cn[nH]c3)cc12

>  <Name>  (817) 
nan

>  <Pocket>  (817) 
nan

>  <ATP_Site>  (817) 
nan

>  <Peripheral>  (817) 
nan

>  <Num_H_Atoms_ProtBoundConf>  (817) 
nan

>  <Num_Resolved_Atoms>  (817) 
nan

>  <Num_Not_Resolved_Atoms>  (817) 
nan

$$$$
CHEMBL2333880
     RDKit          3D

  0  0  0  0  0  0  0  0  0  0999 V3000
M  V30 BEGIN CTAB
M  V30 COUNTS 54 59 0 0 0
M  V30 BEGIN ATOM
M  V30 1 F 0.878035 -3.135953 6.619907 0
M  V30 2 C 1.440312 -2.756330 5.444886 0
M  V30 3 C 2.196680 -1.603080 5.329594 0
M  V30 4 C 2.772786 -1.218668 4.116637 0
M  V30 5 C 2.595878 -2.000621 2.977268 0
M  V30 6 C 3.169725 -1.673109 1.645686 0 CFG=2
M  V30 7 C 4.653429 -1.485681 1.652344 0
M  V30 8 N 4.932056 -0.108537 1.282131 0
M  V30 9 C 3.807091 0.195664 0.401941 0
M  V30 10 C 2.655748 -0.307111 1.251344 0 CFG=1
M  V30 11 C 1.379548 -0.363027 0.489427 0
M  V30 12 N 0.307018 0.372624 0.883148 0
M  V30 13 C -0.862589 0.361704 0.239909 0
M  V30 14 N -1.911763 1.193882 0.776212 0
M  V30 15 C -3.267576 1.208319 1.346047 0
M  V30 16 C -2.819597 2.408466 2.169159 0
M  V30 17 C -1.937246 2.640377 0.951132 0
M  V30 18 C -0.988600 -0.435921 -0.879973 0
M  V30 19 C -2.205273 -0.433131 -1.531357 0
M  V30 20 C -2.389620 -1.213198 -2.660292 0
M  V30 21 C -3.637312 -1.274732 -3.413523 0
M  V30 22 C -4.095157 -2.398089 -4.108993 0
M  V30 23 N -5.277654 -2.052946 -4.669648 0
M  V30 24 N -5.593422 -0.797249 -4.376584 0
M  V30 25 C -4.611493 -0.291518 -3.609421 0
M  V30 26 C -1.310243 -1.978654 -3.089554 0
M  V30 27 C -0.093644 -1.974646 -2.429274 0
M  V30 28 C 0.091489 -1.197780 -1.304270 0
M  V30 29 N 1.241785 -1.137007 -0.605555 0
M  V30 30 C 1.831737 -3.135881 3.161464 0
M  V30 31 C 1.240061 -3.563740 4.331752 0
M  V30 32 H 2.353342 -0.965586 6.213518 0
M  V30 33 H 3.368132 -0.311364 4.024598 0
M  V30 34 H 2.866247 -2.457544 0.925211 0
M  V30 35 H 5.092673 -1.745490 2.639874 0
M  V30 36 H 5.134223 -2.143241 0.893929 0
M  V30 37 H 5.823825 -0.051452 0.738248 0
M  V30 38 H 3.887234 -0.382166 -0.535852 0
M  V30 39 H 3.716950 1.280312 0.201527 0
M  V30 40 H 2.503880 0.375163 2.094314 0
M  V30 41 H -3.543357 0.341453 1.948856 0
M  V30 42 H -4.044068 1.443938 0.576663 0
M  V30 43 H -2.313360 2.076292 3.080923 0
M  V30 44 H -3.658475 3.122677 2.265273 0
M  V30 45 H -0.963036 3.079744 1.155677 0
M  V30 46 H -2.520523 3.196463 0.176187 0
M  V30 47 H -3.024699 0.166285 -1.181282 0
M  V30 48 H -3.625687 -3.385810 -4.210248 0
M  V30 49 H -6.451855 -0.289078 -4.685342 0
M  V30 50 H -4.540238 0.697279 -3.191467 0
M  V30 51 H -1.442455 -2.595032 -3.973575 0
M  V30 52 H 0.741419 -2.574072 -2.770526 0
M  V30 53 H 1.676060 -3.769132 2.284504 0
M  V30 54 H 0.662536 -4.477520 4.346148 0
M  V30 END ATOM
M  V30 BEGIN BOND
M  V30 1 1 1 2
M  V30 2 2 2 3
M  V30 3 1 3 4
M  V30 4 2 4 5
M  V30 5 1 5 6
M  V30 6 1 6 7
M  V30 7 1 7 8
M  V30 8 1 8 9
M  V30 9 1 9 10
M  V30 10 1 10 11
M  V30 11 2 11 12
M  V30 12 1 12 13
M  V30 13 1 13 14
M  V30 14 1 14 15
M  V30 15 1 15 16
M  V30 16 1 16 17
M  V30 17 2 13 18
M  V30 18 1 18 19
M  V30 19 2 19 20
M  V30 20 1 20 21
M  V30 21 1 21 22
M  V30 22 2 22 23
M  V30 23 1 23 24
M  V30 24 1 24 25
M  V30 25 1 20 26
M  V30 26 2 26 27
M  V30 27 1 27 28
M  V30 28 2 28 29
M  V30 29 1 5 30
M  V30 30 2 30 31
M  V30 31 1 31 2
M  V30 32 1 10 6
M  V30 33 1 29 11
M  V30 34 1 17 14
M  V30 35 1 28 18
M  V30 36 2 25 21
M  V30 37 1 3 32
M  V30 38 1 4 33
M  V30 39 1 6 34 CFG=3
M  V30 40 1 7 35
M  V30 41 1 7 36
M  V30 42 1 8 37
M  V30 43 1 9 38
M  V30 44 1 9 39
M  V30 45 1 10 40 CFG=1
M  V30 46 1 15 41
M  V30 47 1 15 42
M  V30 48 1 16 43
M  V30 49 1 16 44
M  V30 50 1 17 45
M  V30 51 1 17 46
M  V30 52 1 19 47
M  V30 53 1 22 48
M  V30 54 1 24 49
M  V30 55 1 25 50
M  V30 56 1 26 51
M  V30 57 1 27 52
M  V30 58 1 30 53
M  V30 59 1 31 54
M  V30 END BOND
M  V30 END CTAB
M  END
>  <Dataset>  (818) 
ChEMBL_Kinases

>  <Ligand_Instance>  (818) 
nan

>  <PDB_ID>  (818) 
nan

>  <Standardized_SMILES>  (818) 
Fc1ccc([C@@H]2CNC[C@H]2c2nc(N3CCC3)c3cc(-c4cn[nH]c4)ccc3n2)cc1

>  <Name>  (818) 
nan

>  <Pocket>  (818) 
nan

>  <ATP_Site>  (818) 
nan

>  <Peripheral>  (818) 
nan

>  <Num_H_Atoms_ProtBoundConf>  (818) 
nan

>  <Num_Resolved_Atoms>  (818) 
nan

>  <Num_Not_Resolved_Atoms>  (818) 
nan

$$$$
CHEMBL2333879
     RDKit          3D

  0  0  0  0  0  0  0  0  0  0999 V3000
M  V30 BEGIN CTAB
M  V30 COUNTS 53 57 0 0 0
M  V30 BEGIN ATOM
M  V30 1 C -1.155279 -3.613774 3.398902 0
M  V30 2 N -0.111280 -2.744353 2.851066 0
M  V30 3 C 1.173081 -2.673195 3.525890 0
M  V30 4 C -0.325654 -1.968638 1.674971 0
M  V30 5 N -0.217544 -0.620509 1.747443 0
M  V30 6 C -0.395426 0.204969 0.715477 0
M  V30 7 C -0.240015 1.672430 0.960321 0 CFG=2
M  V30 8 C -1.521440 2.345594 0.562478 0
M  V30 9 N -1.281108 3.103540 -0.643910 0
M  V30 10 C -0.043991 2.596006 -1.192577 0
M  V30 11 C 0.771045 2.280892 0.022945 0 CFG=1
M  V30 12 C 1.329113 3.492180 0.700962 0
M  V30 13 C 2.688713 3.374284 1.019371 0
M  V30 14 C 3.393601 4.403870 1.653876 0
M  V30 15 C 2.749379 5.577629 1.984132 0
M  V30 16 C 1.432416 5.665329 1.664253 0
M  V30 17 C 0.714229 4.669791 1.040715 0
M  V30 18 N -0.699941 -0.257772 -0.488285 0
M  V30 19 C -0.824083 -1.606062 -0.631099 0
M  V30 20 C -1.141004 -2.141424 -1.868223 0
M  V30 21 C -1.257939 -3.512656 -1.973166 0
M  V30 22 C -1.076129 -4.357092 -0.918459 0
M  V30 23 C -1.223842 -5.796724 -1.139038 0
M  V30 24 C -0.892144 -6.366071 -2.361513 0
M  V30 25 N -1.136377 -7.702204 -2.254633 0
M  V30 26 N -1.594680 -7.972662 -1.043242 0
M  V30 27 C -1.663950 -6.838348 -0.329059 0
M  V30 28 C -0.760346 -3.844981 0.320819 0
M  V30 29 C -0.643235 -2.472719 0.426270 0
M  V30 30 H -0.825524 -4.646672 3.549608 0
M  V30 31 H -1.421577 -3.129711 4.384276 0
M  V30 32 H -2.075627 -3.498558 2.788221 0
M  V30 33 H 1.120611 -3.127198 4.528403 0
M  V30 34 H 1.367576 -1.573049 3.690161 0
M  V30 35 H 2.000589 -3.045824 2.894460 0
M  V30 36 H 0.013863 1.867712 2.027901 0
M  V30 37 H -1.843755 3.018440 1.409312 0
M  V30 38 H -2.298076 1.564304 0.392898 0
M  V30 39 H -2.025125 2.850664 -1.331274 0
M  V30 40 H 0.446680 3.319183 -1.873293 0
M  V30 41 H -0.196472 1.682960 -1.764430 0
M  V30 42 H 1.598202 1.559235 -0.200614 0
M  V30 43 H 3.314218 2.491759 0.809397 0
M  V30 44 H 4.442437 4.307517 1.897137 0
M  V30 45 H 3.199889 6.423843 2.470714 0
M  V30 46 H 0.812156 6.541236 1.872754 0
M  V30 47 H -0.315196 4.722987 0.780921 0
M  V30 48 H -1.289333 -1.489057 -2.718060 0
M  V30 49 H -1.509382 -3.939987 -2.953906 0
M  V30 50 H -0.509551 -5.867165 -3.249285 0
M  V30 51 H -1.886484 -8.877953 -0.603127 0
M  V30 52 H -1.965685 -6.557231 0.676114 0
M  V30 53 H -0.614539 -4.508747 1.162632 0
M  V30 END ATOM
M  V30 BEGIN BOND
M  V30 1 1 1 2
M  V30 2 1 2 3
M  V30 3 1 2 4
M  V30 4 2 4 5
M  V30 5 1 5 6
M  V30 6 1 6 7
M  V30 7 1 7 8
M  V30 8 1 8 9
M  V30 9 1 9 10
M  V30 10 1 10 11
M  V30 11 1 11 12
M  V30 12 2 12 13
M  V30 13 1 13 14
M  V30 14 2 14 15
M  V30 15 1 15 16
M  V30 16 2 16 17
M  V30 17 2 6 18
M  V30 18 1 18 19
M  V30 19 2 19 20
M  V30 20 1 20 21
M  V30 21 2 21 22
M  V30 22 1 22 23
M  V30 23 1 23 24
M  V30 24 2 24 25
M  V30 25 1 25 26
M  V30 26 1 26 27
M  V30 27 1 22 28
M  V30 28 2 28 29
M  V30 29 1 29 4
M  V30 30 1 11 7
M  V30 31 1 17 12
M  V30 32 1 29 19
M  V30 33 2 27 23
M  V30 34 1 1 30
M  V30 35 1 1 31
M  V30 36 1 1 32
M  V30 37 1 3 33
M  V30 38 1 3 34
M  V30 39 1 3 35
M  V30 40 1 7 36 CFG=1
M  V30 41 1 8 37
M  V30 42 1 8 38
M  V30 43 1 9 39
M  V30 44 1 10 40
M  V30 45 1 10 41
M  V30 46 1 11 42 CFG=3
M  V30 47 1 13 43
M  V30 48 1 14 44
M  V30 49 1 15 45
M  V30 50 1 16 46
M  V30 51 1 17 47
M  V30 52 1 20 48
M  V30 53 1 21 49
M  V30 54 1 24 50
M  V30 55 1 26 51
M  V30 56 1 27 52
M  V30 57 1 28 53
M  V30 END BOND
M  V30 END CTAB
M  END
>  <Dataset>  (819) 
ChEMBL_Kinases

>  <Ligand_Instance>  (819) 
nan

>  <PDB_ID>  (819) 
nan

>  <Standardized_SMILES>  (819) 
CN(C)c1nc([C@@H]2CNC[C@H]2c2ccccc2)nc2ccc(-c3cn[nH]c3)cc12

>  <Name>  (819) 
nan

>  <Pocket>  (819) 
nan

>  <ATP_Site>  (819) 
nan

>  <Peripheral>  (819) 
nan

>  <Num_H_Atoms_ProtBoundConf>  (819) 
nan

>  <Num_Resolved_Atoms>  (819) 
nan

>  <Num_Not_Resolved_Atoms>  (819) 
nan

$$$$
CHEMBL233373
     RDKit          3D

  0  0  0  0  0  0  0  0  0  0999 V3000
M  V30 BEGIN CTAB
M  V30 COUNTS 29 31 0 0 0
M  V30 BEGIN ATOM
M  V30 1 C -0.334389 -4.838352 2.284725 0
M  V30 2 C -0.655206 -3.398775 2.397029 0
M  V30 3 C -1.502040 -2.908488 3.362618 0
M  V30 4 C -1.749591 -1.549982 3.402295 0
M  V30 5 C -1.158141 -0.680967 2.488336 0
M  V30 6 C -0.302810 -1.231761 1.523831 0
M  V30 7 C -0.054277 -2.589181 1.481828 0
M  V30 8 C 0.154136 -0.108274 0.715725 0
M  V30 9 C 0.989668 -0.109671 -0.296322 0
M  V30 10 C 1.459812 0.988341 -1.122919 0
M  V30 11 C 0.891958 2.037321 -1.812479 0
M  V30 12 C 1.883254 2.787562 -2.399610 0
M  V30 13 C 3.098073 2.216252 -2.085361 0
M  V30 14 N 2.784365 1.137515 -1.316546 0
M  V30 15 C -0.433452 1.115636 1.205277 0
M  V30 16 O -0.295889 2.291977 0.793306 0
M  V30 17 N -1.254923 0.731979 2.319560 0
M  V30 18 H 0.632272 -5.017664 1.778692 0
M  V30 19 H -0.374568 -5.338742 3.274299 0
M  V30 20 H -1.107491 -5.266537 1.583546 0
M  V30 21 H -1.980410 -3.571872 4.085127 0
M  V30 22 H -2.413662 -1.099192 4.150455 0
M  V30 23 H 0.616104 -2.918163 0.701769 0
M  V30 24 H 1.382800 -1.112501 -0.540847 0
M  V30 25 H -0.168975 2.185200 -1.859853 0
M  V30 26 H 1.791200 3.674465 -3.007590 0
M  V30 27 H 4.064440 2.578311 -2.402971 0
M  V30 28 H 3.598946 0.553189 -0.964197 0
M  V30 29 H -1.838306 1.389972 2.908971 0
M  V30 END ATOM
M  V30 BEGIN BOND
M  V30 1 1 1 2
M  V30 2 2 2 3
M  V30 3 1 3 4
M  V30 4 2 4 5
M  V30 5 1 5 6
M  V30 6 2 6 7
M  V30 7 1 6 8
M  V30 8 2 8 9
M  V30 9 1 9 10
M  V30 10 2 10 11
M  V30 11 1 11 12
M  V30 12 2 12 13
M  V30 13 1 13 14
M  V30 14 1 8 15
M  V30 15 2 15 16
M  V30 16 1 15 17
M  V30 17 1 7 2
M  V30 18 1 14 10
M  V30 19 1 17 5
M  V30 20 1 1 18
M  V30 21 1 1 19
M  V30 22 1 1 20
M  V30 23 1 3 21
M  V30 24 1 4 22
M  V30 25 1 7 23
M  V30 26 1 9 24
M  V30 27 1 11 25
M  V30 28 1 12 26
M  V30 29 1 13 27
M  V30 30 1 14 28
M  V30 31 1 17 29
M  V30 END BOND
M  V30 END CTAB
M  END
>  <Dataset>  (820) 
ChEMBL_Kinases

>  <Ligand_Instance>  (820) 
nan

>  <PDB_ID>  (820) 
nan

>  <Standardized_SMILES>  (820) 
Cc1ccc2c(c1)/C(=C/c1ccc[nH]1)C(=O)N2

>  <Name>  (820) 
nan

>  <Pocket>  (820) 
nan

>  <ATP_Site>  (820) 
nan

>  <Peripheral>  (820) 
nan

>  <Num_H_Atoms_ProtBoundConf>  (820) 
nan

>  <Num_Resolved_Atoms>  (820) 
nan

>  <Num_Not_Resolved_Atoms>  (820) 
nan

$$$$
CHEMBL2333139
     RDKit          3D

  0  0  0  0  0  0  0  0  0  0999 V3000
M  V30 BEGIN CTAB
M  V30 COUNTS 38 40 0 0 0
M  V30 BEGIN ATOM
M  V30 1 N -0.805793 -4.930093 3.228003 0
M  V30 2 C -1.246227 -3.813737 2.499493 0
M  V30 3 O -2.340019 -4.279725 2.846719 0
M  V30 4 C -0.341803 -2.913843 1.869824 0
M  V30 5 N 0.972596 -3.186954 1.933390 0
M  V30 6 N 1.834597 -2.369560 1.310270 0
M  V30 7 C 1.332581 -1.291318 0.636123 0
M  V30 8 C 2.218017 -0.447930 -0.006983 0
M  V30 9 C 1.771314 0.666866 -0.710188 0
M  V30 10 C 2.650488 1.598746 -1.411178 0
M  V30 11 C 3.827293 1.153792 -1.978878 0
M  V30 12 C 4.684781 2.000542 -2.648700 0
M  V30 13 N 4.356734 3.319933 -2.751943 0
M  V30 14 C 3.197950 3.760176 -2.193431 0
M  V30 15 C 2.319265 2.937214 -1.516827 0
M  V30 16 C 0.416033 0.934315 -0.765611 0
M  V30 17 C -0.490251 0.106545 -0.131036 0
M  V30 18 C -0.033061 -0.993952 0.561727 0
M  V30 19 C -0.922594 -1.856215 1.218246 0
M  V30 20 N -2.318202 -1.602873 1.221358 0
M  V30 21 C -3.102259 -0.780570 2.084819 0
M  V30 22 C -3.080339 -1.087821 3.536420 0
M  V30 23 O -3.908436 -0.161570 4.222017 0
M  V30 24 H -0.494910 -5.750349 3.763554 0
M  V30 25 H 0.211815 -5.134180 3.340130 0
M  V30 26 H 3.270728 -0.605535 0.002764 0
M  V30 27 H 4.123474 0.118592 -1.919729 0
M  V30 28 H 5.618588 1.748703 -3.121203 0
M  V30 29 H 2.917903 4.816708 -2.266450 0
M  V30 30 H 1.412072 3.336150 -1.091482 0
M  V30 31 H -0.060977 1.759008 -1.272641 0
M  V30 32 H -1.566742 0.249232 -0.128491 0
M  V30 33 H -2.580420 -2.207323 0.395727 0
M  V30 34 H -4.169986 -0.890582 1.726378 0
M  V30 35 H -2.829288 0.309076 1.998214 0
M  V30 36 H -3.497254 -2.074428 3.828578 0
M  V30 37 H -2.078007 -0.988369 3.993327 0
M  V30 38 H -3.794944 0.730198 3.779867 0
M  V30 END ATOM
M  V30 BEGIN BOND
M  V30 1 1 1 2
M  V30 2 2 2 3
M  V30 3 1 2 4
M  V30 4 2 4 5
M  V30 5 1 5 6
M  V30 6 2 6 7
M  V30 7 1 7 8
M  V30 8 2 8 9
M  V30 9 1 9 10
M  V30 10 2 10 11
M  V30 11 1 11 12
M  V30 12 2 12 13
M  V30 13 1 13 14
M  V30 14 2 14 15
M  V30 15 1 9 16
M  V30 16 2 16 17
M  V30 17 1 17 18
M  V30 18 2 18 19
M  V30 19 1 19 20
M  V30 20 1 20 21
M  V30 21 1 21 22
M  V30 22 1 22 23
M  V30 23 1 19 4
M  V30 24 1 18 7
M  V30 25 1 15 10
M  V30 26 1 1 24
M  V30 27 1 1 25
M  V30 28 1 8 26
M  V30 29 1 11 27
M  V30 30 1 12 28
M  V30 31 1 14 29
M  V30 32 1 15 30
M  V30 33 1 16 31
M  V30 34 1 17 32
M  V30 35 1 20 33
M  V30 36 1 21 34
M  V30 37 1 21 35
M  V30 38 1 22 36
M  V30 39 1 22 37
M  V30 40 1 23 38
M  V30 END BOND
M  V30 END CTAB
M  END
>  <Dataset>  (821) 
ChEMBL_Kinases

>  <Ligand_Instance>  (821) 
nan

>  <PDB_ID>  (821) 
nan

>  <Standardized_SMILES>  (821) 
NC(=O)c1nnc2cc(-c3ccncc3)ccc2c1NCCO

>  <Name>  (821) 
nan

>  <Pocket>  (821) 
nan

>  <ATP_Site>  (821) 
nan

>  <Peripheral>  (821) 
nan

>  <Num_H_Atoms_ProtBoundConf>  (821) 
nan

>  <Num_Resolved_Atoms>  (821) 
nan

>  <Num_Not_Resolved_Atoms>  (821) 
nan

$$$$
CHEMBL2333138
     RDKit          3D

  0  0  0  0  0  0  0  0  0  0999 V3000
M  V30 BEGIN CTAB
M  V30 COUNTS 41 43 0 0 0
M  V30 BEGIN ATOM
M  V30 1 N -0.060622 -5.364877 2.255186 0
M  V30 2 C -0.510690 -4.278024 1.482762 0
M  V30 3 O -1.570698 -4.820227 1.194838 0
M  V30 4 C 0.266032 -3.096734 1.306927 0
M  V30 5 N 1.479718 -3.014890 1.857970 0
M  V30 6 N 2.241098 -1.924696 1.694064 0
M  V30 7 C 1.840318 -0.860270 0.976424 0
M  V30 8 C 2.681072 0.226513 0.851934 0
M  V30 9 C 2.250555 1.308523 0.110873 0
M  V30 10 C 3.113670 2.473069 -0.042057 0
M  V30 11 C 3.945599 2.744212 1.030442 0
M  V30 12 C 4.791704 3.824965 0.967779 0
M  V30 13 N 4.836677 4.634959 -0.114026 0
M  V30 14 C 4.029842 4.379921 -1.165647 0
M  V30 15 C 3.149550 3.293472 -1.154860 0
M  V30 16 C 0.990054 1.288095 -0.492615 0
M  V30 17 C 0.202752 0.167897 -0.325671 0
M  V30 18 C 0.567958 -0.947818 0.399953 0
M  V30 19 C -0.225791 -2.062372 0.560802 0
M  V30 20 N -1.479495 -1.958989 -0.064014 0
M  V30 21 C -2.849669 -1.533538 -0.002201 0
M  V30 22 C -3.650269 -2.133156 1.118192 0
M  V30 23 C -3.118655 -1.823948 2.486532 0
M  V30 24 O -3.957479 -2.443819 3.422578 0
M  V30 25 H 0.502939 -6.175887 1.903673 0
M  V30 26 H -0.213781 -5.527310 3.269656 0
M  V30 27 H 3.637201 0.211147 1.324634 0
M  V30 28 H 3.958676 2.142543 1.915916 0
M  V30 29 H 5.457211 4.070865 1.783966 0
M  V30 30 H 3.980485 4.963325 -2.088127 0
M  V30 31 H 2.483879 3.047667 -1.972092 0
M  V30 32 H 0.640573 2.144657 -1.083311 0
M  V30 33 H -0.756184 0.187537 -0.803005 0
M  V30 34 H -1.177726 -2.431267 -0.969892 0
M  V30 35 H -3.370356 -1.660602 -0.973348 0
M  V30 36 H -2.859541 -0.413793 0.175671 0
M  V30 37 H -4.691982 -1.678803 1.099099 0
M  V30 38 H -3.739962 -3.224075 0.949000 0
M  V30 39 H -3.177223 -0.739462 2.720894 0
M  V30 40 H -2.092241 -2.177895 2.678089 0
M  V30 41 H -3.992366 -1.912969 4.268095 0
M  V30 END ATOM
M  V30 BEGIN BOND
M  V30 1 1 1 2
M  V30 2 2 2 3
M  V30 3 1 2 4
M  V30 4 2 4 5
M  V30 5 1 5 6
M  V30 6 2 6 7
M  V30 7 1 7 8
M  V30 8 2 8 9
M  V30 9 1 9 10
M  V30 10 2 10 11
M  V30 11 1 11 12
M  V30 12 2 12 13
M  V30 13 1 13 14
M  V30 14 2 14 15
M  V30 15 1 9 16
M  V30 16 2 16 17
M  V30 17 1 17 18
M  V30 18 2 18 19
M  V30 19 1 19 20
M  V30 20 1 20 21
M  V30 21 1 21 22
M  V30 22 1 22 23
M  V30 23 1 23 24
M  V30 24 1 19 4
M  V30 25 1 18 7
M  V30 26 1 15 10
M  V30 27 1 1 25
M  V30 28 1 1 26
M  V30 29 1 8 27
M  V30 30 1 11 28
M  V30 31 1 12 29
M  V30 32 1 14 30
M  V30 33 1 15 31
M  V30 34 1 16 32
M  V30 35 1 17 33
M  V30 36 1 20 34
M  V30 37 1 21 35
M  V30 38 1 21 36
M  V30 39 1 22 37
M  V30 40 1 22 38
M  V30 41 1 23 39
M  V30 42 1 23 40
M  V30 43 1 24 41
M  V30 END BOND
M  V30 END CTAB
M  END
>  <Dataset>  (822) 
ChEMBL_Kinases

>  <Ligand_Instance>  (822) 
nan

>  <PDB_ID>  (822) 
nan

>  <Standardized_SMILES>  (822) 
NC(=O)c1nnc2cc(-c3ccncc3)ccc2c1NCCCO

>  <Name>  (822) 
nan

>  <Pocket>  (822) 
nan

>  <ATP_Site>  (822) 
nan

>  <Peripheral>  (822) 
nan

>  <Num_H_Atoms_ProtBoundConf>  (822) 
nan

>  <Num_Resolved_Atoms>  (822) 
nan

>  <Num_Not_Resolved_Atoms>  (822) 
nan

$$$$
CHEMBL2333137
     RDKit          3D

  0  0  0  0  0  0  0  0  0  0999 V3000
M  V30 BEGIN CTAB
M  V30 COUNTS 54 57 0 0 0
M  V30 BEGIN ATOM
M  V30 1 C 4.343561 -3.109968 -0.875237 0
M  V30 2 C 3.191544 -3.564051 -0.057223 0 CFG=1
M  V30 3 N 2.802427 -2.765152 1.050317 0
M  V30 4 C 2.519157 -1.431226 1.359829 0
M  V30 5 C 3.544034 -0.595316 1.813820 0
M  V30 6 C 4.903715 -1.044453 2.063688 0
M  V30 7 N 5.948351 -0.178697 2.481937 0
M  V30 8 O 5.477508 -2.155450 1.996513 0
M  V30 9 N 3.350690 0.722190 2.103991 0
M  V30 10 N 2.179640 1.296813 1.976800 0
M  V30 11 C 1.124879 0.598275 1.553241 0
M  V30 12 C -0.120834 1.167082 1.416514 0
M  V30 13 C -1.193027 0.439337 0.991092 0
M  V30 14 C -2.433558 1.210621 0.904625 0
M  V30 15 C -2.383505 2.551124 0.576085 0
M  V30 16 C -3.617786 3.173707 0.525821 0
M  V30 17 C -4.816182 2.538262 0.777131 0
M  V30 18 S -6.360716 3.359084 0.703006 0
M  V30 19 C -6.828367 4.044950 2.259732 0
M  V30 20 O -7.448523 2.430255 0.231127 0
M  V30 21 O -6.303882 4.489327 -0.284955 0
M  V30 22 C -4.781488 1.194974 1.099720 0
M  V30 23 C -3.582333 0.488879 1.173048 0
M  V30 24 C -1.016132 -0.896628 0.693358 0
M  V30 25 C 0.231263 -1.427382 0.839601 0
M  V30 26 C 1.337641 -0.729817 1.264204 0
M  V30 27 C 2.122595 -4.078646 -0.930479 0
M  V30 28 C 1.071612 -4.913773 -0.531290 0
M  V30 29 C 0.068041 -5.393730 -1.314645 0
M  V30 30 C 0.060147 -5.039539 -2.633542 0
M  V30 31 C 1.031651 -4.232918 -3.129876 0
M  V30 32 C 2.039439 -3.765783 -2.287658 0
M  V30 33 H 5.349752 -3.279600 -0.439468 0
M  V30 34 H 4.257084 -2.089994 -1.240791 0
M  V30 35 H 4.354497 -3.787759 -1.787158 0
M  V30 36 H 3.572975 -4.544565 0.459018 0
M  V30 37 H 2.619889 -3.110201 2.040443 0
M  V30 38 H 6.265940 0.767630 2.128155 0
M  V30 39 H 6.654801 -0.278729 3.245791 0
M  V30 40 H -0.158082 2.229282 1.677046 0
M  V30 41 H -1.476104 3.078940 0.374196 0
M  V30 42 H -3.647027 4.222196 0.273918 0
M  V30 43 H -6.480237 3.330554 3.034900 0
M  V30 44 H -6.454378 5.061140 2.401681 0
M  V30 45 H -7.943520 4.037389 2.311048 0
M  V30 46 H -5.722038 0.661247 1.306704 0
M  V30 47 H -3.565198 -0.559047 1.426356 0
M  V30 48 H -1.905283 -1.413954 0.362785 0
M  V30 49 H 0.320696 -2.468169 0.605162 0
M  V30 50 H 1.062155 -5.205298 0.515340 0
M  V30 51 H -0.695767 -6.034956 -0.895199 0
M  V30 52 H -0.731012 -5.416701 -3.256787 0
M  V30 53 H 0.998605 -3.970424 -4.176189 0
M  V30 54 H 2.751649 -3.134784 -2.768546 0
M  V30 END ATOM
M  V30 BEGIN BOND
M  V30 1 1 1 2
M  V30 2 1 2 3
M  V30 3 1 3 4
M  V30 4 2 4 5
M  V30 5 1 5 6
M  V30 6 1 6 7
M  V30 7 2 6 8
M  V30 8 1 5 9
M  V30 9 2 9 10
M  V30 10 1 10 11
M  V30 11 2 11 12
M  V30 12 1 12 13
M  V30 13 1 13 14
M  V30 14 2 14 15
M  V30 15 1 15 16
M  V30 16 2 16 17
M  V30 17 1 17 18
M  V30 18 1 18 19
M  V30 19 2 18 20
M  V30 20 2 18 21
M  V30 21 1 17 22
M  V30 22 2 22 23
M  V30 23 2 13 24
M  V30 24 1 24 25
M  V30 25 2 25 26
M  V30 26 1 2 27
M  V30 27 2 27 28
M  V30 28 1 28 29
M  V30 29 2 29 30
M  V30 30 1 30 31
M  V30 31 2 31 32
M  V30 32 1 26 4
M  V30 33 1 32 27
M  V30 34 1 26 11
M  V30 35 1 23 14
M  V30 36 1 1 33
M  V30 37 1 1 34
M  V30 38 1 1 35
M  V30 39 1 2 36 CFG=1
M  V30 40 1 3 37
M  V30 41 1 7 38
M  V30 42 1 7 39
M  V30 43 1 12 40
M  V30 44 1 15 41
M  V30 45 1 16 42
M  V30 46 1 19 43
M  V30 47 1 19 44
M  V30 48 1 19 45
M  V30 49 1 22 46
M  V30 50 1 23 47
M  V30 51 1 24 48
M  V30 52 1 25 49
M  V30 53 1 28 50
M  V30 54 1 29 51
M  V30 55 1 30 52
M  V30 56 1 31 53
M  V30 57 1 32 54
M  V30 END BOND
M  V30 END CTAB
M  END
>  <Dataset>  (823) 
ChEMBL_Kinases

>  <Ligand_Instance>  (823) 
nan

>  <PDB_ID>  (823) 
nan

>  <Standardized_SMILES>  (823) 
C[C@@H](Nc1c(C(N)=O)nnc2cc(-c3ccc(S(C)(=O)=O)cc3)ccc12)c1ccccc1

>  <Name>  (823) 
nan

>  <Pocket>  (823) 
nan

>  <ATP_Site>  (823) 
nan

>  <Peripheral>  (823) 
nan

>  <Num_H_Atoms_ProtBoundConf>  (823) 
nan

>  <Num_Resolved_Atoms>  (823) 
nan

>  <Num_Not_Resolved_Atoms>  (823) 
nan

$$$$
CHEMBL2333136
     RDKit          3D

  0  0  0  0  0  0  0  0  0  0999 V3000
M  V30 BEGIN CTAB
M  V30 COUNTS 38 40 0 0 0
M  V30 BEGIN ATOM
M  V30 1 C 1.208580 -6.314335 3.895064 0
M  V30 2 S 2.114884 -5.948205 2.390936 0
M  V30 3 O 3.584994 -5.946827 2.720530 0
M  V30 4 O 1.777858 -7.004349 1.381129 0
M  V30 5 C 1.670621 -4.340698 1.857448 0
M  V30 6 C 0.609545 -4.109533 0.995617 0
M  V30 7 C 0.245615 -2.849957 0.565051 0
M  V30 8 C 1.001822 -1.785779 1.038787 0
M  V30 9 C 0.628646 -0.448126 0.592811 0
M  V30 10 C 1.526542 0.582160 0.426338 0
M  V30 11 C 1.147086 1.839537 0.003395 0
M  V30 12 C -0.193938 2.086428 -0.268303 0
M  V30 13 C -0.566739 3.366021 -0.696637 0
M  V30 14 N 0.421080 4.377343 -0.844376 0
M  V30 15 C -1.914514 3.531207 -0.945449 0
M  V30 16 C -2.304077 4.864287 -1.391027 0
M  V30 17 N -3.618683 5.303576 -1.713347 0
M  V30 18 O -1.452642 5.753634 -1.523884 0
M  V30 19 N -2.796257 2.532179 -0.785631 0
M  V30 20 N -2.444132 1.315772 -0.378824 0
M  V30 21 C -1.129118 1.069023 -0.111131 0
M  V30 22 C -0.706606 -0.180339 0.315868 0
M  V30 23 C 2.072428 -1.933804 1.898607 0
M  V30 24 C 2.374259 -3.229984 2.284447 0
M  V30 25 H 0.893023 -5.372255 4.415598 0
M  V30 26 H 1.800843 -6.912734 4.601371 0
M  V30 27 H 0.263376 -6.816698 3.588977 0
M  V30 28 H 0.077471 -4.987977 0.677243 0
M  V30 29 H -0.589414 -2.700615 -0.109534 0
M  V30 30 H 2.563583 0.395525 0.635169 0
M  V30 31 H 1.860611 2.623390 -0.118840 0
M  V30 32 H 0.775591 4.890602 -1.685763 0
M  V30 33 H 0.997253 4.800680 -0.056305 0
M  V30 34 H -4.336571 4.530318 -1.576478 0
M  V30 35 H -4.451812 4.662529 -1.633678 0
M  V30 36 H -1.487039 -0.946240 0.422918 0
M  V30 37 H 2.637718 -1.088073 2.246882 0
M  V30 38 H 3.212831 -3.428820 2.967202 0
M  V30 END ATOM
M  V30 BEGIN BOND
M  V30 1 1 1 2
M  V30 2 2 2 3
M  V30 3 2 2 4
M  V30 4 1 2 5
M  V30 5 2 5 6
M  V30 6 1 6 7
M  V30 7 2 7 8
M  V30 8 1 8 9
M  V30 9 2 9 10
M  V30 10 1 10 11
M  V30 11 2 11 12
M  V30 12 1 12 13
M  V30 13 1 13 14
M  V30 14 2 13 15
M  V30 15 1 15 16
M  V30 16 1 16 17
M  V30 17 2 16 18
M  V30 18 1 15 19
M  V30 19 2 19 20
M  V30 20 1 20 21
M  V30 21 2 21 22
M  V30 22 1 8 23
M  V30 23 2 23 24
M  V30 24 1 24 5
M  V30 25 1 22 9
M  V30 26 1 21 12
M  V30 27 1 1 25
M  V30 28 1 1 26
M  V30 29 1 1 27
M  V30 30 1 6 28
M  V30 31 1 7 29
M  V30 32 1 10 30
M  V30 33 1 11 31
M  V30 34 1 14 32
M  V30 35 1 14 33
M  V30 36 1 17 34
M  V30 37 1 17 35
M  V30 38 1 22 36
M  V30 39 1 23 37
M  V30 40 1 24 38
M  V30 END BOND
M  V30 END CTAB
M  END
>  <Dataset>  (824) 
ChEMBL_Kinases

>  <Ligand_Instance>  (824) 
nan

>  <PDB_ID>  (824) 
nan

>  <Standardized_SMILES>  (824) 
CS(=O)(=O)c1ccc(-c2ccc3c(N)c(C(N)=O)nnc3c2)cc1

>  <Name>  (824) 
nan

>  <Pocket>  (824) 
nan

>  <ATP_Site>  (824) 
nan

>  <Peripheral>  (824) 
nan

>  <Num_H_Atoms_ProtBoundConf>  (824) 
nan

>  <Num_Resolved_Atoms>  (824) 
nan

>  <Num_Not_Resolved_Atoms>  (824) 
nan

$$$$
CHEMBL2333135
     RDKit          3D

  0  0  0  0  0  0  0  0  0  0999 V3000
M  V30 BEGIN CTAB
M  V30 COUNTS 41 43 0 0 0
M  V30 BEGIN ATOM
M  V30 1 C 2.941027 -4.913073 0.945850 0
M  V30 2 N 3.643800 -3.631044 1.039535 0
M  V30 3 C 3.322545 -2.653244 0.056451 0
M  V30 4 C 3.947638 -2.494131 -1.155868 0
M  V30 5 C 5.039845 -3.406771 -1.469088 0
M  V30 6 N 5.780231 -3.377586 -2.664026 0
M  V30 7 O 5.366078 -4.295742 -0.627778 0
M  V30 8 N 3.583024 -1.546002 -2.026767 0
M  V30 9 N 2.581947 -0.690258 -1.768815 0
M  V30 10 C 1.912085 -0.772401 -0.603646 0
M  V30 11 C 0.876158 0.094579 -0.308741 0
M  V30 12 C 0.190664 0.008763 0.886166 0
M  V30 13 C -0.914425 0.884357 1.274848 0
M  V30 14 C -1.734752 1.367404 0.273376 0
M  V30 15 C -2.776093 2.193351 0.646965 0
M  V30 16 C -3.034630 2.555573 1.954702 0
M  V30 17 S -4.381717 3.615601 2.372916 0
M  V30 18 C -5.860226 2.679096 2.696996 0
M  V30 19 O -4.003071 4.333386 3.644849 0
M  V30 20 O -4.637308 4.603783 1.283455 0
M  V30 21 C -2.184831 2.047441 2.932394 0
M  V30 22 C -1.119234 1.210324 2.612446 0
M  V30 23 C 0.546494 -0.971430 1.819349 0
M  V30 24 C 1.579028 -1.806509 1.481342 0
M  V30 25 C 2.284181 -1.756487 0.310135 0
M  V30 26 H 2.355792 -4.999984 0.014418 0
M  V30 27 H 3.661602 -5.738911 0.976975 0
M  V30 28 H 2.262158 -5.052712 1.810925 0
M  V30 29 H 4.321562 -3.563160 1.832472 0
M  V30 30 H 5.307199 -3.151709 -3.570263 0
M  V30 31 H 6.802768 -3.567043 -2.745295 0
M  V30 32 H 0.569811 0.874787 -1.015480 0
M  V30 33 H -1.600369 1.131168 -0.777454 0
M  V30 34 H -3.440350 2.591213 -0.112112 0
M  V30 35 H -5.941755 2.331125 3.736666 0
M  V30 36 H -6.000776 1.860101 1.964558 0
M  V30 37 H -6.720308 3.378808 2.510009 0
M  V30 38 H -2.375976 2.323039 3.959769 0
M  V30 39 H -0.466696 0.824201 3.394446 0
M  V30 40 H 0.021985 -1.054450 2.759934 0
M  V30 41 H 1.847731 -2.561504 2.208467 0
M  V30 END ATOM
M  V30 BEGIN BOND
M  V30 1 1 1 2
M  V30 2 1 2 3
M  V30 3 2 3 4
M  V30 4 1 4 5
M  V30 5 1 5 6
M  V30 6 2 5 7
M  V30 7 1 4 8
M  V30 8 2 8 9
M  V30 9 1 9 10
M  V30 10 2 10 11
M  V30 11 1 11 12
M  V30 12 1 12 13
M  V30 13 2 13 14
M  V30 14 1 14 15
M  V30 15 2 15 16
M  V30 16 1 16 17
M  V30 17 1 17 18
M  V30 18 2 17 19
M  V30 19 2 17 20
M  V30 20 1 16 21
M  V30 21 2 21 22
M  V30 22 2 12 23
M  V30 23 1 23 24
M  V30 24 2 24 25
M  V30 25 1 25 3
M  V30 26 1 25 10
M  V30 27 1 22 13
M  V30 28 1 1 26
M  V30 29 1 1 27
M  V30 30 1 1 28
M  V30 31 1 2 29
M  V30 32 1 6 30
M  V30 33 1 6 31
M  V30 34 1 11 32
M  V30 35 1 14 33
M  V30 36 1 15 34
M  V30 37 1 18 35
M  V30 38 1 18 36
M  V30 39 1 18 37
M  V30 40 1 21 38
M  V30 41 1 22 39
M  V30 42 1 23 40
M  V30 43 1 24 41
M  V30 END BOND
M  V30 END CTAB
M  END
>  <Dataset>  (825) 
ChEMBL_Kinases

>  <Ligand_Instance>  (825) 
nan

>  <PDB_ID>  (825) 
nan

>  <Standardized_SMILES>  (825) 
CNc1c(C(N)=O)nnc2cc(-c3ccc(S(C)(=O)=O)cc3)ccc12

>  <Name>  (825) 
nan

>  <Pocket>  (825) 
nan

>  <ATP_Site>  (825) 
nan

>  <Peripheral>  (825) 
nan

>  <Num_H_Atoms_ProtBoundConf>  (825) 
nan

>  <Num_Resolved_Atoms>  (825) 
nan

>  <Num_Not_Resolved_Atoms>  (825) 
nan

$$$$
CHEMBL2348936
     RDKit          3D

  0  0  0  0  0  0  0  0  0  0999 V3000
M  V30 BEGIN CTAB
M  V30 COUNTS 37 40 0 0 0
M  V30 BEGIN ATOM
M  V30 1 F 0.243694 -4.209953 2.255538 0
M  V30 2 C 1.181277 -4.551194 1.292107 0
M  V30 3 F 0.475797 -4.526475 0.081112 0
M  V30 4 F 1.665721 -5.800521 1.532701 0
M  V30 5 C 2.238262 -3.514989 1.169680 0
M  V30 6 C 3.392359 -3.639289 1.915657 0
M  V30 7 C 4.395135 -2.695858 1.827262 0
M  V30 8 C 4.280981 -1.602036 0.995834 0
M  V30 9 C 3.140872 -1.456585 0.243027 0
M  V30 10 S 2.724649 -0.152166 -0.908398 0
M  V30 11 C 1.873508 1.148672 -0.025088 0
M  V30 12 C 2.446244 2.242081 0.591004 0
M  V30 13 C 1.591126 3.125044 1.217792 0
M  V30 14 C 0.231900 2.886912 1.204733 0
M  V30 15 N -0.790213 3.583460 1.733287 0
M  V30 16 N -1.932950 2.940130 1.449852 0
M  V30 17 C -1.650698 1.832007 0.740829 0
M  V30 18 C -2.540798 0.809679 0.199595 0
M  V30 19 C -3.792357 0.564698 0.752197 0
M  V30 20 C -4.648647 -0.400742 0.251415 0
M  V30 21 C -4.225366 -1.139452 -0.840483 0
M  V30 22 C -2.982778 -0.933829 -1.430548 0
M  V30 23 C -2.154304 0.053554 -0.887313 0
M  V30 24 N -0.305143 1.811440 0.596167 0
M  V30 25 N 0.538565 0.988794 0.007584 0
M  V30 26 C 2.123341 -2.406589 0.327602 0
M  V30 27 H 3.524289 -4.475239 2.576586 0
M  V30 28 H 5.315887 -2.758734 2.396991 0
M  V30 29 H 4.992826 -0.802976 0.842475 0
M  V30 30 H 3.524028 2.290790 0.515209 0
M  V30 31 H 2.063331 3.973727 1.693279 0
M  V30 32 H -4.122893 1.139696 1.602804 0
M  V30 33 H -5.629632 -0.600928 0.675556 0
M  V30 34 H -4.864258 -1.916500 -1.276598 0
M  V30 35 H -2.686170 -1.529507 -2.281642 0
M  V30 36 H -1.214780 0.168707 -1.377880 0
M  V30 37 H 1.174840 -2.402253 -0.216953 0
M  V30 END ATOM
M  V30 BEGIN BOND
M  V30 1 1 1 2
M  V30 2 1 2 3
M  V30 3 1 2 4
M  V30 4 1 2 5
M  V30 5 2 5 6
M  V30 6 1 6 7
M  V30 7 2 7 8
M  V30 8 1 8 9
M  V30 9 1 9 10
M  V30 10 1 10 11
M  V30 11 1 11 12
M  V30 12 2 12 13
M  V30 13 1 13 14
M  V30 14 2 14 15
M  V30 15 1 15 16
M  V30 16 2 16 17
M  V30 17 1 17 18
M  V30 18 2 18 19
M  V30 19 1 19 20
M  V30 20 2 20 21
M  V30 21 1 21 22
M  V30 22 2 22 23
M  V30 23 1 17 24
M  V30 24 1 24 25
M  V30 25 2 9 26
M  V30 26 1 26 5
M  V30 27 2 25 11
M  V30 28 1 24 14
M  V30 29 1 23 18
M  V30 30 1 6 27
M  V30 31 1 7 28
M  V30 32 1 8 29
M  V30 33 1 12 30
M  V30 34 1 13 31
M  V30 35 1 19 32
M  V30 36 1 20 33
M  V30 37 1 21 34
M  V30 38 1 22 35
M  V30 39 1 23 36
M  V30 40 1 26 37
M  V30 END BOND
M  V30 END CTAB
M  END
>  <Dataset>  (826) 
ChEMBL_Kinases

>  <Ligand_Instance>  (826) 
nan

>  <PDB_ID>  (826) 
nan

>  <Standardized_SMILES>  (826) 
FC(F)(F)c1cccc(Sc2ccc3nnc(-c4ccccc4)n3n2)c1

>  <Name>  (826) 
nan

>  <Pocket>  (826) 
nan

>  <ATP_Site>  (826) 
nan

>  <Peripheral>  (826) 
nan

>  <Num_H_Atoms_ProtBoundConf>  (826) 
nan

>  <Num_Resolved_Atoms>  (826) 
nan

>  <Num_Not_Resolved_Atoms>  (826) 
nan

$$$$
CHEMBL2333118
     RDKit          3D

  0  0  0  0  0  0  0  0  0  0999 V3000
M  V30 BEGIN CTAB
M  V30 COUNTS 41 43 0 0 0
M  V30 BEGIN ATOM
M  V30 1 C 1.990258 -5.312578 0.327814 0
M  V30 2 C 2.224842 -3.877131 -0.119771 0
M  V30 3 C 3.163149 -3.223985 0.867781 0
M  V30 4 N 1.015865 -3.127609 -0.197271 0
M  V30 5 C 0.476071 -1.850004 -0.484676 0
M  V30 6 C 0.174222 -1.686189 -1.813636 0
M  V30 7 C 0.362478 -2.717336 -2.805028 0
M  V30 8 N 0.066900 -2.554576 -4.163799 0
M  V30 9 O 0.738697 -3.885121 -2.998208 0
M  V30 10 N -0.338671 -0.527232 -2.271941 0
M  V30 11 N -0.570111 0.493359 -1.458318 0
M  V30 12 C -0.294399 0.386435 -0.150216 0
M  V30 13 C -0.505833 1.387866 0.775416 0
M  V30 14 C -0.209359 1.226932 2.127345 0
M  V30 15 C -0.470334 2.357193 3.042985 0
M  V30 16 C 0.139289 2.784224 4.205094 0
M  V30 17 N -0.497491 3.881601 4.651933 0
M  V30 18 N -1.490716 4.176621 3.824628 0
M  V30 19 C -2.440851 5.289652 3.927102 0
M  V30 20 C -1.499163 3.266269 2.835372 0
M  V30 21 C 0.321888 0.012037 2.576844 0
M  V30 22 C 0.540366 -1.000095 1.667414 0
M  V30 23 C 0.229382 -0.781712 0.349705 0
M  V30 24 H 1.200812 -5.395297 1.089445 0
M  V30 25 H 2.938687 -5.637394 0.818124 0
M  V30 26 H 1.850575 -5.988483 -0.537928 0
M  V30 27 H 2.706488 -3.971091 -1.126158 0
M  V30 28 H 3.262311 -2.139642 0.620392 0
M  V30 29 H 2.856014 -3.382434 1.909817 0
M  V30 30 H 4.207595 -3.640627 0.763457 0
M  V30 31 H 0.128551 -3.637296 0.031151 0
M  V30 32 H -0.183370 -2.467450 -5.147287 0
M  V30 33 H 0.256785 -2.109220 -5.098482 0
M  V30 34 H -0.913780 2.322754 0.435384 0
M  V30 35 H 0.985932 2.257269 4.613907 0
M  V30 36 H -2.844492 5.502760 2.913720 0
M  V30 37 H -3.336146 5.011674 4.532116 0
M  V30 38 H -1.944621 6.188115 4.369449 0
M  V30 39 H -2.213257 3.252251 1.997356 0
M  V30 40 H 0.528202 -0.052738 3.620798 0
M  V30 41 H 0.940070 -1.927822 2.033249 0
M  V30 END ATOM
M  V30 BEGIN BOND
M  V30 1 1 1 2
M  V30 2 1 2 3
M  V30 3 1 2 4
M  V30 4 1 4 5
M  V30 5 2 5 6
M  V30 6 1 6 7
M  V30 7 1 7 8
M  V30 8 2 7 9
M  V30 9 1 6 10
M  V30 10 2 10 11
M  V30 11 1 11 12
M  V30 12 2 12 13
M  V30 13 1 13 14
M  V30 14 1 14 15
M  V30 15 1 15 16
M  V30 16 2 16 17
M  V30 17 1 17 18
M  V30 18 1 18 19
M  V30 19 1 18 20
M  V30 20 2 14 21
M  V30 21 1 21 22
M  V30 22 2 22 23
M  V30 23 1 23 5
M  V30 24 1 23 12
M  V30 25 2 20 15
M  V30 26 1 1 24
M  V30 27 1 1 25
M  V30 28 1 1 26
M  V30 29 1 2 27
M  V30 30 1 3 28
M  V30 31 1 3 29
M  V30 32 1 3 30
M  V30 33 1 4 31
M  V30 34 1 8 32
M  V30 35 1 8 33
M  V30 36 1 13 34
M  V30 37 1 16 35
M  V30 38 1 19 36
M  V30 39 1 19 37
M  V30 40 1 19 38
M  V30 41 1 20 39
M  V30 42 1 21 40
M  V30 43 1 22 41
M  V30 END BOND
M  V30 END CTAB
M  END
>  <Dataset>  (827) 
ChEMBL_Kinases

>  <Ligand_Instance>  (827) 
nan

>  <PDB_ID>  (827) 
nan

>  <Standardized_SMILES>  (827) 
CC(C)Nc1c(C(N)=O)nnc2cc(-c3cnn(C)c3)ccc12

>  <Name>  (827) 
nan

>  <Pocket>  (827) 
nan

>  <ATP_Site>  (827) 
nan

>  <Peripheral>  (827) 
nan

>  <Num_H_Atoms_ProtBoundConf>  (827) 
nan

>  <Num_Resolved_Atoms>  (827) 
nan

>  <Num_Not_Resolved_Atoms>  (827) 
nan

$$$$
CHEMBL2333119
     RDKit          3D

  0  0  0  0  0  0  0  0  0  0999 V3000
M  V30 BEGIN CTAB
M  V30 COUNTS 48 50 0 0 0
M  V30 BEGIN ATOM
M  V30 1 C 0.207548 -3.266592 -2.997100 0
M  V30 2 C -1.035506 -2.719156 -2.347441 0
M  V30 3 C -2.213924 -3.404808 -2.999941 0
M  V30 4 N -1.142242 -1.296265 -2.355699 0
M  V30 5 C -0.187588 -0.394742 -1.824463 0
M  V30 6 C 0.823767 0.175962 -2.557043 0
M  V30 7 C 0.926904 -0.052225 -3.986493 0
M  V30 8 N 1.978594 0.485495 -4.774842 0
M  V30 9 O 0.241249 -0.683223 -4.822920 0
M  V30 10 N 1.740006 0.995722 -2.018018 0
M  V30 11 N 1.709722 1.303432 -0.712576 0
M  V30 12 C 0.732030 0.775660 0.082521 0
M  V30 13 C 0.710053 1.104364 1.445105 0
M  V30 14 C -0.263753 0.586911 2.271079 0
M  V30 15 N -0.281672 0.917359 3.653671 0
M  V30 16 C 0.737655 1.741265 4.280159 0
M  V30 17 C 0.952506 1.093177 5.654017 0
M  V30 18 N 0.696943 -0.328584 5.636616 0
M  V30 19 C 1.587348 -0.936627 4.693388 0
M  V30 20 C -0.681336 -0.652407 5.377182 0
M  V30 21 C -1.314088 0.468953 4.570854 0
M  V30 22 C -1.214711 -0.256923 1.739654 0
M  V30 23 C -1.194131 -0.582555 0.393015 0
M  V30 24 C -0.219902 -0.072793 -0.462045 0
M  V30 25 H 0.295868 -4.321506 -2.641352 0
M  V30 26 H -0.008434 -3.320936 -4.092835 0
M  V30 27 H 1.114165 -2.677034 -2.766954 0
M  V30 28 H -0.980238 -3.032890 -1.272962 0
M  V30 29 H -1.931712 -3.606424 -4.053824 0
M  V30 30 H -2.516795 -4.344303 -2.546380 0
M  V30 31 H -3.047550 -2.668573 -3.039680 0
M  V30 32 H -1.827910 -0.583758 -2.691539 0
M  V30 33 H 2.002551 0.921654 -5.709897 0
M  V30 34 H 2.907283 0.409875 -4.274357 0
M  V30 35 H 1.477090 1.759423 1.768084 0
M  V30 36 H 1.699677 1.743870 3.778864 0
M  V30 37 H 0.326513 2.762384 4.428498 0
M  V30 38 H 1.931301 1.357006 6.049159 0
M  V30 39 H 0.197507 1.553197 6.333779 0
M  V30 40 H 1.105311 -1.571921 3.929996 0
M  V30 41 H 2.209014 -0.197539 4.138875 0
M  V30 42 H 2.296947 -1.580734 5.257466 0
M  V30 43 H -1.211011 -0.674834 6.353224 0
M  V30 44 H -0.827615 -1.624646 4.892782 0
M  V30 45 H -2.257418 0.197386 4.113590 0
M  V30 46 H -1.545343 1.284399 5.299312 0
M  V30 47 H -2.002663 -0.699837 2.314887 0
M  V30 48 H -1.957982 -1.252870 -0.012693 0
M  V30 END ATOM
M  V30 BEGIN BOND
M  V30 1 1 1 2
M  V30 2 1 2 3
M  V30 3 1 2 4
M  V30 4 1 4 5
M  V30 5 2 5 6
M  V30 6 1 6 7
M  V30 7 1 7 8
M  V30 8 2 7 9
M  V30 9 1 6 10
M  V30 10 2 10 11
M  V30 11 1 11 12
M  V30 12 2 12 13
M  V30 13 1 13 14
M  V30 14 1 14 15
M  V30 15 1 15 16
M  V30 16 1 16 17
M  V30 17 1 17 18
M  V30 18 1 18 19
M  V30 19 1 18 20
M  V30 20 1 20 21
M  V30 21 2 14 22
M  V30 22 1 22 23
M  V30 23 2 23 24
M  V30 24 1 24 5
M  V30 25 1 24 12
M  V30 26 1 21 15
M  V30 27 1 1 25
M  V30 28 1 1 26
M  V30 29 1 1 27
M  V30 30 1 2 28
M  V30 31 1 3 29
M  V30 32 1 3 30
M  V30 33 1 3 31
M  V30 34 1 4 32
M  V30 35 1 8 33
M  V30 36 1 8 34
M  V30 37 1 13 35
M  V30 38 1 16 36
M  V30 39 1 16 37
M  V30 40 1 17 38
M  V30 41 1 17 39
M  V30 42 1 19 40
M  V30 43 1 19 41
M  V30 44 1 19 42
M  V30 45 1 20 43
M  V30 46 1 20 44
M  V30 47 1 21 45
M  V30 48 1 21 46
M  V30 49 1 22 47
M  V30 50 1 23 48
M  V30 END BOND
M  V30 END CTAB
M  END
>  <Dataset>  (828) 
ChEMBL_Kinases

>  <Ligand_Instance>  (828) 
nan

>  <PDB_ID>  (828) 
nan

>  <Standardized_SMILES>  (828) 
CC(C)Nc1c(C(N)=O)nnc2cc(N3CCN(C)CC3)ccc12

>  <Name>  (828) 
nan

>  <Pocket>  (828) 
nan

>  <ATP_Site>  (828) 
nan

>  <Peripheral>  (828) 
nan

>  <Num_H_Atoms_ProtBoundConf>  (828) 
nan

>  <Num_Resolved_Atoms>  (828) 
nan

>  <Num_Not_Resolved_Atoms>  (828) 
nan

$$$$
CHEMBL2333120
     RDKit          3D

  0  0  0  0  0  0  0  0  0  0999 V3000
M  V30 BEGIN CTAB
M  V30 COUNTS 44 46 0 0 0
M  V30 BEGIN ATOM
M  V30 1 C -2.792275 -3.323405 -2.072426 0
M  V30 2 C -1.319834 -2.906713 -1.962160 0
M  V30 3 C -0.673784 -3.807065 -0.965611 0
M  V30 4 N -1.212980 -1.500313 -1.687852 0
M  V30 5 C -0.272802 -0.458779 -1.455896 0
M  V30 6 C 0.208697 0.239864 -2.528454 0
M  V30 7 C -0.173426 0.010687 -3.912468 0
M  V30 8 N 0.363508 0.762858 -4.988696 0
M  V30 9 O -0.981737 -0.824153 -4.381872 0
M  V30 10 N 1.094682 1.212188 -2.296553 0
M  V30 11 N 1.527297 1.532497 -1.092882 0
M  V30 12 C 1.105830 0.896974 0.020501 0
M  V30 13 C 1.557725 1.236713 1.279420 0
M  V30 14 C 1.055051 0.521550 2.345887 0
M  V30 15 N 1.489918 0.834073 3.655427 0
M  V30 16 C 2.455010 1.860834 3.989323 0
M  V30 17 C 3.297992 1.260745 5.121194 0
M  V30 18 O 2.537209 1.326987 6.268341 0
M  V30 19 C 1.251999 0.879205 6.094771 0
M  V30 20 C 0.994049 0.134072 4.824059 0
M  V30 21 C 0.137739 -0.496744 2.195467 0
M  V30 22 C -0.268659 -0.780539 0.903063 0
M  V30 23 C 0.190125 -0.110254 -0.203099 0
M  V30 24 H -2.871890 -4.390266 -1.789037 0
M  V30 25 H -3.382070 -2.754465 -1.323153 0
M  V30 26 H -3.141774 -3.201258 -3.106622 0
M  V30 27 H -0.864819 -3.155105 -2.953932 0
M  V30 28 H 0.347110 -3.491959 -0.674828 0
M  V30 29 H -1.319613 -3.974763 -0.054171 0
M  V30 30 H -0.567540 -4.809092 -1.431982 0
M  V30 31 H -2.099671 -0.933108 -1.608337 0
M  V30 32 H -0.028059 1.687201 -5.271888 0
M  V30 33 H 1.176252 0.555487 -5.641758 0
M  V30 34 H 2.276719 2.040358 1.359471 0
M  V30 35 H 1.936485 2.777982 4.331947 0
M  V30 36 H 3.163801 2.096476 3.192289 0
M  V30 37 H 4.237294 1.813589 5.257176 0
M  V30 38 H 3.447814 0.191382 4.866055 0
M  V30 39 H 0.530313 1.713485 6.191901 0
M  V30 40 H 1.022701 0.179362 6.929943 0
M  V30 41 H 1.342143 -0.928056 4.872973 0
M  V30 42 H -0.129179 0.049636 4.738089 0
M  V30 43 H -0.259430 -1.061379 3.034795 0
M  V30 44 H -0.990037 -1.577609 0.809172 0
M  V30 END ATOM
M  V30 BEGIN BOND
M  V30 1 1 1 2
M  V30 2 1 2 3
M  V30 3 1 2 4
M  V30 4 1 4 5
M  V30 5 2 5 6
M  V30 6 1 6 7
M  V30 7 1 7 8
M  V30 8 2 7 9
M  V30 9 1 6 10
M  V30 10 2 10 11
M  V30 11 1 11 12
M  V30 12 2 12 13
M  V30 13 1 13 14
M  V30 14 1 14 15
M  V30 15 1 15 16
M  V30 16 1 16 17
M  V30 17 1 17 18
M  V30 18 1 18 19
M  V30 19 1 19 20
M  V30 20 2 14 21
M  V30 21 1 21 22
M  V30 22 2 22 23
M  V30 23 1 23 5
M  V30 24 1 23 12
M  V30 25 1 20 15
M  V30 26 1 1 24
M  V30 27 1 1 25
M  V30 28 1 1 26
M  V30 29 1 2 27
M  V30 30 1 3 28
M  V30 31 1 3 29
M  V30 32 1 3 30
M  V30 33 1 4 31
M  V30 34 1 8 32
M  V30 35 1 8 33
M  V30 36 1 13 34
M  V30 37 1 16 35
M  V30 38 1 16 36
M  V30 39 1 17 37
M  V30 40 1 17 38
M  V30 41 1 19 39
M  V30 42 1 19 40
M  V30 43 1 20 41
M  V30 44 1 20 42
M  V30 45 1 21 43
M  V30 46 1 22 44
M  V30 END BOND
M  V30 END CTAB
M  END
>  <Dataset>  (829) 
ChEMBL_Kinases

>  <Ligand_Instance>  (829) 
nan

>  <PDB_ID>  (829) 
nan

>  <Standardized_SMILES>  (829) 
CC(C)Nc1c(C(N)=O)nnc2cc(N3CCOCC3)ccc12

>  <Name>  (829) 
nan

>  <Pocket>  (829) 
nan

>  <ATP_Site>  (829) 
nan

>  <Peripheral>  (829) 
nan

>  <Num_H_Atoms_ProtBoundConf>  (829) 
nan

>  <Num_Resolved_Atoms>  (829) 
nan

>  <Num_Not_Resolved_Atoms>  (829) 
nan

$$$$
CHEMBL2333121
     RDKit          3D

  0  0  0  0  0  0  0  0  0  0999 V3000
M  V30 BEGIN CTAB
M  V30 COUNTS 37 39 0 0 0
M  V30 BEGIN ATOM
M  V30 1 C 0.853750 -3.620538 1.957628 0
M  V30 2 C 1.724468 -3.429432 0.753633 0
M  V30 3 C 3.165274 -3.788200 1.137240 0
M  V30 4 N 1.695291 -2.123906 0.171767 0
M  V30 5 C 0.834435 -1.190955 -0.407714 0
M  V30 6 C 0.619851 -1.230757 -1.765375 0
M  V30 7 C 1.239788 -2.181634 -2.662574 0
M  V30 8 N 1.023506 -2.234196 -4.061610 0
M  V30 9 O 2.047987 -3.125008 -2.511801 0
M  V30 10 N -0.205189 -0.351754 -2.357423 0
M  V30 11 N -0.843226 0.582988 -1.674214 0
M  V30 12 C -0.698239 0.703475 -0.341928 0
M  V30 13 C -1.369738 1.696493 0.382442 0
M  V30 14 C -1.139064 1.726067 1.739926 0
M  V30 15 C -1.889831 2.785760 2.368132 0
M  V30 16 C -1.371950 3.384090 3.450390 0
M  V30 17 N -2.069098 4.490198 4.174911 0
M  V30 18 S -3.585327 4.570583 3.097533 0
M  V30 19 C -3.192386 3.368863 2.029196 0
M  V30 20 C -0.309557 0.860624 2.410597 0
M  V30 21 C 0.321953 -0.096480 1.630256 0
M  V30 22 C 0.149762 -0.200166 0.265822 0
M  V30 23 H 0.649443 -4.701109 2.085107 0
M  V30 24 H 1.395961 -3.313723 2.897513 0
M  V30 25 H -0.091850 -3.052587 1.904474 0
M  V30 26 H 1.474987 -4.179096 -0.053799 0
M  V30 27 H 3.271966 -4.896169 1.188828 0
M  V30 28 H 3.793259 -3.354748 0.316355 0
M  V30 29 H 3.393957 -3.303203 2.096649 0
M  V30 30 H 2.585870 -1.557127 0.095740 0
M  V30 31 H 0.760734 -1.467758 -4.745485 0
M  V30 32 H 0.765376 -1.509118 -4.767374 0
M  V30 33 H -1.996282 2.333531 -0.196168 0
M  V30 34 H -0.462737 3.260338 4.010546 0
M  V30 35 H -3.728901 2.996089 1.190220 0
M  V30 36 H -0.190939 0.961251 3.477816 0
M  V30 37 H 0.974344 -0.769108 2.155715 0
M  V30 END ATOM
M  V30 BEGIN BOND
M  V30 1 1 1 2
M  V30 2 1 2 3
M  V30 3 1 2 4
M  V30 4 1 4 5
M  V30 5 2 5 6
M  V30 6 1 6 7
M  V30 7 1 7 8
M  V30 8 2 7 9
M  V30 9 1 6 10
M  V30 10 2 10 11
M  V30 11 1 11 12
M  V30 12 2 12 13
M  V30 13 1 13 14
M  V30 14 1 14 15
M  V30 15 1 15 16
M  V30 16 2 16 17
M  V30 17 1 17 18
M  V30 18 1 18 19
M  V30 19 2 14 20
M  V30 20 1 20 21
M  V30 21 2 21 22
M  V30 22 1 22 5
M  V30 23 1 22 12
M  V30 24 2 19 15
M  V30 25 1 1 23
M  V30 26 1 1 24
M  V30 27 1 1 25
M  V30 28 1 2 26
M  V30 29 1 3 27
M  V30 30 1 3 28
M  V30 31 1 3 29
M  V30 32 1 4 30
M  V30 33 1 8 31
M  V30 34 1 8 32
M  V30 35 1 13 33
M  V30 36 1 16 34
M  V30 37 1 19 35
M  V30 38 1 20 36
M  V30 39 1 21 37
M  V30 END BOND
M  V30 END CTAB
M  END
>  <Dataset>  (830) 
ChEMBL_Kinases

>  <Ligand_Instance>  (830) 
nan

>  <PDB_ID>  (830) 
nan

>  <Standardized_SMILES>  (830) 
CC(C)Nc1c(C(N)=O)nnc2cc(-c3cnsc3)ccc12

>  <Name>  (830) 
nan

>  <Pocket>  (830) 
nan

>  <ATP_Site>  (830) 
nan

>  <Peripheral>  (830) 
nan

>  <Num_H_Atoms_ProtBoundConf>  (830) 
nan

>  <Num_Resolved_Atoms>  (830) 
nan

>  <Num_Not_Resolved_Atoms>  (830) 
nan

$$$$
CHEMBL2333122
     RDKit          3D

  0  0  0  0  0  0  0  0  0  0999 V3000
M  V30 BEGIN CTAB
M  V30 COUNTS 50 52 0 0 0
M  V30 BEGIN ATOM
M  V30 1 C 5.879628 -0.978817 3.930073 0
M  V30 2 N 5.154592 -0.534037 2.725138 0
M  V30 3 C 4.386595 -1.523267 1.963011 0
M  V30 4 O 4.503056 -2.632200 2.453662 0
M  V30 5 C 3.758379 -0.692797 0.894492 0
M  V30 6 N 4.109059 0.382421 0.216325 0
M  V30 7 N 3.185869 1.056345 -0.524530 0
M  V30 8 C 1.911790 0.587548 -0.529808 0
M  V30 9 C 0.936038 1.364481 -1.070146 0
M  V30 10 C -0.370704 1.461260 -1.179288 0
M  V30 11 C -1.783731 1.576652 -1.317623 0
M  V30 12 C -2.356596 1.948645 -0.038610 0
M  V30 13 C -3.727279 2.084072 0.345552 0
M  V30 14 C -4.484850 1.789231 -0.742809 0
M  V30 15 S -6.130657 1.976972 -0.101728 0
M  V30 16 C -6.320116 0.802578 1.234044 0
M  V30 17 O -6.347478 3.370136 0.368164 0
M  V30 18 O -7.079595 1.537947 -1.168909 0
M  V30 19 C -4.027803 1.425705 -2.003652 0
M  V30 20 C -2.704528 1.329154 -2.270514 0
M  V30 21 C -0.610391 0.194465 -0.382482 0
M  V30 22 C 0.210224 -0.786072 0.275023 0
M  V30 23 C 1.586003 -0.536560 0.179302 0
M  V30 24 C 2.508399 -1.282784 0.955155 0
M  V30 25 N 1.828289 -2.446296 1.443069 0
M  V30 26 C 1.628709 -3.576098 0.555580 0
M  V30 27 C 0.853444 -4.712927 1.187651 0
M  V30 28 C 2.968856 -4.155129 0.123559 0
M  V30 29 H 6.505375 -1.836706 3.689747 0
M  V30 30 H 6.315662 -0.149921 4.467368 0
M  V30 31 H 5.022271 -1.307155 4.640292 0
M  V30 32 H 5.268658 0.519504 2.561737 0
M  V30 33 H 1.042194 2.285806 -1.656645 0
M  V30 34 H -1.626383 2.159417 0.754741 0
M  V30 35 H -3.873858 2.386638 1.379987 0
M  V30 36 H -7.302836 0.307925 1.256770 0
M  V30 37 H -6.160104 1.316973 2.245010 0
M  V30 38 H -5.524083 0.036272 1.231995 0
M  V30 39 H -4.817228 1.244538 -2.702286 0
M  V30 40 H -2.292979 1.058639 -3.219630 0
M  V30 41 H -1.608896 -0.322621 -0.079159 0
M  V30 42 H -0.081773 -1.668201 0.819326 0
M  V30 43 H 1.504879 -2.432819 2.460730 0
M  V30 44 H 1.146506 -3.255624 -0.400658 0
M  V30 45 H 1.142029 -4.732098 2.265015 0
M  V30 46 H 1.151546 -5.690278 0.753812 0
M  V30 47 H -0.238026 -4.579151 1.136566 0
M  V30 48 H 2.770579 -4.927271 -0.675850 0
M  V30 49 H 3.439312 -4.721090 0.946988 0
M  V30 50 H 3.653475 -3.364843 -0.226291 0
M  V30 END ATOM
M  V30 BEGIN BOND
M  V30 1 1 1 2
M  V30 2 1 2 3
M  V30 3 2 3 4
M  V30 4 1 3 5
M  V30 5 2 5 6
M  V30 6 1 6 7
M  V30 7 2 7 8
M  V30 8 1 8 9
M  V30 9 2 9 10
M  V30 10 1 10 11
M  V30 11 2 11 12
M  V30 12 1 12 13
M  V30 13 2 13 14
M  V30 14 1 14 15
M  V30 15 1 15 16
M  V30 16 2 15 17
M  V30 17 2 15 18
M  V30 18 1 14 19
M  V30 19 2 19 20
M  V30 20 1 10 21
M  V30 21 2 21 22
M  V30 22 1 22 23
M  V30 23 2 23 24
M  V30 24 1 24 25
M  V30 25 1 25 26
M  V30 26 1 26 27
M  V30 27 1 26 28
M  V30 28 1 24 5
M  V30 29 1 23 8
M  V30 30 1 20 11
M  V30 31 1 1 29
M  V30 32 1 1 30
M  V30 33 1 1 31
M  V30 34 1 2 32
M  V30 35 1 9 33
M  V30 36 1 12 34
M  V30 37 1 13 35
M  V30 38 1 16 36
M  V30 39 1 16 37
M  V30 40 1 16 38
M  V30 41 1 19 39
M  V30 42 1 20 40
M  V30 43 1 21 41
M  V30 44 1 22 42
M  V30 45 1 25 43
M  V30 46 1 26 44
M  V30 47 1 27 45
M  V30 48 1 27 46
M  V30 49 1 27 47
M  V30 50 1 28 48
M  V30 51 1 28 49
M  V30 52 1 28 50
M  V30 END BOND
M  V30 END CTAB
M  END
>  <Dataset>  (831) 
ChEMBL_Kinases

>  <Ligand_Instance>  (831) 
nan

>  <PDB_ID>  (831) 
nan

>  <Standardized_SMILES>  (831) 
CNC(=O)c1nnc2cc(-c3ccc(S(C)(=O)=O)cc3)ccc2c1NC(C)C

>  <Name>  (831) 
nan

>  <Pocket>  (831) 
nan

>  <ATP_Site>  (831) 
nan

>  <Peripheral>  (831) 
nan

>  <Num_H_Atoms_ProtBoundConf>  (831) 
nan

>  <Num_Resolved_Atoms>  (831) 
nan

>  <Num_Not_Resolved_Atoms>  (831) 
nan

$$$$
CHEMBL2333123
     RDKit          3D

  0  0  0  0  0  0  0  0  0  0999 V3000
M  V30 BEGIN CTAB
M  V30 COUNTS 54 57 0 0 0
M  V30 BEGIN ATOM
M  V30 1 C -4.194769 -6.169748 2.735575 0
M  V30 2 N -3.315276 -5.021907 2.826452 0
M  V30 3 C -3.009280 -4.289620 1.653445 0
M  V30 4 O -3.646491 -4.884163 0.729108 0
M  V30 5 C -2.137394 -3.122245 1.636980 0
M  V30 6 N -1.730002 -2.756033 2.885839 0
M  V30 7 N -0.972043 -1.707447 3.075260 0
M  V30 8 C -0.538901 -0.916462 2.072992 0
M  V30 9 C 0.254502 0.200773 2.219541 0
M  V30 10 C 0.655908 0.969079 1.146491 0
M  V30 11 C 1.498846 2.138059 1.401877 0
M  V30 12 C 1.453649 3.281496 0.608668 0
M  V30 13 C 2.285703 4.362801 0.908656 0
M  V30 14 C 3.154474 4.309502 1.985996 0
M  V30 15 S 4.202025 5.655335 2.373716 0
M  V30 16 C 5.724484 5.447537 1.523755 0
M  V30 17 O 3.473586 6.907442 1.944339 0
M  V30 18 O 4.448822 5.746339 3.855841 0
M  V30 19 C 3.187132 3.169085 2.762226 0
M  V30 20 C 2.367426 2.073597 2.486213 0
M  V30 21 C 0.233154 0.586500 -0.131192 0
M  V30 22 C -0.557119 -0.535246 -0.228473 0
M  V30 23 C -0.963291 -1.309011 0.829504 0
M  V30 24 C -1.753331 -2.383366 0.509439 0
M  V30 25 N -2.208655 -2.881705 -0.711009 0
M  V30 26 C -1.801419 -3.781389 -1.782187 0 CFG=2
M  V30 27 C -1.173701 -5.028289 -1.269457 0
M  V30 28 C -1.075054 -3.057801 -2.847821 0
M  V30 29 C -1.929579 -1.951007 -3.534498 0
M  V30 30 C -1.429366 -3.171479 -4.282698 0
M  V30 31 H -3.943368 -6.770208 1.852404 0
M  V30 32 H -5.259670 -5.816418 2.703352 0
M  V30 33 H -4.017693 -6.794154 3.625794 0
M  V30 34 H -2.894179 -4.718402 3.760683 0
M  V30 35 H 0.557095 0.455088 3.245534 0
M  V30 36 H 0.766794 3.303118 -0.230154 0
M  V30 37 H 2.234086 5.242405 0.278294 0
M  V30 38 H 6.044516 6.409516 1.037596 0
M  V30 39 H 5.587930 4.730554 0.699657 0
M  V30 40 H 6.508306 5.051778 2.195867 0
M  V30 41 H 3.872987 3.118339 3.618490 0
M  V30 42 H 2.454538 1.222449 3.140706 0
M  V30 43 H 0.546835 1.187695 -0.972465 0
M  V30 44 H -0.848218 -0.761528 -1.232389 0
M  V30 45 H -3.124783 -2.379328 -0.746901 0
M  V30 46 H -2.797180 -4.144826 -2.257403 0
M  V30 47 H -0.428503 -5.400312 -2.003442 0
M  V30 48 H -1.921882 -5.830029 -1.174605 0
M  V30 49 H -0.728686 -4.905729 -0.259016 0
M  V30 50 H -0.023049 -2.795809 -2.607587 0
M  V30 51 H -3.009719 -1.953785 -3.339428 0
M  V30 52 H -1.392463 -0.991663 -3.646533 0
M  V30 53 H -0.625016 -2.954918 -5.013671 0
M  V30 54 H -2.171757 -3.907913 -4.650663 0
M  V30 END ATOM
M  V30 BEGIN BOND
M  V30 1 1 1 2
M  V30 2 1 2 3
M  V30 3 2 3 4
M  V30 4 1 3 5
M  V30 5 2 5 6
M  V30 6 1 6 7
M  V30 7 2 7 8
M  V30 8 1 8 9
M  V30 9 2 9 10
M  V30 10 1 10 11
M  V30 11 2 11 12
M  V30 12 1 12 13
M  V30 13 2 13 14
M  V30 14 1 14 15
M  V30 15 1 15 16
M  V30 16 2 15 17
M  V30 17 2 15 18
M  V30 18 1 14 19
M  V30 19 2 19 20
M  V30 20 1 10 21
M  V30 21 2 21 22
M  V30 22 1 22 23
M  V30 23 2 23 24
M  V30 24 1 24 25
M  V30 25 1 25 26
M  V30 26 1 26 27
M  V30 27 1 26 28
M  V30 28 1 28 29
M  V30 29 1 29 30
M  V30 30 1 24 5
M  V30 31 1 30 28
M  V30 32 1 23 8
M  V30 33 1 20 11
M  V30 34 1 1 31
M  V30 35 1 1 32
M  V30 36 1 1 33
M  V30 37 1 2 34
M  V30 38 1 9 35
M  V30 39 1 12 36
M  V30 40 1 13 37
M  V30 41 1 16 38
M  V30 42 1 16 39
M  V30 43 1 16 40
M  V30 44 1 19 41
M  V30 45 1 20 42
M  V30 46 1 21 43
M  V30 47 1 22 44
M  V30 48 1 25 45
M  V30 49 1 26 46 CFG=3
M  V30 50 1 27 47
M  V30 51 1 27 48
M  V30 52 1 27 49
M  V30 53 1 28 50
M  V30 54 1 29 51
M  V30 55 1 29 52
M  V30 56 1 30 53
M  V30 57 1 30 54
M  V30 END BOND
M  V30 END CTAB
M  END
>  <Dataset>  (832) 
ChEMBL_Kinases

>  <Ligand_Instance>  (832) 
nan

>  <PDB_ID>  (832) 
nan

>  <Standardized_SMILES>  (832) 
CNC(=O)c1nnc2cc(-c3ccc(S(C)(=O)=O)cc3)ccc2c1N[C@H](C)C1CC1

>  <Name>  (832) 
nan

>  <Pocket>  (832) 
nan

>  <ATP_Site>  (832) 
nan

>  <Peripheral>  (832) 
nan

>  <Num_H_Atoms_ProtBoundConf>  (832) 
nan

>  <Num_Resolved_Atoms>  (832) 
nan

>  <Num_Not_Resolved_Atoms>  (832) 
nan

$$$$
CHEMBL2333124
     RDKit          3D

  0  0  0  0  0  0  0  0  0  0999 V3000
M  V30 BEGIN CTAB
M  V30 COUNTS 43 45 0 0 0
M  V30 BEGIN ATOM
M  V30 1 C -0.991387 -3.866753 0.651595 0
M  V30 2 C -0.210357 -2.629924 0.654939 0
M  V30 3 C 1.149916 -2.720360 0.867784 0
M  V30 4 C 1.900273 -3.950800 1.088186 0
M  V30 5 C 1.858333 -5.141808 0.427012 0
M  V30 6 C 2.654891 -6.190920 0.798306 0
M  V30 7 N 3.508284 -6.079150 1.832175 0
M  V30 8 C 3.599111 -4.922139 2.531645 0
M  V30 9 C 2.798402 -3.865542 2.159518 0
M  V30 10 C 1.869786 -1.520040 0.868111 0
M  V30 11 C 1.266053 -0.294393 0.666932 0
M  V30 12 C -0.094484 -0.208678 0.454595 0
M  V30 13 C -0.684405 1.021741 0.252516 0
M  V30 14 N 0.041828 2.244059 0.263329 0
M  V30 15 C 0.482932 3.304007 1.119800 0
M  V30 16 C 1.293644 4.335184 0.323060 0
M  V30 17 C 1.304144 2.895544 2.293403 0
M  V30 18 C -2.045012 1.047294 0.041794 0
M  V30 19 C -2.804366 2.251173 -0.188514 0
M  V30 20 N -4.208288 2.240387 -0.397856 0
M  V30 21 O -2.485881 3.443835 -0.256211 0
M  V30 22 N -2.697529 -0.108878 0.047441 0
M  V30 23 N -2.117252 -1.280187 0.243136 0
M  V30 24 C -0.796020 -1.397213 0.455819 0
M  V30 25 H -2.046921 -3.685939 1.004159 0
M  V30 26 H -1.066863 -4.241189 -0.390117 0
M  V30 27 H -0.521625 -4.665928 1.251861 0
M  V30 28 H 1.147367 -5.151550 -0.394186 0
M  V30 29 H 2.556688 -7.103717 0.216103 0
M  V30 30 H 4.295689 -4.868007 3.356386 0
M  V30 31 H 2.936216 -2.976639 2.774724 0
M  V30 32 H 2.950384 -1.560768 1.034426 0
M  V30 33 H 1.880864 0.591239 0.676203 0
M  V30 34 H 0.291402 2.277468 -0.767890 0
M  V30 35 H -0.415641 3.888864 1.480565 0
M  V30 36 H 2.332366 3.964662 0.302802 0
M  V30 37 H 1.294259 5.253093 0.934093 0
M  V30 38 H 0.850546 4.464034 -0.667742 0
M  V30 39 H 1.101974 1.853528 2.645328 0
M  V30 40 H 1.156577 3.605222 3.144267 0
M  V30 41 H 2.408020 2.907130 2.101225 0
M  V30 42 H -4.761489 1.866910 -1.177932 0
M  V30 43 H -5.007463 2.595767 0.165999 0
M  V30 END ATOM
M  V30 BEGIN BOND
M  V30 1 1 1 2
M  V30 2 2 2 3
M  V30 3 1 3 4
M  V30 4 2 4 5
M  V30 5 1 5 6
M  V30 6 2 6 7
M  V30 7 1 7 8
M  V30 8 2 8 9
M  V30 9 1 3 10
M  V30 10 2 10 11
M  V30 11 1 11 12
M  V30 12 2 12 13
M  V30 13 1 13 14
M  V30 14 1 14 15
M  V30 15 1 15 16
M  V30 16 1 15 17
M  V30 17 1 13 18
M  V30 18 1 18 19
M  V30 19 1 19 20
M  V30 20 2 19 21
M  V30 21 2 18 22
M  V30 22 1 22 23
M  V30 23 2 23 24
M  V30 24 1 24 2
M  V30 25 1 9 4
M  V30 26 1 24 12
M  V30 27 1 1 25
M  V30 28 1 1 26
M  V30 29 1 1 27
M  V30 30 1 5 28
M  V30 31 1 6 29
M  V30 32 1 8 30
M  V30 33 1 9 31
M  V30 34 1 10 32
M  V30 35 1 11 33
M  V30 36 1 14 34
M  V30 37 1 15 35
M  V30 38 1 16 36
M  V30 39 1 16 37
M  V30 40 1 16 38
M  V30 41 1 17 39
M  V30 42 1 17 40
M  V30 43 1 17 41
M  V30 44 1 20 42
M  V30 45 1 20 43
M  V30 END BOND
M  V30 END CTAB
M  END
>  <Dataset>  (833) 
ChEMBL_Kinases

>  <Ligand_Instance>  (833) 
nan

>  <PDB_ID>  (833) 
nan

>  <Standardized_SMILES>  (833) 
Cc1c(-c2ccncc2)ccc2c(NC(C)C)c(C(N)=O)nnc12

>  <Name>  (833) 
nan

>  <Pocket>  (833) 
nan

>  <ATP_Site>  (833) 
nan

>  <Peripheral>  (833) 
nan

>  <Num_H_Atoms_ProtBoundConf>  (833) 
nan

>  <Num_Resolved_Atoms>  (833) 
nan

>  <Num_Not_Resolved_Atoms>  (833) 
nan

$$$$
CHEMBL2333134
     RDKit          3D

  0  0  0  0  0  0  0  0  0  0999 V3000
M  V30 BEGIN CTAB
M  V30 COUNTS 49 52 0 0 0
M  V30 BEGIN ATOM
M  V30 1 C 0.407181 -8.857329 1.519886 0
M  V30 2 S 1.645711 -7.880242 0.701435 0
M  V30 3 O 1.869254 -8.423659 -0.678272 0
M  V30 4 O 2.909750 -7.971671 1.522633 0
M  V30 5 C 1.227573 -6.206173 0.594580 0
M  V30 6 C 1.574987 -5.317500 1.606043 0
M  V30 7 C 1.211516 -3.997358 1.456329 0
M  V30 8 C 0.524417 -3.573355 0.336345 0
M  V30 9 C 0.185410 -2.154176 0.272199 0
M  V30 10 C 1.057439 -1.257107 0.872591 0
M  V30 11 C 0.752248 0.087190 0.815286 0
M  V30 12 C -0.358868 0.616923 0.204181 0
M  V30 13 C -0.665649 1.956411 0.140618 0
M  V30 14 N 0.183437 2.903396 0.721594 0
M  V30 15 C 0.205547 4.316509 0.899675 0
M  V30 16 C 1.505501 4.813365 1.512907 0
M  V30 17 C 1.178352 4.728723 2.988254 0
M  V30 18 O -0.162019 4.979165 3.121818 0
M  V30 19 C -0.806253 4.795787 1.920616 0
M  V30 20 C -1.847481 2.245362 -0.539220 0
M  V30 21 C -2.253151 3.627075 -0.686359 0
M  V30 22 N -3.485360 3.882886 -1.408673 0
M  V30 23 O -2.529608 4.821922 -0.769070 0
M  V30 24 N -2.671634 1.313301 -1.113512 0
M  V30 25 N -2.325291 0.019248 -1.021982 0
M  V30 26 C -1.202403 -0.290993 -0.380223 0
M  V30 27 C -0.935662 -1.637861 -0.345491 0
M  V30 28 C 0.176375 -4.452718 -0.672594 0
M  V30 29 C 0.533294 -5.794793 -0.544053 0
M  V30 30 H 0.657125 -9.923068 1.306277 0
M  V30 31 H -0.612654 -8.632871 1.211355 0
M  V30 32 H 0.520780 -8.708732 2.631382 0
M  V30 33 H 2.112313 -5.746665 2.442410 0
M  V30 34 H 1.522154 -3.379540 2.288190 0
M  V30 35 H 1.942863 -1.614420 1.366288 0
M  V30 36 H 1.460880 0.731624 1.294504 0
M  V30 37 H 1.049996 2.555392 1.161577 0
M  V30 38 H 0.065767 4.821639 -0.061445 0
M  V30 39 H 1.735042 5.842087 1.238210 0
M  V30 40 H 2.280310 4.085320 1.270100 0
M  V30 41 H 1.847209 5.342899 3.594503 0
M  V30 42 H 1.353229 3.664201 3.324103 0
M  V30 43 H -1.201843 5.791497 1.612359 0
M  V30 44 H -1.631961 4.093720 2.090890 0
M  V30 45 H -4.378457 3.302613 -1.475735 0
M  V30 46 H -4.378371 3.299351 -1.473832 0
M  V30 47 H -1.566031 -2.390901 -0.788844 0
M  V30 48 H -0.362020 -4.051815 -1.520263 0
M  V30 49 H 0.271959 -6.482109 -1.313969 0
M  V30 END ATOM
M  V30 BEGIN BOND
M  V30 1 1 1 2
M  V30 2 2 2 3
M  V30 3 2 2 4
M  V30 4 1 2 5
M  V30 5 2 5 6
M  V30 6 1 6 7
M  V30 7 2 7 8
M  V30 8 1 8 9
M  V30 9 2 9 10
M  V30 10 1 10 11
M  V30 11 2 11 12
M  V30 12 1 12 13
M  V30 13 1 13 14
M  V30 14 1 14 15
M  V30 15 1 15 16
M  V30 16 1 16 17
M  V30 17 1 17 18
M  V30 18 1 18 19
M  V30 19 2 13 20
M  V30 20 1 20 21
M  V30 21 1 21 22
M  V30 22 2 21 23
M  V30 23 1 20 24
M  V30 24 2 24 25
M  V30 25 1 25 26
M  V30 26 2 26 27
M  V30 27 1 8 28
M  V30 28 2 28 29
M  V30 29 1 29 5
M  V30 30 1 27 9
M  V30 31 1 26 12
M  V30 32 1 19 15
M  V30 33 1 1 30
M  V30 34 1 1 31
M  V30 35 1 1 32
M  V30 36 1 6 33
M  V30 37 1 7 34
M  V30 38 1 10 35
M  V30 39 1 11 36
M  V30 40 1 14 37
M  V30 41 1 15 38
M  V30 42 1 16 39
M  V30 43 1 16 40
M  V30 44 1 17 41
M  V30 45 1 17 42
M  V30 46 1 19 43
M  V30 47 1 19 44
M  V30 48 1 22 45
M  V30 49 1 22 46
M  V30 50 1 27 47
M  V30 51 1 28 48
M  V30 52 1 29 49
M  V30 END BOND
M  V30 END CTAB
M  END
>  <Dataset>  (834) 
ChEMBL_Kinases

>  <Ligand_Instance>  (834) 
nan

>  <PDB_ID>  (834) 
nan

>  <Standardized_SMILES>  (834) 
CS(=O)(=O)c1ccc(-c2ccc3c(NC4CCOC4)c(C(N)=O)nnc3c2)cc1

>  <Name>  (834) 
nan

>  <Pocket>  (834) 
nan

>  <ATP_Site>  (834) 
nan

>  <Peripheral>  (834) 
nan

>  <Num_H_Atoms_ProtBoundConf>  (834) 
nan

>  <Num_Resolved_Atoms>  (834) 
nan

>  <Num_Not_Resolved_Atoms>  (834) 
nan

$$$$
CHEMBL2333126
     RDKit          3D

  0  0  0  0  0  0  0  0  0  0999 V3000
M  V30 BEGIN CTAB
M  V30 COUNTS 47 49 0 0 0
M  V30 BEGIN ATOM
M  V30 1 C -2.012478 -3.692292 -3.712959 0
M  V30 2 C -1.697692 -2.245914 -3.392497 0
M  V30 3 C -2.823831 -1.554829 -2.687374 0
M  V30 4 N -0.456476 -2.198127 -2.686405 0
M  V30 5 C 0.433123 -1.268798 -2.084151 0
M  V30 6 C 1.420094 -0.732978 -2.877961 0
M  V30 7 C 1.594628 -1.080480 -4.275167 0
M  V30 8 N 2.599829 -0.535364 -5.112171 0
M  V30 9 O 1.030366 -1.836366 -5.079228 0
M  V30 10 N 2.299103 0.157762 -2.387313 0
M  V30 11 N 2.245146 0.553468 -1.112035 0
M  V30 12 C 1.311062 0.078098 -0.266951 0
M  V30 13 C 1.222262 0.461139 1.066680 0
M  V30 14 C 0.231592 -0.077865 1.874993 0
M  V30 15 C 0.279857 0.436595 3.256744 0
M  V30 16 C 1.500670 0.776955 3.803452 0
M  V30 17 C 1.576258 1.267492 5.107540 0
M  V30 18 C 0.445077 1.427387 5.886796 0
M  V30 19 S 0.662118 2.053663 7.510365 0
M  V30 20 C 0.916423 0.700724 8.636827 0
M  V30 21 O 1.804208 3.015168 7.576997 0
M  V30 22 O -0.584328 2.777508 7.917248 0
M  V30 23 C -0.769936 1.083403 5.328548 0
M  V30 24 C -0.848874 0.596247 4.034663 0
M  V30 25 C -0.669331 -0.993112 1.368093 0
M  V30 26 C -0.566113 -1.361606 0.041517 0
M  V30 27 C 0.411465 -0.835827 -0.775809 0
M  V30 28 H -2.735573 -3.698877 -4.577389 0
M  V30 29 H -2.444025 -4.250042 -2.878280 0
M  V30 30 H -1.062114 -4.155977 -4.042342 0
M  V30 31 H -1.616730 -1.744304 -4.399326 0
M  V30 32 H -3.562326 -1.204716 -3.424237 0
M  V30 33 H -2.452137 -0.734069 -2.062305 0
M  V30 34 H -3.309791 -2.276930 -1.987437 0
M  V30 35 H 0.104483 -3.073759 -2.463587 0
M  V30 36 H 3.604989 -0.643056 -5.297072 0
M  V30 37 H 2.704637 0.181005 -5.858572 0
M  V30 38 H 1.969820 1.171770 1.344823 0
M  V30 39 H 2.439297 0.685852 3.269244 0
M  V30 40 H 2.549576 1.528351 5.514941 0
M  V30 41 H -0.044331 0.313228 9.024208 0
M  V30 42 H 1.482394 -0.131740 8.142606 0
M  V30 43 H 1.535535 0.988412 9.510849 0
M  V30 44 H -1.637057 1.215651 5.951952 0
M  V30 45 H -1.816577 0.336973 3.629759 0
M  V30 46 H -1.391922 -1.343232 2.084732 0
M  V30 47 H -1.282282 -2.080863 -0.321415 0
M  V30 END ATOM
M  V30 BEGIN BOND
M  V30 1 1 1 2
M  V30 2 1 2 3
M  V30 3 1 2 4
M  V30 4 1 4 5
M  V30 5 2 5 6
M  V30 6 1 6 7
M  V30 7 1 7 8
M  V30 8 2 7 9
M  V30 9 1 6 10
M  V30 10 2 10 11
M  V30 11 1 11 12
M  V30 12 2 12 13
M  V30 13 1 13 14
M  V30 14 1 14 15
M  V30 15 2 15 16
M  V30 16 1 16 17
M  V30 17 2 17 18
M  V30 18 1 18 19
M  V30 19 1 19 20
M  V30 20 2 19 21
M  V30 21 2 19 22
M  V30 22 1 18 23
M  V30 23 2 23 24
M  V30 24 2 14 25
M  V30 25 1 25 26
M  V30 26 2 26 27
M  V30 27 1 27 5
M  V30 28 1 27 12
M  V30 29 1 24 15
M  V30 30 1 1 28
M  V30 31 1 1 29
M  V30 32 1 1 30
M  V30 33 1 2 31
M  V30 34 1 3 32
M  V30 35 1 3 33
M  V30 36 1 3 34
M  V30 37 1 4 35
M  V30 38 1 8 36
M  V30 39 1 8 37
M  V30 40 1 13 38
M  V30 41 1 16 39
M  V30 42 1 17 40
M  V30 43 1 20 41
M  V30 44 1 20 42
M  V30 45 1 20 43
M  V30 46 1 23 44
M  V30 47 1 24 45
M  V30 48 1 25 46
M  V30 49 1 26 47
M  V30 END BOND
M  V30 END CTAB
M  END
>  <Dataset>  (835) 
ChEMBL_Kinases

>  <Ligand_Instance>  (835) 
nan

>  <PDB_ID>  (835) 
nan

>  <Standardized_SMILES>  (835) 
CC(C)Nc1c(C(N)=O)nnc2cc(-c3ccc(S(C)(=O)=O)cc3)ccc12

>  <Name>  (835) 
nan

>  <Pocket>  (835) 
nan

>  <ATP_Site>  (835) 
nan

>  <Peripheral>  (835) 
nan

>  <Num_H_Atoms_ProtBoundConf>  (835) 
nan

>  <Num_Resolved_Atoms>  (835) 
nan

>  <Num_Not_Resolved_Atoms>  (835) 
nan

$$$$
CHEMBL2333127
     RDKit          3D

  0  0  0  0  0  0  0  0  0  0999 V3000
M  V30 BEGIN CTAB
M  V30 COUNTS 50 52 0 0 0
M  V30 BEGIN ATOM
M  V30 1 C 3.047024 -1.840771 4.057685 0
M  V30 2 C 3.629636 -2.329693 2.766174 0
M  V30 3 C 4.447053 -1.335524 2.015848 0 CFG=1
M  V30 4 C 4.958278 -2.096972 0.770114 0
M  V30 5 N 3.681771 -0.188050 1.533432 0
M  V30 6 C 2.800536 0.104588 0.462885 0
M  V30 7 C 3.477181 0.591847 -0.657837 0
M  V30 8 C 4.902846 0.836146 -0.718642 0
M  V30 9 N 5.642720 1.303814 -1.832087 0
M  V30 10 O 5.987942 0.816652 -0.113080 0
M  V30 11 N 2.875833 0.928589 -1.825295 0
M  V30 12 N 1.545620 0.799932 -1.949095 0
M  V30 13 C 0.826655 0.338173 -0.910588 0
M  V30 14 C -0.542663 0.171604 -0.925237 0
M  V30 15 C -1.244863 -0.304113 0.173909 0
M  V30 16 C -2.680062 -0.430041 0.017398 0
M  V30 17 C -3.284684 -1.441569 0.734076 0
M  V30 18 C -4.653770 -1.610933 0.623706 0
M  V30 19 C -5.343119 -0.737285 -0.215385 0
M  V30 20 S -7.083071 -0.971725 -0.340809 0
M  V30 21 C -7.840205 0.019928 0.922780 0
M  V30 22 O -7.404982 -2.408833 -0.161195 0
M  V30 23 O -7.560542 -0.432761 -1.655406 0
M  V30 24 C -4.739526 0.280269 -0.937083 0
M  V30 25 C -3.374550 0.444247 -0.823079 0
M  V30 26 C -0.582072 -0.636269 1.352086 0
M  V30 27 C 0.782315 -0.469164 1.362917 0
M  V30 28 C 1.449740 0.001205 0.264462 0
M  V30 29 H 3.760445 -2.114400 4.872158 0
M  V30 30 H 2.878105 -0.741165 4.060924 0
M  V30 31 H 2.057166 -2.295001 4.186783 0
M  V30 32 H 2.840404 -2.690597 2.074608 0
M  V30 33 H 4.262483 -3.213358 2.971468 0
M  V30 34 H 5.342413 -0.954434 2.525509 0
M  V30 35 H 4.250261 -1.932792 -0.045016 0
M  V30 36 H 6.011177 -1.832462 0.543484 0
M  V30 37 H 4.949423 -3.172346 1.024955 0
M  V30 38 H 3.731526 0.709696 2.051741 0
M  V30 39 H 5.967050 2.208265 -2.276582 0
M  V30 40 H 6.173625 0.956211 -2.675770 0
M  V30 41 H -1.062327 0.428341 -1.837712 0
M  V30 42 H -2.719174 -2.103335 1.377561 0
M  V30 43 H -5.168031 -2.390353 1.166980 0
M  V30 44 H -7.949016 1.060299 0.608389 0
M  V30 45 H -8.827534 -0.380587 1.226136 0
M  V30 46 H -7.178851 -0.011718 1.819358 0
M  V30 47 H -5.334437 0.917680 -1.565950 0
M  V30 48 H -2.880700 1.228340 -1.373939 0
M  V30 49 H -1.193617 -0.997698 2.160499 0
M  V30 50 H 1.270088 -0.723317 2.281023 0
M  V30 END ATOM
M  V30 BEGIN BOND
M  V30 1 1 1 2
M  V30 2 1 2 3
M  V30 3 1 3 4
M  V30 4 1 3 5
M  V30 5 1 5 6
M  V30 6 2 6 7
M  V30 7 1 7 8
M  V30 8 1 8 9
M  V30 9 2 8 10
M  V30 10 1 7 11
M  V30 11 2 11 12
M  V30 12 1 12 13
M  V30 13 2 13 14
M  V30 14 1 14 15
M  V30 15 1 15 16
M  V30 16 2 16 17
M  V30 17 1 17 18
M  V30 18 2 18 19
M  V30 19 1 19 20
M  V30 20 1 20 21
M  V30 21 2 20 22
M  V30 22 2 20 23
M  V30 23 1 19 24
M  V30 24 2 24 25
M  V30 25 2 15 26
M  V30 26 1 26 27
M  V30 27 2 27 28
M  V30 28 1 28 6
M  V30 29 1 28 13
M  V30 30 1 25 16
M  V30 31 1 1 29
M  V30 32 1 1 30
M  V30 33 1 1 31
M  V30 34 1 2 32
M  V30 35 1 2 33
M  V30 36 1 3 34 CFG=1
M  V30 37 1 4 35
M  V30 38 1 4 36
M  V30 39 1 4 37
M  V30 40 1 5 38
M  V30 41 1 9 39
M  V30 42 1 9 40
M  V30 43 1 14 41
M  V30 44 1 17 42
M  V30 45 1 18 43
M  V30 46 1 21 44
M  V30 47 1 21 45
M  V30 48 1 21 46
M  V30 49 1 24 47
M  V30 50 1 25 48
M  V30 51 1 26 49
M  V30 52 1 27 50
M  V30 END BOND
M  V30 END CTAB
M  END
>  <Dataset>  (836) 
ChEMBL_Kinases

>  <Ligand_Instance>  (836) 
nan

>  <PDB_ID>  (836) 
nan

>  <Standardized_SMILES>  (836) 
CC[C@@H](C)Nc1c(C(N)=O)nnc2cc(-c3ccc(S(C)(=O)=O)cc3)ccc12

>  <Name>  (836) 
nan

>  <Pocket>  (836) 
nan

>  <ATP_Site>  (836) 
nan

>  <Peripheral>  (836) 
nan

>  <Num_H_Atoms_ProtBoundConf>  (836) 
nan

>  <Num_Resolved_Atoms>  (836) 
nan

>  <Num_Not_Resolved_Atoms>  (836) 
nan

$$$$
CHEMBL2333128
     RDKit          3D

  0  0  0  0  0  0  0  0  0  0999 V3000
M  V30 BEGIN CTAB
M  V30 COUNTS 51 54 0 0 0
M  V30 BEGIN ATOM
M  V30 1 C 1.859457 -5.077410 -0.900255 0
M  V30 2 C 1.323589 -4.522390 0.401472 0 CFG=1
M  V30 3 N 0.021894 -3.921547 0.287517 0
M  V30 4 C -0.388724 -2.842687 -0.526470 0
M  V30 5 C -0.893990 -3.003089 -1.791121 0
M  V30 6 C -1.060548 -4.293839 -2.379135 0
M  V30 7 N -1.559607 -4.639976 -3.655950 0
M  V30 8 O -1.000087 -5.539774 -2.401199 0
M  V30 9 N -1.302023 -2.009551 -2.635457 0
M  V30 10 N -1.210591 -0.738368 -2.210334 0
M  V30 11 C -0.719379 -0.507898 -0.968662 0
M  V30 12 C -0.600034 0.773972 -0.477828 0
M  V30 13 C -0.117241 1.140656 0.759955 0
M  V30 14 C -0.031471 2.532775 1.182465 0
M  V30 15 C -0.908219 3.507466 0.779696 0
M  V30 16 C -0.807755 4.842943 1.192215 0
M  V30 17 C 0.239577 5.139671 2.043329 0
M  V30 18 S 0.328367 6.816736 2.526944 0
M  V30 19 C -0.635143 7.063104 3.981078 0
M  V30 20 O 1.759096 7.223323 2.803305 0
M  V30 21 O -0.186737 7.725572 1.446104 0
M  V30 22 C 1.171678 4.235856 2.505217 0
M  V30 23 C 0.969493 2.957415 2.031899 0
M  V30 24 C 0.291537 0.092582 1.596821 0
M  V30 25 C 0.190832 -1.231405 1.145091 0
M  V30 26 C -0.312293 -1.522560 -0.130253 0
M  V30 27 C 1.336417 -5.665878 1.385382 0
M  V30 28 C 0.566464 -6.895985 1.132733 0
M  V30 29 C 0.181809 -5.970870 2.261542 0
M  V30 30 H 1.757605 -4.381316 -1.757488 0
M  V30 31 H 1.352198 -6.044983 -1.090544 0
M  V30 32 H 2.978374 -5.223851 -0.816323 0
M  V30 33 H 2.019926 -3.710878 0.703981 0
M  V30 34 H -0.930439 -4.060379 0.709738 0
M  V30 35 H -2.150403 -3.848888 -4.016022 0
M  V30 36 H -2.162165 -3.886463 -4.074213 0
M  V30 37 H -0.919471 1.570910 -1.134185 0
M  V30 38 H -1.728279 3.237699 0.105046 0
M  V30 39 H -1.521202 5.574684 0.848926 0
M  V30 40 H 0.013984 7.264876 4.855460 0
M  V30 41 H -1.287166 7.970552 3.893847 0
M  V30 42 H -1.257971 6.149261 4.183249 0
M  V30 43 H 1.978029 4.498618 3.169027 0
M  V30 44 H 1.672501 2.172564 2.354375 0
M  V30 45 H 0.664704 0.385785 2.552808 0
M  V30 46 H 0.516344 -2.021446 1.817600 0
M  V30 47 H 2.341776 -5.806851 1.856154 0
M  V30 48 H -0.202739 -6.957238 0.333014 0
M  V30 49 H 1.018311 -7.883572 1.355905 0
M  V30 50 H -0.776524 -5.424805 2.206353 0
M  V30 51 H 0.363945 -6.369830 3.281852 0
M  V30 END ATOM
M  V30 BEGIN BOND
M  V30 1 1 1 2
M  V30 2 1 2 3
M  V30 3 1 3 4
M  V30 4 2 4 5
M  V30 5 1 5 6
M  V30 6 1 6 7
M  V30 7 2 6 8
M  V30 8 1 5 9
M  V30 9 2 9 10
M  V30 10 1 10 11
M  V30 11 2 11 12
M  V30 12 1 12 13
M  V30 13 1 13 14
M  V30 14 2 14 15
M  V30 15 1 15 16
M  V30 16 2 16 17
M  V30 17 1 17 18
M  V30 18 1 18 19
M  V30 19 2 18 20
M  V30 20 2 18 21
M  V30 21 1 17 22
M  V30 22 2 22 23
M  V30 23 2 13 24
M  V30 24 1 24 25
M  V30 25 2 25 26
M  V30 26 1 2 27
M  V30 27 1 27 28
M  V30 28 1 28 29
M  V30 29 1 26 4
M  V30 30 1 29 27
M  V30 31 1 26 11
M  V30 32 1 23 14
M  V30 33 1 1 30
M  V30 34 1 1 31
M  V30 35 1 1 32
M  V30 36 1 2 33 CFG=1
M  V30 37 1 3 34
M  V30 38 1 7 35
M  V30 39 1 7 36
M  V30 40 1 12 37
M  V30 41 1 15 38
M  V30 42 1 16 39
M  V30 43 1 19 40
M  V30 44 1 19 41
M  V30 45 1 19 42
M  V30 46 1 22 43
M  V30 47 1 23 44
M  V30 48 1 24 45
M  V30 49 1 25 46
M  V30 50 1 27 47
M  V30 51 1 28 48
M  V30 52 1 28 49
M  V30 53 1 29 50
M  V30 54 1 29 51
M  V30 END BOND
M  V30 END CTAB
M  END
>  <Dataset>  (837) 
ChEMBL_Kinases

>  <Ligand_Instance>  (837) 
nan

>  <PDB_ID>  (837) 
nan

>  <Standardized_SMILES>  (837) 
C[C@@H](Nc1c(C(N)=O)nnc2cc(-c3ccc(S(C)(=O)=O)cc3)ccc12)C1CC1

>  <Name>  (837) 
nan

>  <Pocket>  (837) 
nan

>  <ATP_Site>  (837) 
nan

>  <Peripheral>  (837) 
nan

>  <Num_H_Atoms_ProtBoundConf>  (837) 
nan

>  <Num_Resolved_Atoms>  (837) 
nan

>  <Num_Not_Resolved_Atoms>  (837) 
nan

$$$$
CHEMBL2333129
     RDKit          3D

  0  0  0  0  0  0  0  0  0  0999 V3000
M  V30 BEGIN CTAB
M  V30 COUNTS 48 51 0 0 0
M  V30 BEGIN ATOM
M  V30 1 C 1.143326 -8.301893 1.901281 0
M  V30 2 S 1.017289 -7.621481 0.281581 0
M  V30 3 O -0.048775 -8.370326 -0.471877 0
M  V30 4 O 2.321992 -7.841262 -0.427934 0
M  V30 5 C 0.643441 -5.915327 0.268474 0
M  V30 6 C 1.684980 -4.985757 0.283191 0
M  V30 7 C 1.454776 -3.603446 0.269418 0
M  V30 8 C 0.117833 -3.272030 0.240362 0
M  V30 9 C -0.136597 -1.812710 0.224330 0
M  V30 10 C 0.731393 -0.921469 0.871220 0
M  V30 11 C 0.406363 0.416014 0.794251 0
M  V30 12 C -0.685399 0.947802 0.143962 0
M  V30 13 C -0.921024 2.305291 0.127041 0
M  V30 14 N -0.108197 3.248122 0.744543 0
M  V30 15 C 1.037079 3.512921 1.509353 0
M  V30 16 C 1.332864 4.991860 1.848544 0
M  V30 17 C 2.043521 4.450206 3.079137 0
M  V30 18 C 1.014178 3.309537 3.003371 0
M  V30 19 C -2.054891 2.643862 -0.568713 0
M  V30 20 C -2.521383 4.000940 -0.734890 0
M  V30 21 N -3.677452 4.390849 -1.439189 0
M  V30 22 O -2.260033 5.186511 -0.450200 0
M  V30 23 N -2.827645 1.727400 -1.156575 0
M  V30 24 N -2.557468 0.436372 -1.110732 0
M  V30 25 C -1.474349 -0.006221 -0.457987 0
M  V30 26 C -1.253486 -1.365278 -0.450180 0
M  V30 27 C -0.978320 -4.105288 0.224308 0
M  V30 28 C -0.666513 -5.462208 0.239564 0
M  V30 29 H 1.883671 -9.146048 1.861388 0
M  V30 30 H 1.476373 -7.593470 2.672533 0
M  V30 31 H 0.184055 -8.810135 2.197437 0
M  V30 32 H 2.709506 -5.330814 0.305855 0
M  V30 33 H 2.243634 -2.871197 0.280096 0
M  V30 34 H 1.598486 -1.289251 1.393387 0
M  V30 35 H 1.081517 1.059380 1.292085 0
M  V30 36 H -0.484297 4.210150 0.596594 0
M  V30 37 H 2.040375 3.143578 1.124815 0
M  V30 38 H 2.057040 5.477225 1.180568 0
M  V30 39 H 0.426887 5.565005 2.120315 0
M  V30 40 H 1.931700 5.091342 3.972718 0
M  V30 41 H 3.078273 4.127534 2.921660 0
M  V30 42 H 1.441077 2.334681 3.284552 0
M  V30 43 H 0.128581 3.651886 3.537164 0
M  V30 44 H -4.662175 4.488369 -1.048067 0
M  V30 45 H -3.774213 4.649885 -2.459124 0
M  V30 46 H -1.936547 -2.027929 -0.955488 0
M  V30 47 H -1.979592 -3.705040 0.202246 0
M  V30 48 H -1.477829 -6.175352 0.228338 0
M  V30 END ATOM
M  V30 BEGIN BOND
M  V30 1 1 1 2
M  V30 2 2 2 3
M  V30 3 2 2 4
M  V30 4 1 2 5
M  V30 5 2 5 6
M  V30 6 1 6 7
M  V30 7 2 7 8
M  V30 8 1 8 9
M  V30 9 2 9 10
M  V30 10 1 10 11
M  V30 11 2 11 12
M  V30 12 1 12 13
M  V30 13 1 13 14
M  V30 14 1 14 15
M  V30 15 1 15 16
M  V30 16 1 16 17
M  V30 17 1 17 18
M  V30 18 2 13 19
M  V30 19 1 19 20
M  V30 20 1 20 21
M  V30 21 2 20 22
M  V30 22 1 19 23
M  V30 23 2 23 24
M  V30 24 1 24 25
M  V30 25 2 25 26
M  V30 26 1 8 27
M  V30 27 2 27 28
M  V30 28 1 28 5
M  V30 29 1 26 9
M  V30 30 1 25 12
M  V30 31 1 18 15
M  V30 32 1 1 29
M  V30 33 1 1 30
M  V30 34 1 1 31
M  V30 35 1 6 32
M  V30 36 1 7 33
M  V30 37 1 10 34
M  V30 38 1 11 35
M  V30 39 1 14 36
M  V30 40 1 15 37
M  V30 41 1 16 38
M  V30 42 1 16 39
M  V30 43 1 17 40
M  V30 44 1 17 41
M  V30 45 1 18 42
M  V30 46 1 18 43
M  V30 47 1 21 44
M  V30 48 1 21 45
M  V30 49 1 26 46
M  V30 50 1 27 47
M  V30 51 1 28 48
M  V30 END BOND
M  V30 END CTAB
M  END
>  <Dataset>  (838) 
ChEMBL_Kinases

>  <Ligand_Instance>  (838) 
nan

>  <PDB_ID>  (838) 
nan

>  <Standardized_SMILES>  (838) 
CS(=O)(=O)c1ccc(-c2ccc3c(NC4CCC4)c(C(N)=O)nnc3c2)cc1

>  <Name>  (838) 
nan

>  <Pocket>  (838) 
nan

>  <ATP_Site>  (838) 
nan

>  <Peripheral>  (838) 
nan

>  <Num_H_Atoms_ProtBoundConf>  (838) 
nan

>  <Num_Resolved_Atoms>  (838) 
nan

>  <Num_Not_Resolved_Atoms>  (838) 
nan

$$$$
CHEMBL2333130
     RDKit          3D

  0  0  0  0  0  0  0  0  0  0999 V3000
M  V30 BEGIN CTAB
M  V30 COUNTS 48 51 0 0 0
M  V30 BEGIN ATOM
M  V30 1 C 2.101000 -7.976606 0.292424 0
M  V30 2 S 1.487718 -7.208726 -1.207007 0
M  V30 3 O 0.331893 -7.989473 -1.715707 0
M  V30 4 O 2.648646 -7.232699 -2.166983 0
M  V30 5 C 1.072543 -5.535304 -0.899925 0
M  V30 6 C 1.980845 -4.498683 -1.045904 0
M  V30 7 C 1.607107 -3.177577 -0.790678 0
M  V30 8 C 0.312841 -2.894592 -0.386138 0
M  V30 9 C -0.051020 -1.494114 -0.125019 0
M  V30 10 C 0.913727 -0.604550 0.368816 0
M  V30 11 C 0.543590 0.702735 0.604142 0
M  V30 12 C -0.747878 1.111305 0.355507 0
M  V30 13 C -0.989377 2.443739 0.617093 0
M  V30 14 N -0.193514 3.452437 1.156719 0
M  V30 15 C 0.216334 4.175666 2.288920 0
M  V30 16 C 0.773342 3.523258 3.484411 0
M  V30 17 C 1.997467 2.686166 3.515827 0
M  V30 18 C 0.671887 2.126742 3.885603 0
M  V30 19 C -2.286548 2.831438 0.341678 0
M  V30 20 C -2.726872 4.183633 0.533950 0
M  V30 21 N -4.034085 4.646664 0.284543 0
M  V30 22 O -2.535999 5.368872 0.859819 0
M  V30 23 N -3.266041 2.004263 -0.141572 0
M  V30 24 N -2.973750 0.724958 -0.373263 0
M  V30 25 C -1.730662 0.277233 -0.129841 0
M  V30 26 C -1.329877 -1.024502 -0.355119 0
M  V30 27 C -0.605941 -3.914759 -0.235283 0
M  V30 28 C -0.209880 -5.214097 -0.494496 0
M  V30 29 H 2.508465 -7.207557 0.980551 0
M  V30 30 H 2.847548 -8.740148 0.043852 0
M  V30 31 H 1.249507 -8.436117 0.833604 0
M  V30 32 H 2.999088 -4.738987 -1.366089 0
M  V30 33 H 2.324413 -2.392678 -0.909781 0
M  V30 34 H 1.903443 -1.008726 0.536040 0
M  V30 35 H 1.281580 1.392771 0.977513 0
M  V30 36 H 0.213621 3.665677 0.190533 0
M  V30 37 H -0.556120 4.905866 2.656904 0
M  V30 38 H 1.037923 4.883219 1.928987 0
M  V30 39 H 0.752138 4.242289 4.380969 0
M  V30 40 H 2.733451 2.810010 4.370181 0
M  V30 41 H 2.522386 2.511455 2.582635 0
M  V30 42 H 0.540575 1.875715 4.989842 0
M  V30 43 H 0.099018 1.423159 3.288647 0
M  V30 44 H -5.070647 4.530478 0.427431 0
M  V30 45 H -4.958637 5.010051 0.082773 0
M  V30 46 H -2.084286 -1.711176 -0.739052 0
M  V30 47 H -1.622645 -3.681315 0.083816 0
M  V30 48 H -0.954295 -5.994625 -0.367146 0
M  V30 END ATOM
M  V30 BEGIN BOND
M  V30 1 1 1 2
M  V30 2 2 2 3
M  V30 3 2 2 4
M  V30 4 1 2 5
M  V30 5 2 5 6
M  V30 6 1 6 7
M  V30 7 2 7 8
M  V30 8 1 8 9
M  V30 9 2 9 10
M  V30 10 1 10 11
M  V30 11 2 11 12
M  V30 12 1 12 13
M  V30 13 1 13 14
M  V30 14 1 14 15
M  V30 15 1 15 16
M  V30 16 1 16 17
M  V30 17 1 17 18
M  V30 18 2 13 19
M  V30 19 1 19 20
M  V30 20 1 20 21
M  V30 21 2 20 22
M  V30 22 1 19 23
M  V30 23 2 23 24
M  V30 24 1 24 25
M  V30 25 2 25 26
M  V30 26 1 8 27
M  V30 27 2 27 28
M  V30 28 1 28 5
M  V30 29 1 26 9
M  V30 30 1 25 12
M  V30 31 1 18 16
M  V30 32 1 1 29
M  V30 33 1 1 30
M  V30 34 1 1 31
M  V30 35 1 6 32
M  V30 36 1 7 33
M  V30 37 1 10 34
M  V30 38 1 11 35
M  V30 39 1 14 36
M  V30 40 1 15 37
M  V30 41 1 15 38
M  V30 42 1 16 39
M  V30 43 1 17 40
M  V30 44 1 17 41
M  V30 45 1 18 42
M  V30 46 1 18 43
M  V30 47 1 21 44
M  V30 48 1 21 45
M  V30 49 1 26 46
M  V30 50 1 27 47
M  V30 51 1 28 48
M  V30 END BOND
M  V30 END CTAB
M  END
>  <Dataset>  (839) 
ChEMBL_Kinases

>  <Ligand_Instance>  (839) 
nan

>  <PDB_ID>  (839) 
nan

>  <Standardized_SMILES>  (839) 
CS(=O)(=O)c1ccc(-c2ccc3c(NCC4CC4)c(C(N)=O)nnc3c2)cc1

>  <Name>  (839) 
nan

>  <Pocket>  (839) 
nan

>  <ATP_Site>  (839) 
nan

>  <Peripheral>  (839) 
nan

>  <Num_H_Atoms_ProtBoundConf>  (839) 
nan

>  <Num_Resolved_Atoms>  (839) 
nan

>  <Num_Not_Resolved_Atoms>  (839) 
nan

$$$$
CHEMBL2333131
     RDKit          3D

  0  0  0  0  0  0  0  0  0  0999 V3000
M  V30 BEGIN CTAB
M  V30 COUNTS 44 46 0 0 0
M  V30 BEGIN ATOM
M  V30 1 C -1.741661 -3.630478 -1.899764 0
M  V30 2 C -1.139572 -3.270033 -3.214203 0
M  V30 3 N -0.352222 -2.064205 -3.228434 0
M  V30 4 C 0.797405 -1.742855 -2.468504 0
M  V30 5 C 2.057183 -2.068358 -2.920728 0
M  V30 6 C 2.290658 -2.733514 -4.178538 0
M  V30 7 N 3.547806 -3.106364 -4.700366 0
M  V30 8 O 1.555656 -3.148008 -5.105459 0
M  V30 9 N 3.174024 -1.783981 -2.228716 0
M  V30 10 N 3.120408 -1.161636 -1.049780 0
M  V30 11 C 1.933291 -0.803901 -0.528568 0
M  V30 12 C 1.883197 -0.154165 0.686355 0
M  V30 13 C 0.653697 0.211607 1.199346 0
M  V30 14 C 0.523364 0.909390 2.494871 0
M  V30 15 C 1.397890 0.703695 3.544614 0
M  V30 16 C 1.208933 1.396721 4.729281 0
M  V30 17 C 0.159836 2.298365 4.895204 0
M  V30 18 S -0.116561 3.195111 6.372709 0
M  V30 19 C -1.187892 2.288065 7.481825 0
M  V30 20 O 1.204303 3.311554 7.073710 0
M  V30 21 O -0.694326 4.544998 6.117557 0
M  V30 22 C -0.716751 2.501686 3.836867 0
M  V30 23 C -0.525112 1.808853 2.657217 0
M  V30 24 C -0.506397 -0.069579 0.504782 0
M  V30 25 C -0.407444 -0.719685 -0.703406 0
M  V30 26 C 0.796108 -1.101137 -1.247780 0
M  V30 27 H -2.021788 -4.713260 -1.935841 0
M  V30 28 H -1.036346 -3.524711 -1.063338 0
M  V30 29 H -2.701380 -3.100512 -1.698873 0
M  V30 30 H -1.975686 -3.218475 -3.957384 0
M  V30 31 H -0.503105 -4.119630 -3.597422 0
M  V30 32 H -0.537990 -1.218621 -3.838018 0
M  V30 33 H 4.257840 -2.561619 -5.251618 0
M  V30 34 H 4.101628 -3.985245 -4.687359 0
M  V30 35 H 2.779700 0.069085 1.233814 0
M  V30 36 H 2.217328 0.004218 3.425398 0
M  V30 37 H 1.860139 1.268180 5.564344 0
M  V30 38 H -1.794089 2.992764 8.108874 0
M  V30 39 H -1.935901 1.747751 6.862436 0
M  V30 40 H -0.632065 1.556445 8.079652 0
M  V30 41 H -1.542093 3.198319 3.940415 0
M  V30 42 H -1.239019 2.008953 1.870497 0
M  V30 43 H -1.486077 0.220565 0.910032 0
M  V30 44 H -1.329031 -0.907172 -1.208116 0
M  V30 END ATOM
M  V30 BEGIN BOND
M  V30 1 1 1 2
M  V30 2 1 2 3
M  V30 3 1 3 4
M  V30 4 2 4 5
M  V30 5 1 5 6
M  V30 6 1 6 7
M  V30 7 2 6 8
M  V30 8 1 5 9
M  V30 9 2 9 10
M  V30 10 1 10 11
M  V30 11 2 11 12
M  V30 12 1 12 13
M  V30 13 1 13 14
M  V30 14 2 14 15
M  V30 15 1 15 16
M  V30 16 2 16 17
M  V30 17 1 17 18
M  V30 18 1 18 19
M  V30 19 2 18 20
M  V30 20 2 18 21
M  V30 21 1 17 22
M  V30 22 2 22 23
M  V30 23 2 13 24
M  V30 24 1 24 25
M  V30 25 2 25 26
M  V30 26 1 26 4
M  V30 27 1 26 11
M  V30 28 1 23 14
M  V30 29 1 1 27
M  V30 30 1 1 28
M  V30 31 1 1 29
M  V30 32 1 2 30
M  V30 33 1 2 31
M  V30 34 1 3 32
M  V30 35 1 7 33
M  V30 36 1 7 34
M  V30 37 1 12 35
M  V30 38 1 15 36
M  V30 39 1 16 37
M  V30 40 1 19 38
M  V30 41 1 19 39
M  V30 42 1 19 40
M  V30 43 1 22 41
M  V30 44 1 23 42
M  V30 45 1 24 43
M  V30 46 1 25 44
M  V30 END BOND
M  V30 END CTAB
M  END
>  <Dataset>  (840) 
ChEMBL_Kinases

>  <Ligand_Instance>  (840) 
nan

>  <PDB_ID>  (840) 
nan

>  <Standardized_SMILES>  (840) 
CCNc1c(C(N)=O)nnc2cc(-c3ccc(S(C)(=O)=O)cc3)ccc12

>  <Name>  (840) 
nan

>  <Pocket>  (840) 
nan

>  <ATP_Site>  (840) 
nan

>  <Peripheral>  (840) 
nan

>  <Num_H_Atoms_ProtBoundConf>  (840) 
nan

>  <Num_Resolved_Atoms>  (840) 
nan

>  <Num_Not_Resolved_Atoms>  (840) 
nan

$$$$
CHEMBL2333132
     RDKit          3D

  0  0  0  0  0  0  0  0  0  0999 V3000
M  V30 BEGIN CTAB
M  V30 COUNTS 52 55 0 0 0
M  V30 BEGIN ATOM
M  V30 1 C 5.931935 -5.117101 4.152430 0
M  V30 2 S 6.471190 -3.634600 3.310849 0
M  V30 3 O 7.008759 -2.646540 4.273840 0
M  V30 4 O 7.518307 -3.965057 2.312651 0
M  V30 5 C 5.050605 -2.963866 2.494819 0
M  V30 6 C 4.739138 -3.344480 1.184830 0
M  V30 7 C 3.602634 -2.783743 0.585102 0
M  V30 8 C 2.811546 -1.876217 1.276722 0
M  V30 9 C 1.642888 -1.331307 0.595151 0
M  V30 10 C 0.488300 -0.967401 1.295742 0
M  V30 11 C -0.552119 -0.464207 0.544665 0
M  V30 12 C -0.579667 -0.280420 -0.817020 0
M  V30 13 C -1.685818 0.225938 -1.458731 0
M  V30 14 N -2.855329 0.638039 -0.804219 0
M  V30 15 C -3.613940 0.872948 0.348267 0
M  V30 16 C -3.120653 2.032858 1.225133 0
M  V30 17 C -3.862394 1.911917 2.531446 0
M  V30 18 O -4.894168 0.990509 2.470474 0
M  V30 19 C -5.766811 1.235666 1.437059 0
M  V30 20 C -5.087579 1.234935 0.081240 0
M  V30 21 C -1.520895 0.321649 -2.817509 0
M  V30 22 C -2.544805 0.824290 -3.701880 0
M  V30 23 N -2.415129 0.939313 -5.108243 0
M  V30 24 O -3.699503 1.281034 -3.763192 0
M  V30 25 N -0.395104 -0.044280 -3.424713 0
M  V30 26 N 0.638072 -0.524394 -2.755412 0
M  V30 27 C 0.592666 -0.663864 -1.423824 0
M  V30 28 C 1.691241 -1.176835 -0.775138 0
M  V30 29 C 3.152944 -1.523853 2.573558 0
M  V30 30 C 4.277733 -2.057727 3.212294 0
M  V30 31 H 6.147459 -5.984406 3.474084 0
M  V30 32 H 4.811865 -5.134812 4.259665 0
M  V30 33 H 6.330918 -5.217688 5.161012 0
M  V30 34 H 5.396424 -4.049496 0.715095 0
M  V30 35 H 3.396730 -3.108310 -0.438144 0
M  V30 36 H 0.460373 -1.090367 2.353394 0
M  V30 37 H -1.411461 -0.214262 1.132834 0
M  V30 38 H -3.550302 0.935601 -1.519090 0
M  V30 39 H -3.693065 0.008380 1.051844 0
M  V30 40 H -3.463323 2.947136 0.653100 0
M  V30 41 H -2.034369 2.045183 1.311577 0
M  V30 42 H -4.284910 2.904359 2.852813 0
M  V30 43 H -3.156782 1.563824 3.335385 0
M  V30 44 H -6.524060 0.401216 1.423899 0
M  V30 45 H -6.376900 2.162932 1.610242 0
M  V30 46 H -5.066077 2.299438 -0.256655 0
M  V30 47 H -5.547544 0.541132 -0.637500 0
M  V30 48 H -2.643588 0.217841 -5.853452 0
M  V30 49 H -2.067916 1.759273 -5.686428 0
M  V30 50 H 2.569866 -1.448850 -1.346472 0
M  V30 51 H 2.514749 -0.803746 3.106214 0
M  V30 52 H 4.532212 -1.774127 4.223881 0
M  V30 END ATOM
M  V30 BEGIN BOND
M  V30 1 1 1 2
M  V30 2 2 2 3
M  V30 3 2 2 4
M  V30 4 1 2 5
M  V30 5 2 5 6
M  V30 6 1 6 7
M  V30 7 2 7 8
M  V30 8 1 8 9
M  V30 9 2 9 10
M  V30 10 1 10 11
M  V30 11 2 11 12
M  V30 12 1 12 13
M  V30 13 1 13 14
M  V30 14 1 14 15
M  V30 15 1 15 16
M  V30 16 1 16 17
M  V30 17 1 17 18
M  V30 18 1 18 19
M  V30 19 1 19 20
M  V30 20 2 13 21
M  V30 21 1 21 22
M  V30 22 1 22 23
M  V30 23 2 22 24
M  V30 24 1 21 25
M  V30 25 2 25 26
M  V30 26 1 26 27
M  V30 27 2 27 28
M  V30 28 1 8 29
M  V30 29 2 29 30
M  V30 30 1 30 5
M  V30 31 1 28 9
M  V30 32 1 27 12
M  V30 33 1 20 15
M  V30 34 1 1 31
M  V30 35 1 1 32
M  V30 36 1 1 33
M  V30 37 1 6 34
M  V30 38 1 7 35
M  V30 39 1 10 36
M  V30 40 1 11 37
M  V30 41 1 14 38
M  V30 42 1 15 39
M  V30 43 1 16 40
M  V30 44 1 16 41
M  V30 45 1 17 42
M  V30 46 1 17 43
M  V30 47 1 19 44
M  V30 48 1 19 45
M  V30 49 1 20 46
M  V30 50 1 20 47
M  V30 51 1 23 48
M  V30 52 1 23 49
M  V30 53 1 28 50
M  V30 54 1 29 51
M  V30 55 1 30 52
M  V30 END BOND
M  V30 END CTAB
M  END
>  <Dataset>  (841) 
ChEMBL_Kinases

>  <Ligand_Instance>  (841) 
nan

>  <PDB_ID>  (841) 
nan

>  <Standardized_SMILES>  (841) 
CS(=O)(=O)c1ccc(-c2ccc3c(NC4CCOCC4)c(C(N)=O)nnc3c2)cc1

>  <Name>  (841) 
nan

>  <Pocket>  (841) 
nan

>  <ATP_Site>  (841) 
nan

>  <Peripheral>  (841) 
nan

>  <Num_H_Atoms_ProtBoundConf>  (841) 
nan

>  <Num_Resolved_Atoms>  (841) 
nan

>  <Num_Not_Resolved_Atoms>  (841) 
nan

$$$$
CHEMBL2333133
     RDKit          3D

  0  0  0  0  0  0  0  0  0  0999 V3000
M  V30 BEGIN CTAB
M  V30 COUNTS 45 48 0 0 0
M  V30 BEGIN ATOM
M  V30 1 C -1.739295 -7.786159 -1.549771 0
M  V30 2 S -2.402277 -6.327172 -2.338421 0
M  V30 3 O -3.896209 -6.359815 -2.365041 0
M  V30 4 O -1.821811 -6.326279 -3.743303 0
M  V30 5 C -1.783955 -4.892649 -1.541762 0
M  V30 6 C -0.611796 -4.287482 -1.953865 0
M  V30 7 C -0.184392 -3.158318 -1.281683 0
M  V30 8 C -0.893410 -2.622161 -0.215576 0
M  V30 9 C -0.343522 -1.424829 0.410563 0
M  V30 10 C 0.361007 -0.527942 -0.379934 0
M  V30 11 C 0.891072 0.613535 0.183842 0
M  V30 12 C 0.773922 0.942921 1.503819 0
M  V30 13 C 1.314600 2.089147 2.038731 0
M  V30 14 N 2.019557 3.022181 1.272373 0
M  V30 15 C 2.712047 4.232501 1.618257 0
M  V30 16 C 3.213433 5.067097 0.440196 0
M  V30 17 C 2.192509 5.580101 1.419441 0
M  V30 18 C 1.071837 2.214187 3.387913 0
M  V30 19 C 1.509364 3.361103 4.133107 0
M  V30 20 N 1.319293 3.529083 5.532886 0
M  V30 21 O 2.005767 4.459178 4.454764 0
M  V30 22 N 0.380327 1.340600 4.185228 0
M  V30 23 N -0.125383 0.235953 3.606824 0
M  V30 24 C 0.077176 0.052484 2.277775 0
M  V30 25 C -0.461033 -1.090537 1.744333 0
M  V30 26 C -2.075976 -3.253608 0.181610 0
M  V30 27 C -2.521482 -4.394895 -0.486636 0
M  V30 28 H -1.374588 -8.526689 -2.273087 0
M  V30 29 H -2.541645 -8.274149 -0.922587 0
M  V30 30 H -0.980256 -7.465121 -0.804622 0
M  V30 31 H -0.114401 -4.756597 -2.786007 0
M  V30 32 H 0.744137 -2.767001 -1.686991 0
M  V30 33 H 0.470842 -0.761826 -1.431427 0
M  V30 34 H 1.418257 1.240436 -0.512532 0
M  V30 35 H 2.071395 2.835333 0.257283 0
M  V30 36 H 3.558163 4.084317 2.348105 0
M  V30 37 H 4.179535 5.577413 0.494420 0
M  V30 38 H 2.868524 4.770730 -0.565622 0
M  V30 39 H 1.178992 5.791806 1.033181 0
M  V30 40 H 2.505808 6.382054 2.148518 0
M  V30 41 H 1.466381 2.809705 6.305889 0
M  V30 42 H 1.457556 2.834726 6.315885 0
M  V30 43 H -1.019362 -1.799482 2.375651 0
M  V30 44 H -2.591751 -2.790260 1.023342 0
M  V30 45 H -3.450125 -4.846626 -0.134924 0
M  V30 END ATOM
M  V30 BEGIN BOND
M  V30 1 1 1 2
M  V30 2 2 2 3
M  V30 3 2 2 4
M  V30 4 1 2 5
M  V30 5 2 5 6
M  V30 6 1 6 7
M  V30 7 2 7 8
M  V30 8 1 8 9
M  V30 9 2 9 10
M  V30 10 1 10 11
M  V30 11 2 11 12
M  V30 12 1 12 13
M  V30 13 1 13 14
M  V30 14 1 14 15
M  V30 15 1 15 16
M  V30 16 1 16 17
M  V30 17 2 13 18
M  V30 18 1 18 19
M  V30 19 1 19 20
M  V30 20 2 19 21
M  V30 21 1 18 22
M  V30 22 2 22 23
M  V30 23 1 23 24
M  V30 24 2 24 25
M  V30 25 1 8 26
M  V30 26 2 26 27
M  V30 27 1 27 5
M  V30 28 1 25 9
M  V30 29 1 24 12
M  V30 30 1 17 15
M  V30 31 1 1 28
M  V30 32 1 1 29
M  V30 33 1 1 30
M  V30 34 1 6 31
M  V30 35 1 7 32
M  V30 36 1 10 33
M  V30 37 1 11 34
M  V30 38 1 14 35
M  V30 39 1 15 36
M  V30 40 1 16 37
M  V30 41 1 16 38
M  V30 42 1 17 39
M  V30 43 1 17 40
M  V30 44 1 20 41
M  V30 45 1 20 42
M  V30 46 1 25 43
M  V30 47 1 26 44
M  V30 48 1 27 45
M  V30 END BOND
M  V30 END CTAB
M  END
>  <Dataset>  (842) 
ChEMBL_Kinases

>  <Ligand_Instance>  (842) 
nan

>  <PDB_ID>  (842) 
nan

>  <Standardized_SMILES>  (842) 
CS(=O)(=O)c1ccc(-c2ccc3c(NC4CC4)c(C(N)=O)nnc3c2)cc1

>  <Name>  (842) 
nan

>  <Pocket>  (842) 
nan

>  <ATP_Site>  (842) 
nan

>  <Peripheral>  (842) 
nan

>  <Num_H_Atoms_ProtBoundConf>  (842) 
nan

>  <Num_Resolved_Atoms>  (842) 
nan

>  <Num_Not_Resolved_Atoms>  (842) 
nan

$$$$
CHEMBL2333125
     RDKit          3D

  0  0  0  0  0  0  0  0  0  0999 V3000
M  V30 BEGIN CTAB
M  V30 COUNTS 48 50 0 0 0
M  V30 BEGIN ATOM
M  V30 1 C 2.121373 -2.316110 -2.491821 0
M  V30 2 C 3.071552 -1.170485 -2.727007 0
M  V30 3 C 2.962903 -0.835427 -4.214745 0
M  V30 4 N 2.792810 -0.002079 -1.925052 0
M  V30 5 C 2.723970 0.162413 -0.522201 0
M  V30 6 C 3.856254 0.466003 0.202603 0
M  V30 7 C 5.134522 0.626875 -0.455476 0
M  V30 8 N 6.360857 0.932465 0.191311 0
M  V30 9 O 5.611215 0.578780 -1.614995 0
M  V30 10 C 3.882339 0.643017 1.565728 0
M  V30 11 N 2.716131 0.508117 2.223742 0
M  V30 12 C 1.565158 0.216166 1.611721 0
M  V30 13 C 0.392127 0.094995 2.328720 0
M  V30 14 C -0.814153 -0.202335 1.691228 0
M  V30 15 C -2.097216 -0.347451 2.375237 0
M  V30 16 C -2.244851 -0.834396 3.674557 0
M  V30 17 C -3.501847 -0.933475 4.234968 0
M  V30 18 C -4.650570 -0.567054 3.561196 0
M  V30 19 S -6.258172 -0.684727 4.254077 0
M  V30 20 C -6.901647 -2.308419 3.860011 0
M  V30 21 O -7.150521 0.313387 3.575406 0
M  V30 22 O -6.231686 -0.415324 5.711004 0
M  V30 23 C -4.512798 -0.081834 2.268752 0
M  V30 24 C -3.248434 0.019030 1.701903 0
M  V30 25 C -0.789779 -0.372367 0.300468 0
M  V30 26 C 0.397875 -0.242174 -0.365055 0
M  V30 27 C 1.586955 0.047471 0.243320 0
M  V30 28 H 2.597366 -3.251500 -2.848620 0
M  V30 29 H 1.910536 -2.483600 -1.414182 0
M  V30 30 H 1.174742 -2.159950 -3.058308 0
M  V30 31 H 4.098443 -1.531038 -2.488753 0
M  V30 32 H 3.296823 -1.683754 -4.834170 0
M  V30 33 H 3.552289 0.087972 -4.471122 0
M  V30 34 H 1.899217 -0.661134 -4.467269 0
M  V30 35 H 2.591951 0.942759 -2.333347 0
M  V30 36 H 6.890546 0.245517 0.782449 0
M  V30 37 H 7.002503 1.742825 0.281986 0
M  V30 38 H 4.775403 0.881106 2.128262 0
M  V30 39 H 0.359458 0.226136 3.413591 0
M  V30 40 H -1.345194 -1.117493 4.192580 0
M  V30 41 H -3.603288 -1.314488 5.248141 0
M  V30 42 H -6.695065 -3.037491 4.673910 0
M  V30 43 H -8.007935 -2.295990 3.729586 0
M  V30 44 H -6.466842 -2.694278 2.924562 0
M  V30 45 H -5.413585 0.207187 1.736503 0
M  V30 46 H -3.265026 0.414535 0.680905 0
M  V30 47 H -1.725130 -0.603595 -0.206783 0
M  V30 48 H 0.342445 -0.375998 -1.434795 0
M  V30 END ATOM
M  V30 BEGIN BOND
M  V30 1 1 1 2
M  V30 2 1 2 3
M  V30 3 1 2 4
M  V30 4 1 4 5
M  V30 5 2 5 6
M  V30 6 1 6 7
M  V30 7 1 7 8
M  V30 8 2 7 9
M  V30 9 1 6 10
M  V30 10 2 10 11
M  V30 11 1 11 12
M  V30 12 2 12 13
M  V30 13 1 13 14
M  V30 14 1 14 15
M  V30 15 2 15 16
M  V30 16 1 16 17
M  V30 17 2 17 18
M  V30 18 1 18 19
M  V30 19 1 19 20
M  V30 20 2 19 21
M  V30 21 2 19 22
M  V30 22 1 18 23
M  V30 23 2 23 24
M  V30 24 2 14 25
M  V30 25 1 25 26
M  V30 26 2 26 27
M  V30 27 1 27 5
M  V30 28 1 27 12
M  V30 29 1 24 15
M  V30 30 1 1 28
M  V30 31 1 1 29
M  V30 32 1 1 30
M  V30 33 1 2 31
M  V30 34 1 3 32
M  V30 35 1 3 33
M  V30 36 1 3 34
M  V30 37 1 4 35
M  V30 38 1 8 36
M  V30 39 1 8 37
M  V30 40 1 10 38
M  V30 41 1 13 39
M  V30 42 1 16 40
M  V30 43 1 17 41
M  V30 44 1 20 42
M  V30 45 1 20 43
M  V30 46 1 20 44
M  V30 47 1 23 45
M  V30 48 1 24 46
M  V30 49 1 25 47
M  V30 50 1 26 48
M  V30 END BOND
M  V30 END CTAB
M  END
>  <Dataset>  (843) 
ChEMBL_Kinases

>  <Ligand_Instance>  (843) 
nan

>  <PDB_ID>  (843) 
nan

>  <Standardized_SMILES>  (843) 
CC(C)Nc1c(C(N)=O)cnc2cc(-c3ccc(S(C)(=O)=O)cc3)ccc12

>  <Name>  (843) 
nan

>  <Pocket>  (843) 
nan

>  <ATP_Site>  (843) 
nan

>  <Peripheral>  (843) 
nan

>  <Num_H_Atoms_ProtBoundConf>  (843) 
nan

>  <Num_Resolved_Atoms>  (843) 
nan

>  <Num_Not_Resolved_Atoms>  (843) 
nan

$$$$
CHEMBL2334579
     RDKit          3D

  0  0  0  0  0  0  0  0  0  0999 V3000
M  V30 BEGIN CTAB
M  V30 COUNTS 33 36 0 0 0
M  V30 BEGIN ATOM
M  V30 1 N 1.049055 -2.342225 4.331212 0
M  V30 2 C 0.841526 -2.438416 2.907256 0
M  V30 3 N 1.049231 -3.649520 2.316170 0
M  V30 4 C 0.872076 -3.809000 0.981803 0
M  V30 5 C 0.476644 -2.719817 0.231466 0
M  V30 6 C 0.267573 -1.482159 0.854107 0
M  V30 7 N 0.456229 -1.375431 2.178324 0
M  V30 8 C -0.148097 -0.225263 0.247608 0
M  V30 9 C -0.800942 -0.140777 -0.964539 0
M  V30 10 N -1.015293 1.156341 -1.180182 0
M  V30 11 C -0.518700 1.861907 -0.147977 0
M  V30 12 C -0.476741 3.229049 0.124773 0
M  V30 13 C 0.123252 3.659475 1.308870 0
M  V30 14 C 0.674496 2.755386 2.212024 0
M  V30 15 Cl 1.384813 3.466499 3.642270 0
M  V30 16 C 0.638126 1.391263 1.950235 0
M  V30 17 C 0.042424 1.011764 0.781851 0
M  V30 18 C -1.249661 -1.122200 -1.951175 0
M  V30 19 C -1.115179 -2.553614 -1.558049 0
M  V30 20 C 0.299031 -2.987740 -1.242540 0
M  V30 21 H 2.062770 -2.075872 4.256675 0
M  V30 22 H 0.050425 -2.599292 4.588587 0
M  V30 23 H 1.023490 -4.750180 0.461050 0
M  V30 24 H -1.486420 1.626129 -1.995950 0
M  V30 25 H -0.901636 3.956403 -0.567155 0
M  V30 26 H 0.130140 4.723177 1.472959 0
M  V30 27 H 1.083491 0.780765 2.691243 0
M  V30 28 H -0.757161 -0.986103 -2.953110 0
M  V30 29 H -2.331489 -0.955538 -2.164884 0
M  V30 30 H -1.804041 -2.843021 -0.737633 0
M  V30 31 H -1.422931 -3.156940 -2.437155 0
M  V30 32 H 0.435358 -4.059820 -1.429448 0
M  V30 33 H 1.009119 -2.327300 -1.773575 0
M  V30 END ATOM
M  V30 BEGIN BOND
M  V30 1 1 1 2
M  V30 2 2 2 3
M  V30 3 1 3 4
M  V30 4 2 4 5
M  V30 5 1 5 6
M  V30 6 2 6 7
M  V30 7 1 6 8
M  V30 8 2 8 9
M  V30 9 1 9 10
M  V30 10 1 10 11
M  V30 11 2 11 12
M  V30 12 1 12 13
M  V30 13 2 13 14
M  V30 14 1 14 15
M  V30 15 1 14 16
M  V30 16 2 16 17
M  V30 17 1 9 18
M  V30 18 1 18 19
M  V30 19 1 19 20
M  V30 20 1 7 2
M  V30 21 1 17 8
M  V30 22 1 20 5
M  V30 23 1 17 11
M  V30 24 1 1 21
M  V30 25 1 1 22
M  V30 26 1 4 23
M  V30 27 1 10 24
M  V30 28 1 12 25
M  V30 29 1 13 26
M  V30 30 1 16 27
M  V30 31 1 18 28
M  V30 32 1 18 29
M  V30 33 1 19 30
M  V30 34 1 19 31
M  V30 35 1 20 32
M  V30 36 1 20 33
M  V30 END BOND
M  V30 END CTAB
M  END
>  <Dataset>  (844) 
ChEMBL_Kinases

>  <Ligand_Instance>  (844) 
nan

>  <PDB_ID>  (844) 
nan

>  <Standardized_SMILES>  (844) 
Nc1ncc2c(n1)-c1c([nH]c3ccc(Cl)cc13)CCC2

>  <Name>  (844) 
nan

>  <Pocket>  (844) 
nan

>  <ATP_Site>  (844) 
nan

>  <Peripheral>  (844) 
nan

>  <Num_H_Atoms_ProtBoundConf>  (844) 
nan

>  <Num_Resolved_Atoms>  (844) 
nan

>  <Num_Not_Resolved_Atoms>  (844) 
nan

$$$$
CHEMBL2334578
     RDKit          3D

  0  0  0  0  0  0  0  0  0  0999 V3000
M  V30 BEGIN CTAB
M  V30 COUNTS 32 34 0 0 0
M  V30 BEGIN ATOM
M  V30 1 C -1.988458 -2.052187 1.277690 0
M  V30 2 C -0.558931 -2.329897 1.632998 0
M  V30 3 C -0.223863 -3.372237 2.480827 0
M  V30 4 N 1.083723 -3.608124 2.791663 0
M  V30 5 C 2.073257 -2.835883 2.283082 0
M  V30 6 N 3.425140 -3.119991 2.635904 0
M  V30 7 N 1.734479 -1.817366 1.453532 0
M  V30 8 C 0.459819 -1.544968 1.117311 0
M  V30 9 C 0.193712 -0.437626 0.225276 0
M  V30 10 C 0.156040 -0.640155 -1.154435 0
M  V30 11 C 0.355204 -1.886442 -1.943544 0
M  V30 12 N -0.108480 0.558865 -1.698341 0
M  V30 13 C -0.239110 1.503116 -0.738553 0
M  V30 14 C -0.502764 2.857752 -0.724228 0
M  V30 15 C -0.572635 3.556195 0.463591 0
M  V30 16 C -0.377369 2.904194 1.678349 0
M  V30 17 Cl -0.477137 3.836361 3.148188 0
M  V30 18 C -0.107895 1.536234 1.721667 0
M  V30 19 C -0.053256 0.903463 0.490598 0
M  V30 20 H -2.097095 -1.569570 0.303180 0
M  V30 21 H -2.467682 -1.481282 2.117496 0
M  V30 22 H -2.513391 -3.024316 1.249166 0
M  V30 23 H -1.025188 -3.971631 2.872389 0
M  V30 24 H 4.190014 -2.396327 2.726937 0
M  V30 25 H 3.731092 -4.106126 2.828953 0
M  V30 26 H -0.617983 -2.201825 -2.345347 0
M  V30 27 H 1.031838 -1.664500 -2.794369 0
M  V30 28 H 0.791123 -2.677576 -1.298820 0
M  V30 29 H -0.206312 0.765797 -2.724574 0
M  V30 30 H -0.647600 3.320210 -1.698970 0
M  V30 31 H -0.783689 4.614686 0.384476 0
M  V30 32 H 0.041284 1.036856 2.645282 0
M  V30 END ATOM
M  V30 BEGIN BOND
M  V30 1 1 1 2
M  V30 2 2 2 3
M  V30 3 1 3 4
M  V30 4 2 4 5
M  V30 5 1 5 6
M  V30 6 1 5 7
M  V30 7 2 7 8
M  V30 8 1 8 9
M  V30 9 2 9 10
M  V30 10 1 10 11
M  V30 11 1 10 12
M  V30 12 1 12 13
M  V30 13 2 13 14
M  V30 14 1 14 15
M  V30 15 2 15 16
M  V30 16 1 16 17
M  V30 17 1 16 18
M  V30 18 2 18 19
M  V30 19 1 8 2
M  V30 20 1 19 9
M  V30 21 1 19 13
M  V30 22 1 1 20
M  V30 23 1 1 21
M  V30 24 1 1 22
M  V30 25 1 3 23
M  V30 26 1 6 24
M  V30 27 1 6 25
M  V30 28 1 11 26
M  V30 29 1 11 27
M  V30 30 1 11 28
M  V30 31 1 12 29
M  V30 32 1 14 30
M  V30 33 1 15 31
M  V30 34 1 18 32
M  V30 END BOND
M  V30 END CTAB
M  END
>  <Dataset>  (845) 
ChEMBL_Kinases

>  <Ligand_Instance>  (845) 
nan

>  <PDB_ID>  (845) 
nan

>  <Standardized_SMILES>  (845) 
Cc1cnc(N)nc1-c1c(C)[nH]c2ccc(Cl)cc12

>  <Name>  (845) 
nan

>  <Pocket>  (845) 
nan

>  <ATP_Site>  (845) 
nan

>  <Peripheral>  (845) 
nan

>  <Num_H_Atoms_ProtBoundConf>  (845) 
nan

>  <Num_Resolved_Atoms>  (845) 
nan

>  <Num_Not_Resolved_Atoms>  (845) 
nan

$$$$
CHEMBL2334577
     RDKit          3D

  0  0  0  0  0  0  0  0  0  0999 V3000
M  V30 BEGIN CTAB
M  V30 COUNTS 29 31 0 0 0
M  V30 BEGIN ATOM
M  V30 1 C -2.418259 -1.624958 1.661333 0
M  V30 2 C -1.096079 -2.156006 1.998233 0
M  V30 3 C -0.806337 -3.039518 3.004335 0
M  V30 4 N 0.446473 -3.449663 3.231752 0
M  V30 5 C 1.445159 -2.980566 2.449490 0
M  V30 6 N 2.798485 -3.421752 2.681814 0
M  V30 7 N 1.176844 -2.127578 1.476702 0
M  V30 8 C -0.069511 -1.686616 1.211126 0
M  V30 9 C -0.098317 -0.734362 0.085664 0
M  V30 10 C -0.769022 -0.929282 -1.103402 0
M  V30 11 N -0.529875 0.154277 -1.898994 0
M  V30 12 C 0.280791 1.021816 -1.222664 0
M  V30 13 C 0.813839 2.268847 -1.577580 0
M  V30 14 C 1.614149 2.903906 -0.628639 0
M  V30 15 C 1.885456 2.346147 0.618853 0
M  V30 16 Cl 2.892562 3.247461 1.716069 0
M  V30 17 C 1.358367 1.125389 0.951820 0
M  V30 18 C 0.567678 0.489942 0.026179 0
M  V30 19 H -3.042340 -2.451381 1.236929 0
M  V30 20 H -2.918153 -1.392079 2.655335 0
M  V30 21 H -2.410767 -0.754940 1.003867 0
M  V30 22 H -1.629476 -3.387996 3.605397 0
M  V30 23 H 2.743960 -4.321958 2.134333 0
M  V30 24 H 3.600624 -2.988920 3.219486 0
M  V30 25 H -1.385840 -1.782812 -1.399598 0
M  V30 26 H -0.865167 0.361231 -2.863412 0
M  V30 27 H 0.594245 2.699718 -2.552484 0
M  V30 28 H 1.979902 3.870455 -0.985873 0
M  V30 29 H 1.563506 0.688801 1.912623 0
M  V30 END ATOM
M  V30 BEGIN BOND
M  V30 1 1 1 2
M  V30 2 2 2 3
M  V30 3 1 3 4
M  V30 4 2 4 5
M  V30 5 1 5 6
M  V30 6 1 5 7
M  V30 7 2 7 8
M  V30 8 1 8 9
M  V30 9 2 9 10
M  V30 10 1 10 11
M  V30 11 1 11 12
M  V30 12 2 12 13
M  V30 13 1 13 14
M  V30 14 2 14 15
M  V30 15 1 15 16
M  V30 16 1 15 17
M  V30 17 2 17 18
M  V30 18 1 8 2
M  V30 19 1 18 9
M  V30 20 1 18 12
M  V30 21 1 1 19
M  V30 22 1 1 20
M  V30 23 1 1 21
M  V30 24 1 3 22
M  V30 25 1 6 23
M  V30 26 1 6 24
M  V30 27 1 10 25
M  V30 28 1 11 26
M  V30 29 1 13 27
M  V30 30 1 14 28
M  V30 31 1 17 29
M  V30 END BOND
M  V30 END CTAB
M  END
>  <Dataset>  (846) 
ChEMBL_Kinases

>  <Ligand_Instance>  (846) 
nan

>  <PDB_ID>  (846) 
nan

>  <Standardized_SMILES>  (846) 
Cc1cnc(N)nc1-c1c[nH]c2ccc(Cl)cc12

>  <Name>  (846) 
nan

>  <Pocket>  (846) 
nan

>  <ATP_Site>  (846) 
nan

>  <Peripheral>  (846) 
nan

>  <Num_H_Atoms_ProtBoundConf>  (846) 
nan

>  <Num_Resolved_Atoms>  (846) 
nan

>  <Num_Not_Resolved_Atoms>  (846) 
nan

$$$$
CHEMBL233456
     RDKit          3D

  0  0  0  0  0  0  0  0  0  0999 V3000
M  V30 BEGIN CTAB
M  V30 COUNTS 54 57 0 0 0
M  V30 BEGIN ATOM
M  V30 1 N 3.399395 -7.315775 0.617347 0
M  V30 2 C 3.120596 -6.321184 0.090216 0
M  V30 3 C 2.768437 -5.092680 -0.566102 0
M  V30 4 C 3.705476 -4.293480 -1.183985 0
M  V30 5 N 3.333168 -3.150782 -1.789576 0
M  V30 6 C 2.042103 -2.739829 -1.819507 0
M  V30 7 N 1.707827 -1.533939 -2.465520 0
M  V30 8 C 1.653883 -0.310302 -1.741982 0
M  V30 9 C 1.911204 -0.299102 -0.387159 0
M  V30 10 C 1.870225 0.856804 0.365084 0
M  V30 11 C 1.563479 2.063670 -0.229771 0
M  V30 12 C 1.463660 3.398685 0.415360 0
M  V30 13 C 0.070937 3.723770 0.889369 0
M  V30 14 C -0.398413 2.732812 1.881790 0
M  V30 15 O -0.268856 1.713630 2.583608 0
M  V30 16 N -1.702817 2.964597 2.384350 0
M  V30 17 C -2.401548 2.161028 3.350142 0
M  V30 18 C -3.672377 1.614638 2.697664 0
M  V30 19 O -4.525259 2.679960 2.408013 0
M  V30 20 C -3.901157 3.489112 1.482883 0
M  V30 21 C -2.608051 4.051623 2.036839 0
M  V30 22 C 1.306633 2.029447 -1.603763 0
M  V30 23 C 1.341623 0.876601 -2.384325 0
M  V30 24 N 1.100483 -3.500162 -1.223159 0
M  V30 25 C 1.460794 -4.645626 -0.614003 0
M  V30 26 C 0.380145 -5.402740 0.005877 0
M  V30 27 C 0.464271 -5.956277 1.271945 0
M  V30 28 C -0.562484 -6.672232 1.853606 0
M  V30 29 C -1.729333 -6.843378 1.135757 0
M  V30 30 C -1.852299 -6.304043 -0.135771 0
M  V30 31 C -0.791551 -5.583266 -0.696069 0
M  V30 32 H 4.725540 -4.633510 -1.151480 0
M  V30 33 H 1.493958 -1.524106 -3.489645 0
M  V30 34 H 2.152477 -1.211235 0.113991 0
M  V30 35 H 2.065097 0.902829 1.410638 0
M  V30 36 H 1.860457 4.146684 -0.288180 0
M  V30 37 H 2.157515 3.411962 1.303998 0
M  V30 38 H 0.125389 4.695885 1.406966 0
M  V30 39 H -0.630149 3.812804 0.033182 0
M  V30 40 H -2.713881 2.740025 4.244996 0
M  V30 41 H -1.805327 1.295893 3.656584 0
M  V30 42 H -4.140214 0.869714 3.377349 0
M  V30 43 H -3.361540 1.142708 1.725292 0
M  V30 44 H -4.529007 4.325317 1.165091 0
M  V30 45 H -3.616280 2.859074 0.601786 0
M  V30 46 H -2.862391 4.637852 2.942947 0
M  V30 47 H -2.171689 4.736240 1.285636 0
M  V30 48 H 1.059607 2.940783 -2.138594 0
M  V30 49 H 1.132647 0.925504 -3.436413 0
M  V30 50 H 1.377572 -5.821058 1.834686 0
M  V30 51 H -0.410826 -7.065177 2.840209 0
M  V30 52 H -2.486563 -7.414532 1.657398 0
M  V30 53 H -2.792256 -6.476138 -0.641131 0
M  V30 54 H -0.989371 -5.212552 -1.675766 0
M  V30 END ATOM
M  V30 BEGIN BOND
M  V30 1 3 1 2
M  V30 2 1 2 3
M  V30 3 2 3 4
M  V30 4 1 4 5
M  V30 5 2 5 6
M  V30 6 1 6 7
M  V30 7 1 7 8
M  V30 8 2 8 9
M  V30 9 1 9 10
M  V30 10 2 10 11
M  V30 11 1 11 12
M  V30 12 1 12 13
M  V30 13 1 13 14
M  V30 14 2 14 15
M  V30 15 1 14 16
M  V30 16 1 16 17
M  V30 17 1 17 18
M  V30 18 1 18 19
M  V30 19 1 19 20
M  V30 20 1 20 21
M  V30 21 1 11 22
M  V30 22 2 22 23
M  V30 23 1 6 24
M  V30 24 2 24 25
M  V30 25 1 25 26
M  V30 26 2 26 27
M  V30 27 1 27 28
M  V30 28 2 28 29
M  V30 29 1 29 30
M  V30 30 2 30 31
M  V30 31 1 25 3
M  V30 32 1 31 26
M  V30 33 1 23 8
M  V30 34 1 21 16
M  V30 35 1 4 32
M  V30 36 1 7 33
M  V30 37 1 9 34
M  V30 38 1 10 35
M  V30 39 1 12 36
M  V30 40 1 12 37
M  V30 41 1 13 38
M  V30 42 1 13 39
M  V30 43 1 17 40
M  V30 44 1 17 41
M  V30 45 1 18 42
M  V30 46 1 18 43
M  V30 47 1 20 44
M  V30 48 1 20 45
M  V30 49 1 21 46
M  V30 50 1 21 47
M  V30 51 1 22 48
M  V30 52 1 23 49
M  V30 53 1 27 50
M  V30 54 1 28 51
M  V30 55 1 29 52
M  V30 56 1 30 53
M  V30 57 1 31 54
M  V30 END BOND
M  V30 END CTAB
M  END
>  <Dataset>  (847) 
ChEMBL_Kinases

>  <Ligand_Instance>  (847) 
nan

>  <PDB_ID>  (847) 
nan

>  <Standardized_SMILES>  (847) 
N#Cc1cnc(Nc2ccc(CCC(=O)N3CCOCC3)cc2)nc1-c1ccccc1

>  <Name>  (847) 
nan

>  <Pocket>  (847) 
nan

>  <ATP_Site>  (847) 
nan

>  <Peripheral>  (847) 
nan

>  <Num_H_Atoms_ProtBoundConf>  (847) 
nan

>  <Num_Resolved_Atoms>  (847) 
nan

>  <Num_Not_Resolved_Atoms>  (847) 
nan

$$$$
CHEMBL233455
     RDKit          3D

  0  0  0  0  0  0  0  0  0  0999 V3000
M  V30 BEGIN CTAB
M  V30 COUNTS 51 54 0 0 0
M  V30 BEGIN ATOM
M  V30 1 N 0.096056 -6.114884 4.110800 0
M  V30 2 C 0.267929 -5.475829 3.162445 0
M  V30 3 C 0.481454 -4.667115 1.996152 0
M  V30 4 C 1.633286 -3.890467 1.871225 0
M  V30 5 N 1.835767 -3.126263 0.789541 0
M  V30 6 C 0.931913 -3.073661 -0.229871 0
M  V30 7 N 1.405826 -2.186041 -1.229952 0
M  V30 8 C 0.978397 -0.831183 -1.213313 0
M  V30 9 C 1.516387 0.140550 -2.059980 0
M  V30 10 C 1.076454 1.443725 -2.026859 0
M  V30 11 C 0.076228 1.852806 -1.149377 0
M  V30 12 C -0.547041 3.162587 -0.963891 0
M  V30 13 C 0.068328 4.114254 -0.016407 0
M  V30 14 N 0.220330 3.684688 1.351206 0
M  V30 15 C 0.501239 4.926460 2.101121 0
M  V30 16 C 1.956459 5.201133 1.921936 0
M  V30 17 C 2.568461 3.839995 1.832890 0
M  V30 18 C 1.426339 2.904176 1.504900 0
M  V30 19 C -0.464838 0.872148 -0.297248 0
M  V30 20 C -0.012872 -0.429380 -0.343107 0
M  V30 21 N -0.184163 -3.807006 -0.141019 0
M  V30 22 C -0.421415 -4.598353 0.949237 0
M  V30 23 C -1.652295 -5.375344 1.004539 0
M  V30 24 C -2.939175 -4.969341 0.733296 0
M  V30 25 C -4.001379 -5.844468 0.829713 0
M  V30 26 C -3.782541 -7.148773 1.202431 0
M  V30 27 C -2.495410 -7.594012 1.483864 0
M  V30 28 C -1.432908 -6.698455 1.381971 0
M  V30 29 H 2.318882 -3.966196 2.702221 0
M  V30 30 H 2.067302 -2.457758 -2.001533 0
M  V30 31 H 2.294274 -0.133215 -2.757195 0
M  V30 32 H 1.436845 2.240643 -2.638926 0
M  V30 33 H -0.490814 3.660082 -1.992196 0
M  V30 34 H -1.644672 3.045217 -0.803626 0
M  V30 35 H -0.591502 5.033802 0.045969 0
M  V30 36 H 1.069358 4.484965 -0.335741 0
M  V30 37 H 0.205767 4.804670 3.161535 0
M  V30 38 H -0.166828 5.707711 1.690810 0
M  V30 39 H 2.381081 5.695071 2.825067 0
M  V30 40 H 2.185310 5.845973 1.051667 0
M  V30 41 H 3.320619 3.838183 1.017422 0
M  V30 42 H 3.076877 3.532854 2.765785 0
M  V30 43 H 1.713351 2.321834 0.621030 0
M  V30 44 H 1.305862 2.130777 2.322598 0
M  V30 45 H -1.259963 1.066828 0.438648 0
M  V30 46 H -0.445059 -1.185568 0.329244 0
M  V30 47 H -3.022251 -3.929973 0.446981 0
M  V30 48 H -5.003063 -5.482672 0.607575 0
M  V30 49 H -4.645760 -7.820580 1.270012 0
M  V30 50 H -2.451881 -8.635293 1.764985 0
M  V30 51 H -0.512851 -7.236007 1.636088 0
M  V30 END ATOM
M  V30 BEGIN BOND
M  V30 1 3 1 2
M  V30 2 1 2 3
M  V30 3 2 3 4
M  V30 4 1 4 5
M  V30 5 2 5 6
M  V30 6 1 6 7
M  V30 7 1 7 8
M  V30 8 2 8 9
M  V30 9 1 9 10
M  V30 10 2 10 11
M  V30 11 1 11 12
M  V30 12 1 12 13
M  V30 13 1 13 14
M  V30 14 1 14 15
M  V30 15 1 15 16
M  V30 16 1 16 17
M  V30 17 1 17 18
M  V30 18 1 11 19
M  V30 19 2 19 20
M  V30 20 1 6 21
M  V30 21 2 21 22
M  V30 22 1 22 23
M  V30 23 2 23 24
M  V30 24 1 24 25
M  V30 25 2 25 26
M  V30 26 1 26 27
M  V30 27 2 27 28
M  V30 28 1 22 3
M  V30 29 1 28 23
M  V30 30 1 20 8
M  V30 31 1 18 14
M  V30 32 1 4 29
M  V30 33 1 7 30
M  V30 34 1 9 31
M  V30 35 1 10 32
M  V30 36 1 12 33
M  V30 37 1 12 34
M  V30 38 1 13 35
M  V30 39 1 13 36
M  V30 40 1 15 37
M  V30 41 1 15 38
M  V30 42 1 16 39
M  V30 43 1 16 40
M  V30 44 1 17 41
M  V30 45 1 17 42
M  V30 46 1 18 43
M  V30 47 1 18 44
M  V30 48 1 19 45
M  V30 49 1 20 46
M  V30 50 1 24 47
M  V30 51 1 25 48
M  V30 52 1 26 49
M  V30 53 1 27 50
M  V30 54 1 28 51
M  V30 END BOND
M  V30 END CTAB
M  END
>  <Dataset>  (848) 
ChEMBL_Kinases

>  <Ligand_Instance>  (848) 
nan

>  <PDB_ID>  (848) 
nan

>  <Standardized_SMILES>  (848) 
N#Cc1cnc(Nc2ccc(CCN3CCCC3)cc2)nc1-c1ccccc1

>  <Name>  (848) 
nan

>  <Pocket>  (848) 
nan

>  <ATP_Site>  (848) 
nan

>  <Peripheral>  (848) 
nan

>  <Num_H_Atoms_ProtBoundConf>  (848) 
nan

>  <Num_Resolved_Atoms>  (848) 
nan

>  <Num_Not_Resolved_Atoms>  (848) 
nan

$$$$
CHEMBL233454
     RDKit          3D

  0  0  0  0  0  0  0  0  0  0999 V3000
M  V30 BEGIN CTAB
M  V30 COUNTS 48 51 0 0 0
M  V30 BEGIN ATOM
M  V30 1 N -2.248360 -4.742069 4.687558 0
M  V30 2 C -1.635519 -4.364884 3.793209 0
M  V30 3 C -0.860023 -3.866536 2.675492 0
M  V30 4 C 0.368214 -3.290470 2.948370 0
M  V30 5 N 1.055198 -2.844040 1.883131 0
M  V30 6 C 0.607019 -2.935421 0.619869 0
M  V30 7 N 1.587945 -2.364535 -0.268683 0
M  V30 8 C 1.438532 -0.972246 -0.480222 0
M  V30 9 C 0.429137 -0.244348 0.116471 0
M  V30 10 C 0.218742 1.117752 -0.035628 0
M  V30 11 C 1.091558 1.813106 -0.854066 0
M  V30 12 C 0.934713 3.256932 -1.068472 0
M  V30 13 N 1.586671 4.107539 -0.138309 0
M  V30 14 C 2.993385 3.997892 -0.013147 0
M  V30 15 C 3.307960 4.090810 1.486055 0
M  V30 16 C 2.104027 4.867242 1.969183 0
M  V30 17 C 0.984709 4.202467 1.158338 0
M  V30 18 C 2.116785 1.105904 -1.467826 0
M  V30 19 C 2.308631 -0.252585 -1.302566 0
M  V30 20 N -0.584733 -3.490901 0.322267 0
M  V30 21 C -1.295878 -3.947253 1.367555 0
M  V30 22 C -2.587283 -4.556216 1.077881 0
M  V30 23 C -3.705581 -4.239713 1.815483 0
M  V30 24 C -4.938099 -4.790615 1.579952 0
M  V30 25 C -5.116325 -5.719759 0.556008 0
M  V30 26 C -3.974761 -6.035287 -0.188295 0
M  V30 27 C -2.753261 -5.486756 0.048058 0
M  V30 28 H 0.701998 -3.230966 3.974928 0
M  V30 29 H 2.374514 -2.845068 -0.761470 0
M  V30 30 H -0.287775 -0.739529 0.771735 0
M  V30 31 H -0.574276 1.632968 0.445940 0
M  V30 32 H -0.152399 3.520923 -1.040616 0
M  V30 33 H 1.279579 3.550356 -2.085995 0
M  V30 34 H 3.457338 4.904011 -0.467796 0
M  V30 35 H 3.482238 3.141575 -0.458882 0
M  V30 36 H 3.275573 3.091016 1.963187 0
M  V30 37 H 4.268055 4.615421 1.656530 0
M  V30 38 H 2.232994 5.911486 1.672140 0
M  V30 39 H 1.958459 4.716559 3.055666 0
M  V30 40 H 0.128549 4.901598 1.167023 0
M  V30 41 H 0.758268 3.239085 1.643049 0
M  V30 42 H 2.840500 1.566041 -2.124631 0
M  V30 43 H 3.115257 -0.794965 -1.788363 0
M  V30 44 H -3.693052 -3.543152 2.621037 0
M  V30 45 H -5.833706 -4.549374 2.156170 0
M  V30 46 H -6.067799 -6.155716 0.361254 0
M  V30 47 H -4.055879 -6.750120 -0.994642 0
M  V30 48 H -1.897815 -5.765374 -0.559205 0
M  V30 END ATOM
M  V30 BEGIN BOND
M  V30 1 3 1 2
M  V30 2 1 2 3
M  V30 3 2 3 4
M  V30 4 1 4 5
M  V30 5 2 5 6
M  V30 6 1 6 7
M  V30 7 1 7 8
M  V30 8 2 8 9
M  V30 9 1 9 10
M  V30 10 2 10 11
M  V30 11 1 11 12
M  V30 12 1 12 13
M  V30 13 1 13 14
M  V30 14 1 14 15
M  V30 15 1 15 16
M  V30 16 1 16 17
M  V30 17 1 11 18
M  V30 18 2 18 19
M  V30 19 1 6 20
M  V30 20 2 20 21
M  V30 21 1 21 22
M  V30 22 2 22 23
M  V30 23 1 23 24
M  V30 24 2 24 25
M  V30 25 1 25 26
M  V30 26 2 26 27
M  V30 27 1 21 3
M  V30 28 1 27 22
M  V30 29 1 19 8
M  V30 30 1 17 13
M  V30 31 1 4 28
M  V30 32 1 7 29
M  V30 33 1 9 30
M  V30 34 1 10 31
M  V30 35 1 12 32
M  V30 36 1 12 33
M  V30 37 1 14 34
M  V30 38 1 14 35
M  V30 39 1 15 36
M  V30 40 1 15 37
M  V30 41 1 16 38
M  V30 42 1 16 39
M  V30 43 1 17 40
M  V30 44 1 17 41
M  V30 45 1 18 42
M  V30 46 1 19 43
M  V30 47 1 23 44
M  V30 48 1 24 45
M  V30 49 1 25 46
M  V30 50 1 26 47
M  V30 51 1 27 48
M  V30 END BOND
M  V30 END CTAB
M  END
>  <Dataset>  (849) 
ChEMBL_Kinases

>  <Ligand_Instance>  (849) 
nan

>  <PDB_ID>  (849) 
nan

>  <Standardized_SMILES>  (849) 
N#Cc1cnc(Nc2ccc(CN3CCCC3)cc2)nc1-c1ccccc1

>  <Name>  (849) 
nan

>  <Pocket>  (849) 
nan

>  <ATP_Site>  (849) 
nan

>  <Peripheral>  (849) 
nan

>  <Num_H_Atoms_ProtBoundConf>  (849) 
nan

>  <Num_Resolved_Atoms>  (849) 
nan

>  <Num_Not_Resolved_Atoms>  (849) 
nan

$$$$
CHEMBL2334294
     RDKit          3D

  0  0  0  0  0  0  0  0  0  0999 V3000
M  V30 BEGIN CTAB
M  V30 COUNTS 42 45 0 0 0
M  V30 BEGIN ATOM
M  V30 1 N 3.467927 -3.138898 0.734400 0
M  V30 2 C 2.355025 -3.417455 -0.156752 0 CFG=2
M  V30 3 C 2.655392 -2.857623 -1.534112 0
M  V30 4 C 2.866464 -1.399828 -1.512757 0
M  V30 5 C 1.808670 -0.511612 -1.686952 0
M  V30 6 C 1.936834 0.848176 -1.677685 0
M  V30 7 C 3.184894 1.398965 -1.485034 0
M  V30 8 Cl 3.312472 3.147646 -1.478839 0
M  V30 9 C 4.296967 0.572598 -1.302847 0
M  V30 10 C 4.108524 -0.805641 -1.321521 0
M  V30 11 C 1.082278 -2.848444 0.383636 0
M  V30 12 N 1.223747 -1.592242 0.842821 0
M  V30 13 C 0.202815 -0.876028 1.378597 0
M  V30 14 C 0.434041 0.425504 1.833289 0
M  V30 15 C -0.656150 1.085119 2.363836 0
M  V30 16 C -1.897559 0.483400 2.435653 0
M  V30 17 C -2.966034 1.291455 3.019235 0
M  V30 18 C -4.081122 0.926768 3.747726 0
M  V30 19 N -4.797914 2.014918 4.085154 0
M  V30 20 N -4.186958 3.106598 3.597705 0
M  V30 21 C -3.078476 2.685167 2.951090 0
M  V30 22 C -2.117115 -0.802911 1.984058 0
M  V30 23 C -1.038414 -1.473791 1.451922 0
M  V30 24 C -1.162268 -2.762702 0.975417 0
M  V30 25 O -2.271997 -3.353646 1.018704 0
M  V30 26 N -0.124178 -3.440497 0.450545 0
M  V30 27 H 3.531136 -3.917887 1.409209 0
M  V30 28 H 3.194027 -2.275719 1.264830 0
M  V30 29 H 2.314779 -4.519455 -0.283386 0
M  V30 30 H 3.620927 -3.308183 -1.856789 0
M  V30 31 H 1.890452 -3.187751 -2.256209 0
M  V30 32 H 0.806378 -0.916047 -1.842119 0
M  V30 33 H 1.067457 1.500789 -1.820191 0
M  V30 34 H 5.266056 1.016530 -1.153474 0
M  V30 35 H 4.963054 -1.436023 -1.181589 0
M  V30 36 H 1.442705 0.793921 1.727499 0
M  V30 37 H -0.426943 2.093216 2.703475 0
M  V30 38 H -4.324168 -0.109998 4.001337 0
M  V30 39 H -4.448116 4.117381 3.659944 0
M  V30 40 H -2.359897 3.319870 2.442210 0
M  V30 41 H -3.089090 -1.255670 2.047384 0
M  V30 42 H -0.141729 -4.412517 0.072295 0
M  V30 END ATOM
M  V30 BEGIN BOND
M  V30 1 1 1 2
M  V30 2 1 2 3
M  V30 3 1 3 4
M  V30 4 2 4 5
M  V30 5 1 5 6
M  V30 6 2 6 7
M  V30 7 1 7 8
M  V30 8 1 7 9
M  V30 9 2 9 10
M  V30 10 1 2 11
M  V30 11 2 11 12
M  V30 12 1 12 13
M  V30 13 2 13 14
M  V30 14 1 14 15
M  V30 15 2 15 16
M  V30 16 1 16 17
M  V30 17 1 17 18
M  V30 18 2 18 19
M  V30 19 1 19 20
M  V30 20 1 20 21
M  V30 21 1 16 22
M  V30 22 2 22 23
M  V30 23 1 23 24
M  V30 24 2 24 25
M  V30 25 1 24 26
M  V30 26 1 10 4
M  V30 27 1 26 11
M  V30 28 1 23 13
M  V30 29 2 21 17
M  V30 30 1 1 27
M  V30 31 1 1 28
M  V30 32 1 2 29 CFG=3
M  V30 33 1 3 30
M  V30 34 1 3 31
M  V30 35 1 5 32
M  V30 36 1 6 33
M  V30 37 1 9 34
M  V30 38 1 10 35
M  V30 39 1 14 36
M  V30 40 1 15 37
M  V30 41 1 18 38
M  V30 42 1 20 39
M  V30 43 1 21 40
M  V30 44 1 22 41
M  V30 45 1 26 42
M  V30 END BOND
M  V30 END CTAB
M  END
>  <Dataset>  (850) 
ChEMBL_Kinases

>  <Ligand_Instance>  (850) 
nan

>  <PDB_ID>  (850) 
nan

>  <Standardized_SMILES>  (850) 
N[C@H](Cc1ccc(Cl)cc1)c1nc2ccc(-c3cn[nH]c3)cc2c(=O)[nH]1

>  <Name>  (850) 
nan

>  <Pocket>  (850) 
nan

>  <ATP_Site>  (850) 
nan

>  <Peripheral>  (850) 
nan

>  <Num_H_Atoms_ProtBoundConf>  (850) 
nan

>  <Num_Resolved_Atoms>  (850) 
nan

>  <Num_Not_Resolved_Atoms>  (850) 
nan

$$$$
CHEMBL2334293
     RDKit          3D

  0  0  0  0  0  0  0  0  0  0999 V3000
M  V30 BEGIN CTAB
M  V30 COUNTS 42 45 0 0 0
M  V30 BEGIN ATOM
M  V30 1 N 2.892058 -4.506428 0.345850 0
M  V30 2 C 2.796071 -3.097161 0.112234 0 CFG=1
M  V30 3 C 3.116745 -2.707945 -1.329169 0
M  V30 4 C 2.963024 -1.210877 -1.372611 0
M  V30 5 C 1.744755 -0.638430 -1.683705 0
M  V30 6 C 1.631494 0.736753 -1.716187 0
M  V30 7 C 2.760125 1.475236 -1.431436 0
M  V30 8 Cl 2.556427 3.216706 -1.488112 0
M  V30 9 C 3.981484 0.931361 -1.119732 0
M  V30 10 C 4.081306 -0.446481 -1.090629 0
M  V30 11 C 1.498043 -2.499682 0.521567 0
M  V30 12 N 1.486198 -1.342695 1.209088 0
M  V30 13 C 0.381765 -0.735229 1.616422 0
M  V30 14 C 0.534915 0.443782 2.310186 0
M  V30 15 C -0.602934 1.093994 2.744396 0
M  V30 16 C -1.851752 0.530561 2.462406 0
M  V30 17 C -3.097073 1.166149 2.891993 0
M  V30 18 C -4.338145 0.685140 3.258015 0
M  V30 19 N -5.113459 1.741853 3.562655 0
M  V30 20 N -4.415467 2.868852 3.404880 0
M  V30 21 C -3.174874 2.540861 2.993673 0
M  V30 22 C -1.960748 -0.660812 1.759411 0
M  V30 23 C -0.833266 -1.321868 1.319315 0
M  V30 24 C -0.809627 -2.504705 0.616008 0
M  V30 25 O -1.944554 -3.030066 0.352111 0
M  V30 26 N 0.342780 -3.082722 0.224131 0
M  V30 27 H 2.123896 -5.080867 -0.040298 0
M  V30 28 H 3.115895 -4.679229 1.332385 0
M  V30 29 H 3.638411 -2.634192 0.705943 0
M  V30 30 H 4.168177 -2.960741 -1.524285 0
M  V30 31 H 2.455185 -3.180841 -2.062925 0
M  V30 32 H 0.883794 -1.270900 -1.900672 0
M  V30 33 H 0.671162 1.166959 -1.961099 0
M  V30 34 H 4.829388 1.585780 -0.906090 0
M  V30 35 H 5.033498 -0.899213 -0.847422 0
M  V30 36 H 1.505644 0.857690 2.514875 0
M  V30 37 H -0.564051 2.034428 3.301203 0
M  V30 38 H -4.527385 -0.384436 3.258025 0
M  V30 39 H -4.993473 3.721972 3.635625 0
M  V30 40 H -2.504605 3.374196 2.827993 0
M  V30 41 H -2.915374 -1.117797 1.528188 0
M  V30 42 H 0.319436 -3.971504 -0.302491 0
M  V30 END ATOM
M  V30 BEGIN BOND
M  V30 1 1 1 2
M  V30 2 1 2 3
M  V30 3 1 3 4
M  V30 4 2 4 5
M  V30 5 1 5 6
M  V30 6 2 6 7
M  V30 7 1 7 8
M  V30 8 1 7 9
M  V30 9 2 9 10
M  V30 10 1 2 11
M  V30 11 2 11 12
M  V30 12 1 12 13
M  V30 13 2 13 14
M  V30 14 1 14 15
M  V30 15 2 15 16
M  V30 16 1 16 17
M  V30 17 1 17 18
M  V30 18 2 18 19
M  V30 19 1 19 20
M  V30 20 1 20 21
M  V30 21 1 16 22
M  V30 22 2 22 23
M  V30 23 1 23 24
M  V30 24 2 24 25
M  V30 25 1 24 26
M  V30 26 1 10 4
M  V30 27 1 26 11
M  V30 28 1 23 13
M  V30 29 2 21 17
M  V30 30 1 1 27
M  V30 31 1 1 28
M  V30 32 1 2 29 CFG=1
M  V30 33 1 3 30
M  V30 34 1 3 31
M  V30 35 1 5 32
M  V30 36 1 6 33
M  V30 37 1 9 34
M  V30 38 1 10 35
M  V30 39 1 14 36
M  V30 40 1 15 37
M  V30 41 1 18 38
M  V30 42 1 20 39
M  V30 43 1 21 40
M  V30 44 1 22 41
M  V30 45 1 26 42
M  V30 END BOND
M  V30 END CTAB
M  END
>  <Dataset>  (851) 
ChEMBL_Kinases

>  <Ligand_Instance>  (851) 
nan

>  <PDB_ID>  (851) 
nan

>  <Standardized_SMILES>  (851) 
N[C@@H](Cc1ccc(Cl)cc1)c1nc2ccc(-c3cn[nH]c3)cc2c(=O)[nH]1

>  <Name>  (851) 
nan

>  <Pocket>  (851) 
nan

>  <ATP_Site>  (851) 
nan

>  <Peripheral>  (851) 
nan

>  <Num_H_Atoms_ProtBoundConf>  (851) 
nan

>  <Num_Resolved_Atoms>  (851) 
nan

>  <Num_Not_Resolved_Atoms>  (851) 
nan

$$$$
CHEMBL2334291
     RDKit          3D

  0  0  0  0  0  0  0  0  0  0999 V3000
M  V30 BEGIN CTAB
M  V30 COUNTS 49 53 0 0 0
M  V30 BEGIN ATOM
M  V30 1 C -0.371495 -6.113705 1.945660 0
M  V30 2 C 1.031050 -6.083542 2.433697 0
M  V30 3 N 1.589563 -7.189920 2.964444 0
M  V30 4 N 2.847579 -6.916805 3.328194 0
M  V30 5 C 3.081078 -5.617368 3.020102 0
M  V30 6 C 1.959318 -5.062782 2.455687 0
M  V30 7 C 1.701982 -3.716155 1.959438 0
M  V30 8 C 2.097611 -2.625704 2.706540 0
M  V30 9 C 1.898818 -1.301312 2.321791 0
M  V30 10 C 1.263677 -1.067479 1.112485 0
M  V30 11 N 1.038596 0.197196 0.678055 0
M  V30 12 C 0.417321 0.420231 -0.504792 0
M  V30 13 C 0.232211 1.836022 -0.863896 0 CFG=2
M  V30 14 C 1.588370 2.503965 -0.947304 0
M  V30 15 N 1.487510 3.789564 -0.302729 0
M  V30 16 C 0.090004 4.019524 -0.026404 0
M  V30 17 C -0.438366 2.632337 0.222159 0 CFG=1
M  V30 18 C -1.917786 2.570446 0.145856 0
M  V30 19 C -2.415964 3.034624 -1.055418 0
M  V30 20 C -3.799405 3.028600 -1.252462 0
M  V30 21 C -4.679908 2.570438 -0.276691 0
M  V30 22 C -4.139639 2.118737 0.900780 0
M  V30 23 C -2.779592 2.113149 1.122392 0
M  V30 24 N 0.020425 -0.621413 -1.254548 0
M  V30 25 C 0.209859 -1.912697 -0.887792 0
M  V30 26 O -0.163106 -2.878877 -1.592405 0
M  V30 27 C 0.852352 -2.130873 0.335394 0
M  V30 28 C 1.075546 -3.422369 0.766393 0
M  V30 29 H -1.057443 -6.548618 2.723593 0
M  V30 30 H -0.781091 -5.072964 1.801856 0
M  V30 31 H -0.498972 -6.675894 1.002760 0
M  V30 32 H 3.493912 -7.618541 3.768353 0
M  V30 33 H 4.006836 -5.080708 3.186811 0
M  V30 34 H 2.598563 -2.744955 3.660033 0
M  V30 35 H 2.207074 -0.459161 2.903939 0
M  V30 36 H -0.281504 1.931737 -1.841347 0
M  V30 37 H 1.949051 2.567345 -1.992607 0
M  V30 38 H 2.303114 1.909167 -0.339957 0
M  V30 39 H 1.968360 3.819300 0.639076 0
M  V30 40 H -0.060489 4.693243 0.841961 0
M  V30 41 H -0.403125 4.491964 -0.898186 0
M  V30 42 H -0.060760 2.261807 1.178195 0
M  V30 43 H -1.828136 3.416198 -1.890330 0
M  V30 44 H -4.223599 3.390484 -2.194480 0
M  V30 45 H -5.740250 2.587814 -0.481032 0
M  V30 46 H -4.769122 1.753994 1.688539 0
M  V30 47 H -2.303053 1.764365 2.040656 0
M  V30 48 H -0.454086 -0.426182 -2.158098 0
M  V30 49 H 0.750012 -4.241681 0.151243 0
M  V30 END ATOM
M  V30 BEGIN BOND
M  V30 1 1 1 2
M  V30 2 2 2 3
M  V30 3 1 3 4
M  V30 4 1 4 5
M  V30 5 2 5 6
M  V30 6 1 6 7
M  V30 7 2 7 8
M  V30 8 1 8 9
M  V30 9 2 9 10
M  V30 10 1 10 11
M  V30 11 2 11 12
M  V30 12 1 12 13
M  V30 13 1 13 14
M  V30 14 1 14 15
M  V30 15 1 15 16
M  V30 16 1 16 17
M  V30 17 1 17 18
M  V30 18 2 18 19
M  V30 19 1 19 20
M  V30 20 2 20 21
M  V30 21 1 21 22
M  V30 22 2 22 23
M  V30 23 1 12 24
M  V30 24 1 24 25
M  V30 25 2 25 26
M  V30 26 1 25 27
M  V30 27 2 27 28
M  V30 28 1 6 2
M  V30 29 1 28 7
M  V30 30 1 27 10
M  V30 31 1 17 13
M  V30 32 1 23 18
M  V30 33 1 1 29
M  V30 34 1 1 30
M  V30 35 1 1 31
M  V30 36 1 4 32
M  V30 37 1 5 33
M  V30 38 1 8 34
M  V30 39 1 9 35
M  V30 40 1 13 36 CFG=3
M  V30 41 1 14 37
M  V30 42 1 14 38
M  V30 43 1 15 39
M  V30 44 1 16 40
M  V30 45 1 16 41
M  V30 46 1 17 42 CFG=1
M  V30 47 1 19 43
M  V30 48 1 20 44
M  V30 49 1 21 45
M  V30 50 1 22 46
M  V30 51 1 23 47
M  V30 52 1 24 48
M  V30 53 1 28 49
M  V30 END BOND
M  V30 END CTAB
M  END
>  <Dataset>  (852) 
ChEMBL_Kinases

>  <Ligand_Instance>  (852) 
nan

>  <PDB_ID>  (852) 
nan

>  <Standardized_SMILES>  (852) 
Cc1n[nH]cc1-c1ccc2nc([C@@H]3CNC[C@H]3c3ccccc3)[nH]c(=O)c2c1

>  <Name>  (852) 
nan

>  <Pocket>  (852) 
nan

>  <ATP_Site>  (852) 
nan

>  <Peripheral>  (852) 
nan

>  <Num_H_Atoms_ProtBoundConf>  (852) 
nan

>  <Num_Resolved_Atoms>  (852) 
nan

>  <Num_Not_Resolved_Atoms>  (852) 
nan

$$$$
CHEMBL2334290
     RDKit          3D

  0  0  0  0  0  0  0  0  0  0999 V3000
M  V30 BEGIN CTAB
M  V30 COUNTS 49 53 0 0 0
M  V30 BEGIN ATOM
M  V30 1 N -0.320009 -6.895361 4.936335 0
M  V30 2 C 0.451380 -6.673318 3.762475 0
M  V30 3 N 1.118001 -7.694070 3.194563 0
M  V30 4 C 1.849637 -7.458910 2.070090 0
M  V30 5 C 1.866143 -6.171329 1.570583 0
M  V30 6 C 1.187644 -5.117007 2.143055 0
M  V30 7 C 1.206640 -3.757955 1.615129 0
M  V30 8 C 1.906997 -3.391136 0.485353 0
M  V30 9 C 1.942684 -2.114504 -0.034091 0
M  V30 10 C 1.212326 -1.142016 0.646647 0
M  V30 11 N 1.187349 0.137867 0.212579 0
M  V30 12 C 0.470736 1.084247 0.883617 0
M  V30 13 C 0.490442 2.451763 0.354590 0 CFG=2
M  V30 14 C 0.990290 3.482003 1.340056 0
M  V30 15 N 0.409746 4.747727 0.936974 0
M  V30 16 C -0.580189 4.476260 -0.077301 0
M  V30 17 C -0.891278 2.998045 0.043489 0 CFG=1
M  V30 18 C -1.461130 2.437533 -1.185677 0
M  V30 19 C -0.862807 2.577891 -2.419756 0
M  V30 20 C -1.454495 2.024437 -3.535555 0
M  V30 21 C -2.635888 1.331809 -3.439591 0
M  V30 22 C -3.264469 1.170135 -2.223366 0
M  V30 23 C -2.649565 1.733603 -1.129936 0
M  V30 24 N -0.234510 0.796863 1.991220 0
M  V30 25 C -0.194307 -0.482353 2.403446 0
M  V30 26 O -0.841429 -0.796921 3.438429 0
M  V30 27 C 0.503887 -1.499082 1.784321 0
M  V30 28 C 0.484150 -2.793578 2.287638 0
M  V30 29 N 0.486338 -5.435810 3.255462 0
M  V30 30 H -0.755578 -6.113476 5.469102 0
M  V30 31 H -0.530089 -7.796803 5.376746 0
M  V30 32 H 2.395634 -8.276805 1.598412 0
M  V30 33 H 2.447746 -6.010966 0.686480 0
M  V30 34 H 2.475425 -4.117506 -0.055658 0
M  V30 35 H 2.492552 -1.847810 -0.913293 0
M  V30 36 H 1.129219 2.462910 -0.553983 0
M  V30 37 H 2.100125 3.514532 1.342947 0
M  V30 38 H 0.562899 3.220241 2.334474 0
M  V30 39 H 1.134145 5.412810 0.594275 0
M  V30 40 H -1.448977 5.129638 0.021335 0
M  V30 41 H -0.066425 4.610120 -1.060939 0
M  V30 42 H -1.513437 2.783437 0.912402 0
M  V30 43 H 0.070032 3.125431 -2.491055 0
M  V30 44 H -0.998320 2.128302 -4.495769 0
M  V30 45 H -3.105020 0.893305 -4.322986 0
M  V30 46 H -4.176867 0.650041 -2.066278 0
M  V30 47 H -3.122226 1.624881 -0.142055 0
M  V30 48 H -0.792273 1.502336 2.524959 0
M  V30 49 H -0.079978 -3.028903 3.175706 0
M  V30 END ATOM
M  V30 BEGIN BOND
M  V30 1 1 1 2
M  V30 2 2 2 3
M  V30 3 1 3 4
M  V30 4 2 4 5
M  V30 5 1 5 6
M  V30 6 1 6 7
M  V30 7 2 7 8
M  V30 8 1 8 9
M  V30 9 2 9 10
M  V30 10 1 10 11
M  V30 11 2 11 12
M  V30 12 1 12 13
M  V30 13 1 13 14
M  V30 14 1 14 15
M  V30 15 1 15 16
M  V30 16 1 16 17
M  V30 17 1 17 18
M  V30 18 2 18 19
M  V30 19 1 19 20
M  V30 20 2 20 21
M  V30 21 1 21 22
M  V30 22 2 22 23
M  V30 23 1 12 24
M  V30 24 1 24 25
M  V30 25 2 25 26
M  V30 26 1 25 27
M  V30 27 2 27 28
M  V30 28 2 6 29
M  V30 29 1 29 2
M  V30 30 1 28 7
M  V30 31 1 27 10
M  V30 32 1 17 13
M  V30 33 1 23 18
M  V30 34 1 1 30
M  V30 35 1 1 31
M  V30 36 1 4 32
M  V30 37 1 5 33
M  V30 38 1 8 34
M  V30 39 1 9 35
M  V30 40 1 13 36 CFG=3
M  V30 41 1 14 37
M  V30 42 1 14 38
M  V30 43 1 15 39
M  V30 44 1 16 40
M  V30 45 1 16 41
M  V30 46 1 17 42 CFG=1
M  V30 47 1 19 43
M  V30 48 1 20 44
M  V30 49 1 21 45
M  V30 50 1 22 46
M  V30 51 1 23 47
M  V30 52 1 24 48
M  V30 53 1 28 49
M  V30 END BOND
M  V30 END CTAB
M  END
>  <Dataset>  (853) 
ChEMBL_Kinases

>  <Ligand_Instance>  (853) 
nan

>  <PDB_ID>  (853) 
nan

>  <Standardized_SMILES>  (853) 
Nc1nccc(-c2ccc3nc([C@@H]4CNC[C@H]4c4ccccc4)[nH]c(=O)c3c2)n1

>  <Name>  (853) 
nan

>  <Pocket>  (853) 
nan

>  <ATP_Site>  (853) 
nan

>  <Peripheral>  (853) 
nan

>  <Num_H_Atoms_ProtBoundConf>  (853) 
nan

>  <Num_Resolved_Atoms>  (853) 
nan

>  <Num_Not_Resolved_Atoms>  (853) 
nan

$$$$
CHEMBL2334289
     RDKit          3D

  0  0  0  0  0  0  0  0  0  0999 V3000
M  V30 BEGIN CTAB
M  V30 COUNTS 48 52 0 0 0
M  V30 BEGIN ATOM
M  V30 1 O 0.004344 -3.579440 1.789323 0
M  V30 2 C 0.064881 -2.537172 1.091776 0
M  V30 3 N 1.190589 -1.881051 0.756277 0
M  V30 4 C 1.230001 -0.765086 0.007233 0
M  V30 5 C 2.520875 -0.101861 -0.318543 0 CFG=2
M  V30 6 C 3.374352 -0.996262 -1.190076 0
M  V30 7 N 4.660228 -0.307016 -1.085200 0
M  V30 8 C 4.809644 -0.002326 0.320158 0
M  V30 9 C 3.384513 0.145073 0.867939 0 CFG=1
M  V30 10 C 3.247087 1.464950 1.489474 0
M  V30 11 C 3.418248 2.616161 0.748682 0
M  V30 12 C 3.310149 3.914782 1.246135 0
M  V30 13 C 3.004089 4.027050 2.602565 0
M  V30 14 C 2.814371 2.918560 3.426381 0
M  V30 15 C 2.948194 1.690023 2.815845 0
M  V30 16 N 0.052048 -0.274286 -0.435859 0
M  V30 17 C -1.143702 -0.842741 -0.166154 0
M  V30 18 C -2.294455 -0.266643 -0.664421 0
M  V30 19 C -3.490878 -0.887267 -0.359929 0
M  V30 20 C -3.504403 -2.033132 0.411602 0
M  V30 21 C -4.820669 -2.618899 0.680977 0
M  V30 22 C -5.919679 -1.769751 0.784601 0
M  V30 23 C -7.165072 -2.331488 1.039730 0
M  V30 24 N -7.373927 -3.662704 1.194248 0
M  V30 25 C -6.284271 -4.458676 1.087373 0
M  V30 26 C -5.011898 -3.989910 0.836228 0
M  V30 27 C -2.337966 -2.599938 0.905174 0
M  V30 28 C -1.118103 -2.004017 0.619586 0
M  V30 29 H 2.084513 -2.289127 1.116130 0
M  V30 30 H 2.309022 0.800107 -0.941388 0
M  V30 31 H 3.402710 -2.017278 -0.814380 0
M  V30 32 H 3.022882 -0.925111 -2.246252 0
M  V30 33 H 4.580635 0.593037 -1.593323 0
M  V30 34 H 5.371518 0.927678 0.499274 0
M  V30 35 H 5.330630 -0.801982 0.877628 0
M  V30 36 H 3.183596 -0.622242 1.640125 0
M  V30 37 H 3.658636 2.485950 -0.316843 0
M  V30 38 H 3.456591 4.774126 0.611500 0
M  V30 39 H 2.925302 5.052710 2.966041 0
M  V30 40 H 2.581460 3.047282 4.460584 0
M  V30 41 H 2.799531 0.831255 3.461939 0
M  V30 42 H -2.221367 0.633594 -1.264839 0
M  V30 43 H -4.404016 -0.456821 -0.737227 0
M  V30 44 H -5.852655 -0.698890 0.677156 0
M  V30 45 H -8.043900 -1.700305 1.126914 0
M  V30 46 H -6.455624 -5.528008 1.211991 0
M  V30 47 H -4.153466 -4.642499 0.754210 0
M  V30 48 H -2.400560 -3.497622 1.504362 0
M  V30 END ATOM
M  V30 BEGIN BOND
M  V30 1 2 1 2
M  V30 2 1 2 3
M  V30 3 1 3 4
M  V30 4 1 4 5
M  V30 5 1 5 6
M  V30 6 1 6 7
M  V30 7 1 7 8
M  V30 8 1 8 9
M  V30 9 1 9 10
M  V30 10 2 10 11
M  V30 11 1 11 12
M  V30 12 2 12 13
M  V30 13 1 13 14
M  V30 14 2 14 15
M  V30 15 2 4 16
M  V30 16 1 16 17
M  V30 17 2 17 18
M  V30 18 1 18 19
M  V30 19 2 19 20
M  V30 20 1 20 21
M  V30 21 2 21 22
M  V30 22 1 22 23
M  V30 23 2 23 24
M  V30 24 1 24 25
M  V30 25 2 25 26
M  V30 26 1 20 27
M  V30 27 2 27 28
M  V30 28 1 28 2
M  V30 29 1 9 5
M  V30 30 1 15 10
M  V30 31 1 28 17
M  V30 32 1 26 21
M  V30 33 1 3 29
M  V30 34 1 5 30 CFG=3
M  V30 35 1 6 31
M  V30 36 1 6 32
M  V30 37 1 7 33
M  V30 38 1 8 34
M  V30 39 1 8 35
M  V30 40 1 9 36 CFG=1
M  V30 41 1 11 37
M  V30 42 1 12 38
M  V30 43 1 13 39
M  V30 44 1 14 40
M  V30 45 1 15 41
M  V30 46 1 18 42
M  V30 47 1 19 43
M  V30 48 1 22 44
M  V30 49 1 23 45
M  V30 50 1 25 46
M  V30 51 1 26 47
M  V30 52 1 27 48
M  V30 END BOND
M  V30 END CTAB
M  END
>  <Dataset>  (854) 
ChEMBL_Kinases

>  <Ligand_Instance>  (854) 
nan

>  <PDB_ID>  (854) 
nan

>  <Standardized_SMILES>  (854) 
O=c1[nH]c([C@@H]2CNC[C@H]2c2ccccc2)nc2ccc(-c3ccncc3)cc12

>  <Name>  (854) 
nan

>  <Pocket>  (854) 
nan

>  <ATP_Site>  (854) 
nan

>  <Peripheral>  (854) 
nan

>  <Num_H_Atoms_ProtBoundConf>  (854) 
nan

>  <Num_Resolved_Atoms>  (854) 
nan

>  <Num_Not_Resolved_Atoms>  (854) 
nan

$$$$
CHEMBL2334287
     RDKit          3D

  0  0  0  0  0  0  0  0  0  0999 V3000
M  V30 BEGIN CTAB
M  V30 COUNTS 46 49 0 0 0
M  V30 BEGIN ATOM
M  V30 1 C -1.591228 -6.697449 1.766520 0
M  V30 2 O -1.886820 -6.524978 0.392199 0
M  V30 3 C -1.808418 -5.228369 -0.103111 0
M  V30 4 C -2.098800 -5.057984 -1.453817 0
M  V30 5 C -2.068375 -3.830015 -2.110305 0
M  V30 6 C -1.719303 -2.772996 -1.294872 0
M  V30 7 C -1.657574 -1.419609 -1.897922 0
M  V30 8 N -0.960642 -1.537244 -3.151896 0
M  V30 9 C -1.035173 -0.427585 -1.001610 0
M  V30 10 N 0.301160 -0.360914 -0.801179 0
M  V30 11 C 0.845584 0.553866 0.022148 0
M  V30 12 C 2.210290 0.622033 0.226894 0
M  V30 13 C 2.760802 1.564358 1.073885 0
M  V30 14 C 1.924824 2.459063 1.730940 0
M  V30 15 C 2.391664 3.495501 2.647467 0
M  V30 16 C 2.053966 4.828073 2.768220 0
M  V30 17 N 2.804129 5.291442 3.788567 0
M  V30 18 N 3.568650 4.333295 4.290065 0
M  V30 19 C 3.343368 3.186692 3.604449 0
M  V30 20 C 4.053404 1.923746 3.929768 0
M  V30 21 C 0.546648 2.418734 1.547998 0
M  V30 22 C 0.042238 1.456597 0.689444 0
M  V30 23 C -1.346105 1.432438 0.518901 0
M  V30 24 O -2.162369 2.200986 1.072675 0
M  V30 25 N -1.773085 0.474246 -0.327980 0
M  V30 26 C -1.423808 -2.879589 0.036845 0
M  V30 27 C -1.468063 -4.119310 0.641732 0
M  V30 28 H -1.834440 -7.711677 2.136431 0
M  V30 29 H -2.180019 -5.939231 2.342138 0
M  V30 30 H -0.514907 -6.495850 1.929817 0
M  V30 31 H -2.371064 -5.928558 -2.060286 0
M  V30 32 H -2.302880 -3.757745 -3.159260 0
M  V30 33 H -2.689988 -1.096703 -2.105495 0
M  V30 34 H 0.023098 -1.832467 -3.067211 0
M  V30 35 H -1.118954 -0.712267 -3.783609 0
M  V30 36 H 2.852175 -0.068513 -0.280590 0
M  V30 37 H 3.824311 1.639350 1.251728 0
M  V30 38 H 1.325796 5.228291 2.097722 0
M  V30 39 H 2.683064 6.315646 4.037540 0
M  V30 40 H 5.060443 1.854576 3.489221 0
M  V30 41 H 4.135810 1.762143 5.037636 0
M  V30 42 H 3.484163 1.023742 3.556941 0
M  V30 43 H -0.124805 3.110235 2.053079 0
M  V30 44 H -2.809069 0.420290 -0.485257 0
M  V30 45 H -1.155167 -1.990465 0.615923 0
M  V30 46 H -1.246230 -4.252293 1.675409 0
M  V30 END ATOM
M  V30 BEGIN BOND
M  V30 1 1 1 2
M  V30 2 1 2 3
M  V30 3 2 3 4
M  V30 4 1 4 5
M  V30 5 2 5 6
M  V30 6 1 6 7
M  V30 7 1 7 8
M  V30 8 1 7 9
M  V30 9 2 9 10
M  V30 10 1 10 11
M  V30 11 2 11 12
M  V30 12 1 12 13
M  V30 13 2 13 14
M  V30 14 1 14 15
M  V30 15 2 15 16
M  V30 16 1 16 17
M  V30 17 1 17 18
M  V30 18 2 18 19
M  V30 19 1 19 20
M  V30 20 1 14 21
M  V30 21 2 21 22
M  V30 22 1 22 23
M  V30 23 2 23 24
M  V30 24 1 23 25
M  V30 25 1 6 26
M  V30 26 2 26 27
M  V30 27 1 27 3
M  V30 28 1 25 9
M  V30 29 1 22 11
M  V30 30 1 19 15
M  V30 31 1 1 28
M  V30 32 1 1 29
M  V30 33 1 1 30
M  V30 34 1 4 31
M  V30 35 1 5 32
M  V30 36 1 7 33
M  V30 37 1 8 34
M  V30 38 1 8 35
M  V30 39 1 12 36
M  V30 40 1 13 37
M  V30 41 1 16 38
M  V30 42 1 17 39
M  V30 43 1 20 40
M  V30 44 1 20 41
M  V30 45 1 20 42
M  V30 46 1 21 43
M  V30 47 1 25 44
M  V30 48 1 26 45
M  V30 49 1 27 46
M  V30 END BOND
M  V30 END CTAB
M  END
>  <Dataset>  (855) 
ChEMBL_Kinases

>  <Ligand_Instance>  (855) 
nan

>  <PDB_ID>  (855) 
nan

>  <Standardized_SMILES>  (855) 
COc1ccc(C(N)c2nc3ccc(-c4c[nH]nc4C)cc3c(=O)[nH]2)cc1

>  <Name>  (855) 
nan

>  <Pocket>  (855) 
nan

>  <ATP_Site>  (855) 
nan

>  <Peripheral>  (855) 
nan

>  <Num_H_Atoms_ProtBoundConf>  (855) 
nan

>  <Num_Resolved_Atoms>  (855) 
nan

>  <Num_Not_Resolved_Atoms>  (855) 
nan

$$$$
CHEMBL2334286
     RDKit          3D

  0  0  0  0  0  0  0  0  0  0999 V3000
M  V30 BEGIN CTAB
M  V30 COUNTS 42 45 0 0 0
M  V30 BEGIN ATOM
M  V30 1 N 0.326479 -4.396301 -0.999520 0
M  V30 2 C 0.584965 -2.996850 -1.338722 0 CFG=1
M  V30 3 C -0.536263 -2.589387 -2.257771 0
M  V30 4 C -0.484880 -1.209406 -2.736229 0
M  V30 5 C 0.314728 -1.042170 -3.874310 0
M  V30 6 C 0.499781 0.167971 -4.508044 0
M  V30 7 C -0.134461 1.305177 -4.006859 0
M  V30 8 C -0.914763 1.155482 -2.901021 0
M  V30 9 C -1.087471 -0.060498 -2.282604 0
M  V30 10 C 0.681976 -2.223536 -0.091227 0
M  V30 11 N 0.201574 -1.053294 0.346580 0
M  V30 12 C 0.406705 -0.505959 1.538402 0
M  V30 13 C -0.196048 0.714322 1.761210 0
M  V30 14 C 0.032854 1.274379 3.024477 0
M  V30 15 C 0.823804 0.613562 3.970738 0
M  V30 16 C 1.028217 1.248485 5.277914 0
M  V30 17 C 2.160654 1.120239 6.060061 0
M  V30 18 N 1.906191 1.867984 7.158086 0
M  V30 19 N 0.706533 2.415162 7.058296 0
M  V30 20 C 0.102502 2.068436 5.905579 0
M  V30 21 C 1.396860 -0.612969 3.671461 0
M  V30 22 C 1.192317 -1.193248 2.437453 0
M  V30 23 C 1.721152 -2.406669 2.053933 0
M  V30 24 O 2.420771 -2.972279 2.915592 0
M  V30 25 N 1.456378 -2.879453 0.823381 0
M  V30 26 H 0.568295 -4.992983 -1.838086 0
M  V30 27 H -0.703518 -4.500914 -0.898968 0
M  V30 28 H 1.581630 -2.924052 -1.851706 0
M  V30 29 H -0.581690 -3.296560 -3.125426 0
M  V30 30 H -1.495097 -2.788426 -1.685505 0
M  V30 31 H 0.862026 -1.867440 -4.356323 0
M  V30 32 H 1.119848 0.281686 -5.385735 0
M  V30 33 H -0.050629 2.288854 -4.431199 0
M  V30 34 H -1.446199 1.967579 -2.436468 0
M  V30 35 H -1.707347 -0.204413 -1.416914 0
M  V30 36 H -0.799989 1.194817 1.006640 0
M  V30 37 H -0.417299 2.242399 3.265569 0
M  V30 38 H 3.076316 0.552783 5.870873 0
M  V30 39 H 0.183563 3.053443 7.722907 0
M  V30 40 H -0.873566 2.339602 5.516072 0
M  V30 41 H 2.007198 -1.135973 4.384591 0
M  V30 42 H 1.930796 -3.812127 0.684535 0
M  V30 END ATOM
M  V30 BEGIN BOND
M  V30 1 1 1 2
M  V30 2 1 2 3
M  V30 3 1 3 4
M  V30 4 2 4 5
M  V30 5 1 5 6
M  V30 6 2 6 7
M  V30 7 1 7 8
M  V30 8 2 8 9
M  V30 9 1 2 10
M  V30 10 2 10 11
M  V30 11 1 11 12
M  V30 12 2 12 13
M  V30 13 1 13 14
M  V30 14 2 14 15
M  V30 15 1 15 16
M  V30 16 1 16 17
M  V30 17 2 17 18
M  V30 18 1 18 19
M  V30 19 1 19 20
M  V30 20 1 15 21
M  V30 21 2 21 22
M  V30 22 1 22 23
M  V30 23 2 23 24
M  V30 24 1 23 25
M  V30 25 1 9 4
M  V30 26 1 25 10
M  V30 27 1 22 12
M  V30 28 2 20 16
M  V30 29 1 1 26
M  V30 30 1 1 27
M  V30 31 1 2 28 CFG=3
M  V30 32 1 3 29
M  V30 33 1 3 30
M  V30 34 1 5 31
M  V30 35 1 6 32
M  V30 36 1 7 33
M  V30 37 1 8 34
M  V30 38 1 9 35
M  V30 39 1 13 36
M  V30 40 1 14 37
M  V30 41 1 17 38
M  V30 42 1 19 39
M  V30 43 1 20 40
M  V30 44 1 21 41
M  V30 45 1 25 42
M  V30 END BOND
M  V30 END CTAB
M  END
>  <Dataset>  (856) 
ChEMBL_Kinases

>  <Ligand_Instance>  (856) 
nan

>  <PDB_ID>  (856) 
nan

>  <Standardized_SMILES>  (856) 
N[C@@H](Cc1ccccc1)c1nc2ccc(-c3cn[nH]c3)cc2c(=O)[nH]1

>  <Name>  (856) 
nan

>  <Pocket>  (856) 
nan

>  <ATP_Site>  (856) 
nan

>  <Peripheral>  (856) 
nan

>  <Num_H_Atoms_ProtBoundConf>  (856) 
nan

>  <Num_Resolved_Atoms>  (856) 
nan

>  <Num_Not_Resolved_Atoms>  (856) 
nan

$$$$
CHEMBL2334285
     RDKit          3D

  0  0  0  0  0  0  0  0  0  0999 V3000
M  V30 BEGIN CTAB
M  V30 COUNTS 44 47 0 0 0
M  V30 BEGIN ATOM
M  V30 1 N -2.187087 -2.085042 -2.612613 0
M  V30 2 C -0.801238 -1.691884 -2.375240 0 CFG=1
M  V30 3 C -0.377631 -0.644782 -3.346755 0
M  V30 4 C 1.010827 -0.216739 -3.151883 0
M  V30 5 C 1.562112 0.851825 -2.481348 0
M  V30 6 C 2.924379 1.040532 -2.409707 0
M  V30 7 C 3.816673 0.175453 -3.003056 0
M  V30 8 C 3.303196 -0.906332 -3.684561 0
M  V30 9 C 1.936790 -1.082190 -3.747202 0
M  V30 10 C -0.636509 -1.326214 -0.956312 0
M  V30 11 N -0.066194 -0.329359 -0.272173 0
M  V30 12 C -0.046064 -0.224052 1.058781 0
M  V30 13 C 0.605203 0.897571 1.530303 0
M  V30 14 C 0.660315 1.064688 2.917823 0
M  V30 15 C 0.062040 0.100776 3.725737 0
M  V30 16 C 0.106749 0.253614 5.178045 0
M  V30 17 C 0.139513 -0.775920 6.096289 0
M  V30 18 C 0.180900 -0.531754 7.452116 0
M  V30 19 N 0.190897 0.728033 7.932107 0
M  V30 20 C 0.159815 1.759502 7.068307 0
M  V30 21 C 0.117378 1.557398 5.684068 0
M  V30 22 C -0.577856 -1.004860 3.194887 0
M  V30 23 C -0.647987 -1.196062 1.829423 0
M  V30 24 C -1.251943 -2.248084 1.173028 0
M  V30 25 O -1.775342 -3.088839 1.926748 0
M  V30 26 N -1.230662 -2.284912 -0.181001 0
M  V30 27 H -2.388279 -1.904050 -3.637077 0
M  V30 28 H -2.239933 -3.114517 -2.464208 0
M  V30 29 H -0.163213 -2.610801 -2.565414 0
M  V30 30 H -0.520366 -1.050254 -4.374146 0
M  V30 31 H -1.052101 0.238885 -3.219766 0
M  V30 32 H 0.827656 1.512419 -2.046497 0
M  V30 33 H 3.200116 1.930237 -1.843850 0
M  V30 34 H 4.861851 0.420418 -2.883213 0
M  V30 35 H 4.012163 -1.574611 -4.143910 0
M  V30 36 H 1.657159 -1.981441 -4.319159 0
M  V30 37 H 1.058584 1.627150 0.899736 0
M  V30 38 H 1.155437 1.921421 3.351120 0
M  V30 39 H 0.129097 -1.762841 5.636105 0
M  V30 40 H 0.204092 -1.415825 8.080420 0
M  V30 41 H 0.168872 2.776262 7.487562 0
M  V30 42 H 0.094546 2.444817 5.065547 0
M  V30 43 H -1.052151 -1.770616 3.804861 0
M  V30 44 H -1.733920 -3.149835 -0.496335 0
M  V30 END ATOM
M  V30 BEGIN BOND
M  V30 1 1 1 2
M  V30 2 1 2 3
M  V30 3 1 3 4
M  V30 4 2 4 5
M  V30 5 1 5 6
M  V30 6 2 6 7
M  V30 7 1 7 8
M  V30 8 2 8 9
M  V30 9 1 2 10
M  V30 10 2 10 11
M  V30 11 1 11 12
M  V30 12 2 12 13
M  V30 13 1 13 14
M  V30 14 2 14 15
M  V30 15 1 15 16
M  V30 16 2 16 17
M  V30 17 1 17 18
M  V30 18 2 18 19
M  V30 19 1 19 20
M  V30 20 2 20 21
M  V30 21 1 15 22
M  V30 22 2 22 23
M  V30 23 1 23 24
M  V30 24 2 24 25
M  V30 25 1 24 26
M  V30 26 1 9 4
M  V30 27 1 26 10
M  V30 28 1 23 12
M  V30 29 1 21 16
M  V30 30 1 1 27
M  V30 31 1 1 28
M  V30 32 1 2 29 CFG=3
M  V30 33 1 3 30
M  V30 34 1 3 31
M  V30 35 1 5 32
M  V30 36 1 6 33
M  V30 37 1 7 34
M  V30 38 1 8 35
M  V30 39 1 9 36
M  V30 40 1 13 37
M  V30 41 1 14 38
M  V30 42 1 17 39
M  V30 43 1 18 40
M  V30 44 1 20 41
M  V30 45 1 21 42
M  V30 46 1 22 43
M  V30 47 1 26 44
M  V30 END BOND
M  V30 END CTAB
M  END
>  <Dataset>  (857) 
ChEMBL_Kinases

>  <Ligand_Instance>  (857) 
nan

>  <PDB_ID>  (857) 
nan

>  <Standardized_SMILES>  (857) 
N[C@@H](Cc1ccccc1)c1nc2ccc(-c3ccncc3)cc2c(=O)[nH]1

>  <Name>  (857) 
nan

>  <Pocket>  (857) 
nan

>  <ATP_Site>  (857) 
nan

>  <Peripheral>  (857) 
nan

>  <Num_H_Atoms_ProtBoundConf>  (857) 
nan

>  <Num_Resolved_Atoms>  (857) 
nan

>  <Num_Not_Resolved_Atoms>  (857) 
nan

$$$$
CHEMBL2334284
     RDKit          3D

  0  0  0  0  0  0  0  0  0  0999 V3000
M  V30 BEGIN CTAB
M  V30 COUNTS 45 48 0 0 0
M  V30 BEGIN ATOM
M  V30 1 N -2.419489 2.185623 0.883581 0
M  V30 2 C -1.935646 1.754456 2.189850 0 CFG=2
M  V30 3 C -0.757067 2.665030 2.523544 0
M  V30 4 C 0.334465 2.561878 1.520502 0
M  V30 5 C 1.326227 1.603792 1.757475 0
M  V30 6 C 2.378966 1.432862 0.882766 0
M  V30 7 C 2.456910 2.225763 -0.254819 0
M  V30 8 C 1.473812 3.175967 -0.490575 0
M  V30 9 C 1.597358 4.000172 -1.718926 0
M  V30 10 F 1.126705 3.237263 -2.770179 0
M  V30 11 F 2.914875 4.294946 -1.993361 0
M  V30 12 F 0.892972 5.172580 -1.602432 0
M  V30 13 C 0.410916 3.352405 0.387732 0
M  V30 14 C -1.574374 0.331330 2.182486 0
M  V30 15 N -0.845007 -0.039045 1.092117 0
M  V30 16 C -0.412819 -1.294340 0.889271 0
M  V30 17 C 0.330784 -1.603082 -0.251867 0
M  V30 18 C 0.733400 -2.918067 -0.378609 0
M  V30 19 C 0.454041 -3.919700 0.528232 0
M  V30 20 C 0.949335 -5.264728 0.254675 0
M  V30 21 C 1.353858 -6.312550 1.056549 0
M  V30 22 N 1.730523 -7.361061 0.326258 0
M  V30 23 N 1.589592 -7.044357 -0.932963 0
M  V30 24 C 1.119083 -5.784787 -1.033071 0
M  V30 25 C -0.289552 -3.590203 1.660405 0
M  V30 26 C -0.700193 -2.285087 1.805173 0
M  V30 27 C -1.438728 -1.895616 2.903059 0
M  V30 28 O -1.746267 -2.750908 3.795870 0
M  V30 29 N -1.859877 -0.623153 3.079784 0
M  V30 30 H -2.701274 3.169061 0.870654 0
M  V30 31 H -1.770805 1.895027 0.119039 0
M  V30 32 H -2.712228 1.943573 2.932291 0
M  V30 33 H -1.111325 3.710980 2.489767 0
M  V30 34 H -0.377701 2.464711 3.557201 0
M  V30 35 H 1.265751 0.982949 2.647561 0
M  V30 36 H 3.120549 0.662580 1.131781 0
M  V30 37 H 3.300504 2.071750 -0.934412 0
M  V30 38 H -0.356992 4.090712 0.208949 0
M  V30 39 H 0.569433 -0.853400 -0.981688 0
M  V30 40 H 1.315482 -3.116919 -1.289895 0
M  V30 41 H 1.331282 -6.198395 2.151204 0
M  V30 42 H 1.794433 -7.636143 -1.782012 0
M  V30 43 H 0.897663 -5.235448 -1.948834 0
M  V30 44 H -0.513362 -4.349072 2.367827 0
M  V30 45 H -2.417382 -0.282353 3.888191 0
M  V30 END ATOM
M  V30 BEGIN BOND
M  V30 1 1 1 2
M  V30 2 1 2 3
M  V30 3 1 3 4
M  V30 4 2 4 5
M  V30 5 1 5 6
M  V30 6 2 6 7
M  V30 7 1 7 8
M  V30 8 1 8 9
M  V30 9 1 9 10
M  V30 10 1 9 11
M  V30 11 1 9 12
M  V30 12 2 8 13
M  V30 13 1 2 14
M  V30 14 2 14 15
M  V30 15 1 15 16
M  V30 16 2 16 17
M  V30 17 1 17 18
M  V30 18 2 18 19
M  V30 19 1 19 20
M  V30 20 1 20 21
M  V30 21 2 21 22
M  V30 22 1 22 23
M  V30 23 1 23 24
M  V30 24 1 19 25
M  V30 25 2 25 26
M  V30 26 1 26 27
M  V30 27 2 27 28
M  V30 28 1 27 29
M  V30 29 1 13 4
M  V30 30 1 29 14
M  V30 31 1 26 16
M  V30 32 2 24 20
M  V30 33 1 1 30
M  V30 34 1 1 31
M  V30 35 1 2 32 CFG=1
M  V30 36 1 3 33
M  V30 37 1 3 34
M  V30 38 1 5 35
M  V30 39 1 6 36
M  V30 40 1 7 37
M  V30 41 1 13 38
M  V30 42 1 17 39
M  V30 43 1 18 40
M  V30 44 1 21 41
M  V30 45 1 23 42
M  V30 46 1 24 43
M  V30 47 1 25 44
M  V30 48 1 29 45
M  V30 END BOND
M  V30 END CTAB
M  END
>  <Dataset>  (858) 
ChEMBL_Kinases

>  <Ligand_Instance>  (858) 
nan

>  <PDB_ID>  (858) 
nan

>  <Standardized_SMILES>  (858) 
N[C@H](Cc1cccc(C(F)(F)F)c1)c1nc2ccc(-c3cn[nH]c3)cc2c(=O)[nH]1

>  <Name>  (858) 
nan

>  <Pocket>  (858) 
nan

>  <ATP_Site>  (858) 
nan

>  <Peripheral>  (858) 
nan

>  <Num_H_Atoms_ProtBoundConf>  (858) 
nan

>  <Num_Resolved_Atoms>  (858) 
nan

>  <Num_Not_Resolved_Atoms>  (858) 
nan

$$$$
CHEMBL2333891
     RDKit          3D

  0  0  0  0  0  0  0  0  0  0999 V3000
M  V30 BEGIN CTAB
M  V30 COUNTS 53 56 0 0 0
M  V30 BEGIN ATOM
M  V30 1 C -1.246663 -1.357928 2.881108 0
M  V30 2 N 0.129020 -1.184968 2.386088 0
M  V30 3 C 1.062331 -1.351498 3.480718 0
M  V30 4 C 2.495757 -1.194453 3.075969 0
M  V30 5 O 3.276289 -1.380040 4.221942 0
M  V30 6 C 0.347983 -0.900913 1.015262 0
M  V30 7 N 0.946770 0.246863 0.727947 0
M  V30 8 C 1.208150 0.633756 -0.534131 0
M  V30 9 C 1.867256 1.890606 -0.917593 0 CFG=1
M  V30 10 N 2.895565 1.709623 -1.935551 0
M  V30 11 C 0.792835 2.828478 -1.429475 0
M  V30 12 C -0.182220 3.045264 -0.328076 0
M  V30 13 C -1.305379 2.278084 -0.094164 0
M  V30 14 C -2.126858 2.581864 0.957899 0
M  V30 15 C -1.875823 3.637308 1.806435 0
M  V30 16 C -0.742411 4.396001 1.554287 0
M  V30 17 F -0.509731 5.441905 2.409019 0
M  V30 18 C 0.114134 4.118762 0.497473 0
M  V30 19 N 0.848325 -0.177217 -1.571073 0
M  V30 20 C 0.239092 -1.348582 -1.312920 0
M  V30 21 C -0.155991 -2.226013 -2.316564 0
M  V30 22 C -0.787110 -3.438730 -2.031259 0
M  V30 23 C -1.038085 -3.800309 -0.715815 0
M  V30 24 C -1.692309 -5.050163 -0.336444 0
M  V30 25 C -1.551687 -6.219578 -1.076684 0
M  V30 26 N -2.292822 -7.153782 -0.424661 0
M  V30 27 N -2.845680 -6.587233 0.639967 0
M  V30 28 C -2.509923 -5.286474 0.746408 0
M  V30 29 C -0.648394 -2.933684 0.285883 0
M  V30 30 C -0.025452 -1.738674 -0.016036 0
M  V30 31 H -1.998324 -1.269865 2.093808 0
M  V30 32 H -1.349189 -0.532639 3.645743 0
M  V30 33 H -1.319379 -2.294133 3.470130 0
M  V30 34 H 0.818689 -0.614915 4.263400 0
M  V30 35 H 0.938994 -2.375834 3.889954 0
M  V30 36 H 2.752549 -0.203960 2.690858 0
M  V30 37 H 2.802409 -2.016834 2.375266 0
M  V30 38 H 3.136963 -0.707322 4.915054 0
M  V30 39 H 2.342256 2.301491 -0.007738 0
M  V30 40 H 2.650193 1.016073 -2.659472 0
M  V30 41 H 3.815324 1.424852 -1.517724 0
M  V30 42 H 1.205670 3.782318 -1.803361 0
M  V30 43 H 0.260397 2.281490 -2.241061 0
M  V30 44 H -1.454228 1.472423 -0.779353 0
M  V30 45 H -2.973612 1.954641 1.083636 0
M  V30 46 H -2.555097 3.831510 2.618477 0
M  V30 47 H 0.961270 4.785614 0.410227 0
M  V30 48 H 0.037146 -1.951676 -3.353235 0
M  V30 49 H -1.094736 -4.120609 -2.792722 0
M  V30 50 H -1.001175 -6.458274 -1.989123 0
M  V30 51 H -3.481922 -7.057901 1.351540 0
M  V30 52 H -2.752186 -4.523206 1.447997 0
M  V30 53 H -0.842918 -3.215503 1.309341 0
M  V30 END ATOM
M  V30 BEGIN BOND
M  V30 1 1 1 2
M  V30 2 1 2 3
M  V30 3 1 3 4
M  V30 4 1 4 5
M  V30 5 1 2 6
M  V30 6 2 6 7
M  V30 7 1 7 8
M  V30 8 1 8 9
M  V30 9 1 9 10
M  V30 10 1 9 11
M  V30 11 1 11 12
M  V30 12 2 12 13
M  V30 13 1 13 14
M  V30 14 2 14 15
M  V30 15 1 15 16
M  V30 16 1 16 17
M  V30 17 2 16 18
M  V30 18 2 8 19
M  V30 19 1 19 20
M  V30 20 2 20 21
M  V30 21 1 21 22
M  V30 22 2 22 23
M  V30 23 1 23 24
M  V30 24 1 24 25
M  V30 25 2 25 26
M  V30 26 1 26 27
M  V30 27 1 27 28
M  V30 28 1 23 29
M  V30 29 2 29 30
M  V30 30 1 30 6
M  V30 31 1 18 12
M  V30 32 1 30 20
M  V30 33 2 28 24
M  V30 34 1 1 31
M  V30 35 1 1 32
M  V30 36 1 1 33
M  V30 37 1 3 34
M  V30 38 1 3 35
M  V30 39 1 4 36
M  V30 40 1 4 37
M  V30 41 1 5 38
M  V30 42 1 9 39 CFG=1
M  V30 43 1 10 40
M  V30 44 1 10 41
M  V30 45 1 11 42
M  V30 46 1 11 43
M  V30 47 1 13 44
M  V30 48 1 14 45
M  V30 49 1 15 46
M  V30 50 1 18 47
M  V30 51 1 21 48
M  V30 52 1 22 49
M  V30 53 1 25 50
M  V30 54 1 27 51
M  V30 55 1 28 52
M  V30 56 1 29 53
M  V30 END BOND
M  V30 END CTAB
M  END
>  <Dataset>  (859) 
ChEMBL_Kinases

>  <Ligand_Instance>  (859) 
nan

>  <PDB_ID>  (859) 
nan

>  <Standardized_SMILES>  (859) 
CN(CCO)c1nc([C@@H](N)Cc2cccc(F)c2)nc2ccc(-c3cn[nH]c3)cc12

>  <Name>  (859) 
nan

>  <Pocket>  (859) 
nan

>  <ATP_Site>  (859) 
nan

>  <Peripheral>  (859) 
nan

>  <Num_H_Atoms_ProtBoundConf>  (859) 
nan

>  <Num_Resolved_Atoms>  (859) 
nan

>  <Num_Not_Resolved_Atoms>  (859) 
nan

$$$$
CHEMBL2333892
     RDKit          3D

  0  0  0  0  0  0  0  0  0  0999 V3000
M  V30 BEGIN CTAB
M  V30 COUNTS 49 52 0 0 0
M  V30 BEGIN ATOM
M  V30 1 C -2.748330 -1.204108 3.503986 0
M  V30 2 N -1.314401 -1.361917 3.367139 0
M  V30 3 C -0.796251 -1.991624 4.560996 0
M  V30 4 C -0.401245 -1.016181 2.311824 0
M  V30 5 N 0.642636 -0.159206 2.438301 0
M  V30 6 C 1.479534 0.145640 1.429311 0
M  V30 7 C 2.475402 1.097396 1.945181 0 CFG=1
M  V30 8 N 2.994386 0.664963 3.241894 0
M  V30 9 C 3.556219 1.503080 1.010698 0
M  V30 10 C 3.029215 2.162394 -0.200616 0
M  V30 11 C 2.746555 1.629014 -1.416561 0
M  V30 12 C 2.238742 2.344560 -2.472128 0
M  V30 13 C 1.991115 3.692035 -2.315405 0
M  V30 14 C 2.241888 4.323283 -1.132062 0
M  V30 15 F 2.016345 5.631803 -0.935114 0
M  V30 16 C 2.751317 3.534266 -0.119926 0
M  V30 17 N 1.210111 -0.463842 0.268748 0
M  V30 18 C 0.212148 -1.313245 0.060486 0
M  V30 19 C 0.135868 -1.814682 -1.221683 0
M  V30 20 C -0.898254 -2.716440 -1.497871 0
M  V30 21 C -1.781978 -3.049822 -0.465290 0
M  V30 22 C -2.880692 -3.995278 -0.722573 0
M  V30 23 C -3.382766 -4.843568 0.251846 0
M  V30 24 N -4.370600 -5.552329 -0.348603 0
M  V30 25 N -4.481279 -5.175900 -1.611057 0
M  V30 26 C -3.589629 -4.215775 -1.909148 0
M  V30 27 C -1.647812 -2.509664 0.798301 0
M  V30 28 C -0.639846 -1.620313 1.097277 0
M  V30 29 H -2.992436 -0.466537 4.320101 0
M  V30 30 H -3.272331 -2.155431 3.726871 0
M  V30 31 H -3.217089 -0.766309 2.599076 0
M  V30 32 H 0.299431 -2.123933 4.553812 0
M  V30 33 H -1.323973 -2.981952 4.688564 0
M  V30 34 H -1.100507 -1.394649 5.452553 0
M  V30 35 H 1.886389 2.035505 2.196127 0
M  V30 36 H 3.508542 1.460703 3.697917 0
M  V30 37 H 2.157799 0.473276 3.860110 0
M  V30 38 H 4.170966 2.275904 1.559738 0
M  V30 39 H 4.246886 0.667257 0.745802 0
M  V30 40 H 2.946548 0.588831 -1.554634 0
M  V30 41 H 2.042796 1.836174 -3.407425 0
M  V30 42 H 1.591911 4.227428 -3.163101 0
M  V30 43 H 2.950118 4.049860 0.828804 0
M  V30 44 H 0.827986 -1.544184 -2.002721 0
M  V30 45 H -1.026692 -3.154695 -2.478757 0
M  V30 46 H -3.116209 -4.987883 1.293458 0
M  V30 47 H -5.106889 -5.466330 -2.405848 0
M  V30 48 H -3.344847 -3.646959 -2.791769 0
M  V30 49 H -2.323897 -2.758066 1.608970 0
M  V30 END ATOM
M  V30 BEGIN BOND
M  V30 1 1 1 2
M  V30 2 1 2 3
M  V30 3 1 2 4
M  V30 4 2 4 5
M  V30 5 1 5 6
M  V30 6 1 6 7
M  V30 7 1 7 8
M  V30 8 1 7 9
M  V30 9 1 9 10
M  V30 10 2 10 11
M  V30 11 1 11 12
M  V30 12 2 12 13
M  V30 13 1 13 14
M  V30 14 1 14 15
M  V30 15 2 14 16
M  V30 16 2 6 17
M  V30 17 1 17 18
M  V30 18 2 18 19
M  V30 19 1 19 20
M  V30 20 2 20 21
M  V30 21 1 21 22
M  V30 22 1 22 23
M  V30 23 2 23 24
M  V30 24 1 24 25
M  V30 25 1 25 26
M  V30 26 1 21 27
M  V30 27 2 27 28
M  V30 28 1 28 4
M  V30 29 1 16 10
M  V30 30 1 28 18
M  V30 31 2 26 22
M  V30 32 1 1 29
M  V30 33 1 1 30
M  V30 34 1 1 31
M  V30 35 1 3 32
M  V30 36 1 3 33
M  V30 37 1 3 34
M  V30 38 1 7 35 CFG=1
M  V30 39 1 8 36
M  V30 40 1 8 37
M  V30 41 1 9 38
M  V30 42 1 9 39
M  V30 43 1 11 40
M  V30 44 1 12 41
M  V30 45 1 13 42
M  V30 46 1 16 43
M  V30 47 1 19 44
M  V30 48 1 20 45
M  V30 49 1 23 46
M  V30 50 1 25 47
M  V30 51 1 26 48
M  V30 52 1 27 49
M  V30 END BOND
M  V30 END CTAB
M  END
>  <Dataset>  (860) 
ChEMBL_Kinases

>  <Ligand_Instance>  (860) 
nan

>  <PDB_ID>  (860) 
nan

>  <Standardized_SMILES>  (860) 
CN(C)c1nc([C@@H](N)Cc2cccc(F)c2)nc2ccc(-c3cn[nH]c3)cc12

>  <Name>  (860) 
nan

>  <Pocket>  (860) 
nan

>  <ATP_Site>  (860) 
nan

>  <Peripheral>  (860) 
nan

>  <Num_H_Atoms_ProtBoundConf>  (860) 
nan

>  <Num_Resolved_Atoms>  (860) 
nan

>  <Num_Not_Resolved_Atoms>  (860) 
nan

$$$$
CHEMBL2333893
     RDKit          3D

  0  0  0  0  0  0  0  0  0  0999 V3000
M  V30 BEGIN CTAB
M  V30 COUNTS 39 42 0 0 0
M  V30 BEGIN ATOM
M  V30 1 N -1.658778 -3.203860 -1.166144 0
M  V30 2 C -0.779117 -3.421771 -0.050992 0
M  V30 3 C 0.575182 -3.745007 -0.610906 0
M  V30 4 C 1.386526 -4.767360 -0.162559 0
M  V30 5 C 2.608265 -4.946726 -0.774411 0
M  V30 6 C 3.036912 -4.153657 -1.799100 0
M  V30 7 Cl 4.581554 -4.353213 -2.599291 0
M  V30 8 C 2.205316 -3.153528 -2.213393 0
M  V30 9 C 0.948587 -2.895890 -1.653216 0
M  V30 10 C -0.691881 -2.196150 0.819602 0
M  V30 11 N -0.540788 -1.078644 0.054531 0
M  V30 12 C -0.439602 0.146137 0.624970 0
M  V30 13 C -0.285383 1.302385 -0.112952 0
M  V30 14 C -0.185090 2.535674 0.501276 0
M  V30 15 C -0.244598 2.570387 1.880594 0
M  V30 16 C -0.133279 3.895215 2.481108 0
M  V30 17 C -0.525427 5.149728 2.049813 0
M  V30 18 N -0.190261 6.064966 2.983288 0
M  V30 19 N 0.400150 5.458547 3.997165 0
M  V30 20 C 0.452870 4.139030 3.728015 0
M  V30 21 C -0.397547 1.451227 2.675295 0
M  V30 22 C -0.493482 0.234811 2.004651 0
M  V30 23 C -0.647381 -0.920608 2.744309 0
M  V30 24 O -0.702858 -0.902062 4.000434 0
M  V30 25 N -0.746594 -2.130992 2.162977 0
M  V30 26 H -2.613010 -3.598729 -0.925929 0
M  V30 27 H -1.326222 -3.795107 -1.959424 0
M  V30 28 H -1.110014 -4.278148 0.534439 0
M  V30 29 H 1.018012 -5.377379 0.650116 0
M  V30 30 H 3.261350 -5.747763 -0.433568 0
M  V30 31 H 2.506911 -2.489130 -3.034617 0
M  V30 32 H 0.330989 -2.087566 -2.023418 0
M  V30 33 H -0.248107 1.189110 -1.185458 0
M  V30 34 H -0.067667 3.385957 -0.127748 0
M  V30 35 H -1.019387 5.220763 1.077464 0
M  V30 36 H 0.729129 6.013693 4.816655 0
M  V30 37 H 0.896999 3.395987 4.409184 0
M  V30 38 H -0.441241 1.505069 3.761557 0
M  V30 39 H -0.864073 -3.056200 2.621796 0
M  V30 END ATOM
M  V30 BEGIN BOND
M  V30 1 1 1 2
M  V30 2 1 2 3
M  V30 3 2 3 4
M  V30 4 1 4 5
M  V30 5 2 5 6
M  V30 6 1 6 7
M  V30 7 1 6 8
M  V30 8 2 8 9
M  V30 9 1 2 10
M  V30 10 2 10 11
M  V30 11 1 11 12
M  V30 12 2 12 13
M  V30 13 1 13 14
M  V30 14 2 14 15
M  V30 15 1 15 16
M  V30 16 1 16 17
M  V30 17 2 17 18
M  V30 18 1 18 19
M  V30 19 1 19 20
M  V30 20 1 15 21
M  V30 21 2 21 22
M  V30 22 1 22 23
M  V30 23 2 23 24
M  V30 24 1 23 25
M  V30 25 1 9 3
M  V30 26 1 25 10
M  V30 27 1 22 12
M  V30 28 2 20 16
M  V30 29 1 1 26
M  V30 30 1 1 27
M  V30 31 1 2 28
M  V30 32 1 4 29
M  V30 33 1 5 30
M  V30 34 1 8 31
M  V30 35 1 9 32
M  V30 36 1 13 33
M  V30 37 1 14 34
M  V30 38 1 17 35
M  V30 39 1 19 36
M  V30 40 1 20 37
M  V30 41 1 21 38
M  V30 42 1 25 39
M  V30 END BOND
M  V30 END CTAB
M  END
>  <Dataset>  (861) 
ChEMBL_Kinases

>  <Ligand_Instance>  (861) 
nan

>  <PDB_ID>  (861) 
nan

>  <Standardized_SMILES>  (861) 
NC(c1ccc(Cl)cc1)c1nc2ccc(-c3cn[nH]c3)cc2c(=O)[nH]1

>  <Name>  (861) 
nan

>  <Pocket>  (861) 
nan

>  <ATP_Site>  (861) 
nan

>  <Peripheral>  (861) 
nan

>  <Num_H_Atoms_ProtBoundConf>  (861) 
nan

>  <Num_Resolved_Atoms>  (861) 
nan

>  <Num_Not_Resolved_Atoms>  (861) 
nan

$$$$
CHEMBL2333895
     RDKit          3D

  0  0  0  0  0  0  0  0  0  0999 V3000
M  V30 BEGIN CTAB
M  V30 COUNTS 43 46 0 0 0
M  V30 BEGIN ATOM
M  V30 1 C 3.037199 -3.890904 0.789026 0
M  V30 2 O 2.186037 -2.808486 1.106627 0
M  V30 3 C 2.279991 -1.589658 0.494987 0
M  V30 4 C 3.140843 -1.147443 -0.489385 0
M  V30 5 C 3.070041 0.140008 -0.978988 0
M  V30 6 C 4.040373 0.472038 -2.017190 0
M  V30 7 C 5.328230 -0.009657 -2.181634 0
M  V30 8 N 5.800669 0.604752 -3.283200 0
M  V30 9 N 4.872656 1.424855 -3.787228 0
M  V30 10 C 3.745905 1.373922 -3.021575 0
M  V30 11 C 2.147960 1.063915 -0.526663 0
M  V30 12 C 1.275302 0.617412 0.470627 0
M  V30 13 C 0.361461 1.542069 0.915977 0
M  V30 14 O 0.329222 2.712505 0.441568 0
M  V30 15 N -0.520924 1.198245 1.878599 0
M  V30 16 C -0.467374 -0.067634 2.374501 0
M  V30 17 C -1.446950 -0.438634 3.439097 0
M  V30 18 N -1.584531 0.547164 4.463462 0
M  V30 19 C -2.752295 -0.858550 2.897351 0
M  V30 20 C -3.732255 0.057206 2.578847 0
M  V30 21 C -4.949022 -0.357718 2.072403 0
M  V30 22 C -5.232926 -1.700173 1.865228 0
M  V30 23 Cl -6.751431 -2.300920 1.226683 0
M  V30 24 C -4.275231 -2.659486 2.171861 0
M  V30 25 C -3.065984 -2.201696 2.678457 0
M  V30 26 N 0.444225 -0.939320 1.908476 0
M  V30 27 C 1.342116 -0.674630 0.965625 0
M  V30 28 H 3.463642 -3.804241 -0.214007 0
M  V30 29 H 3.824465 -3.994016 1.573643 0
M  V30 30 H 2.382346 -4.798011 0.834136 0
M  V30 31 H 3.842353 -1.896128 -0.812693 0
M  V30 32 H 5.743727 -0.718283 -1.507166 0
M  V30 33 H 5.046686 2.002309 -4.654925 0
M  V30 34 H 2.865531 1.960038 -3.247612 0
M  V30 35 H 2.191695 2.021960 -0.979735 0
M  V30 36 H -1.231358 1.876925 2.241948 0
M  V30 37 H -1.013327 -1.353442 3.933514 0
M  V30 38 H -2.314365 1.252831 4.327241 0
M  V30 39 H -1.496299 0.157179 5.415589 0
M  V30 40 H -3.564469 1.117459 2.720502 0
M  V30 41 H -5.758585 0.305956 1.802346 0
M  V30 42 H -4.363164 -3.730239 2.060265 0
M  V30 43 H -2.267218 -2.888859 2.942206 0
M  V30 END ATOM
M  V30 BEGIN BOND
M  V30 1 1 1 2
M  V30 2 1 2 3
M  V30 3 2 3 4
M  V30 4 1 4 5
M  V30 5 1 5 6
M  V30 6 1 6 7
M  V30 7 2 7 8
M  V30 8 1 8 9
M  V30 9 1 9 10
M  V30 10 2 5 11
M  V30 11 1 11 12
M  V30 12 1 12 13
M  V30 13 2 13 14
M  V30 14 1 13 15
M  V30 15 1 15 16
M  V30 16 1 16 17
M  V30 17 1 17 18
M  V30 18 1 17 19
M  V30 19 2 19 20
M  V30 20 1 20 21
M  V30 21 2 21 22
M  V30 22 1 22 23
M  V30 23 1 22 24
M  V30 24 2 24 25
M  V30 25 2 16 26
M  V30 26 1 26 27
M  V30 27 1 27 3
M  V30 28 2 10 6
M  V30 29 2 27 12
M  V30 30 1 25 19
M  V30 31 1 1 28
M  V30 32 1 1 29
M  V30 33 1 1 30
M  V30 34 1 4 31
M  V30 35 1 7 32
M  V30 36 1 9 33
M  V30 37 1 10 34
M  V30 38 1 11 35
M  V30 39 1 15 36
M  V30 40 1 17 37
M  V30 41 1 18 38
M  V30 42 1 18 39
M  V30 43 1 20 40
M  V30 44 1 21 41
M  V30 45 1 24 42
M  V30 46 1 25 43
M  V30 END BOND
M  V30 END CTAB
M  END
>  <Dataset>  (862) 
ChEMBL_Kinases

>  <Ligand_Instance>  (862) 
nan

>  <PDB_ID>  (862) 
nan

>  <Standardized_SMILES>  (862) 
COc1cc(-c2cn[nH]c2)cc2c(=O)[nH]c(C(N)c3ccc(Cl)cc3)nc12

>  <Name>  (862) 
nan

>  <Pocket>  (862) 
nan

>  <ATP_Site>  (862) 
nan

>  <Peripheral>  (862) 
nan

>  <Num_H_Atoms_ProtBoundConf>  (862) 
nan

>  <Num_Resolved_Atoms>  (862) 
nan

>  <Num_Not_Resolved_Atoms>  (862) 
nan

$$$$
CHEMBL2333897
     RDKit          3D

  0  0  0  0  0  0  0  0  0  0999 V3000
M  V30 BEGIN CTAB
M  V30 COUNTS 46 50 0 0 0
M  V30 BEGIN ATOM
M  V30 1 O -1.233306 -2.007563 3.720083 0
M  V30 2 C -0.975866 -1.503395 2.609541 0
M  V30 3 N -0.347409 -0.312227 2.592416 0
M  V30 4 C -0.079796 0.212992 1.362849 0
M  V30 5 C 0.620594 1.542145 1.273873 0 CFG=2
M  V30 6 C -0.236154 2.558526 0.568466 0
M  V30 7 N 0.567913 3.153113 -0.455222 0
M  V30 8 C 1.402556 2.052718 -0.888945 0
M  V30 9 C 1.845818 1.451665 0.427889 0 CFG=1
M  V30 10 C 2.986389 2.278148 0.923380 0
M  V30 11 C 2.919265 3.601269 1.261789 0
M  V30 12 C 3.988580 4.336403 1.713153 0
M  V30 13 C 5.233346 3.732933 1.847925 0
M  V30 14 F 6.241790 4.520602 2.298720 0
M  V30 15 C 5.324397 2.398820 1.512290 0
M  V30 16 C 4.247966 1.693206 1.067049 0
M  V30 17 N -0.425788 -0.425963 0.219125 0
M  V30 18 C -1.057612 -1.623498 0.231697 0
M  V30 19 C -1.426726 -2.306198 -0.908981 0
M  V30 20 C -2.073347 -3.532769 -0.826690 0
M  V30 21 C -2.368939 -4.111014 0.406921 0
M  V30 22 C -3.049080 -5.401270 0.459434 0
M  V30 23 C -3.939223 -5.972207 1.369274 0
M  V30 24 N -4.259668 -7.217971 0.915040 0
M  V30 25 N -3.622725 -7.451772 -0.218704 0
M  V30 26 C -2.885332 -6.368714 -0.513926 0
M  V30 27 C -1.986548 -3.403078 1.547084 0
M  V30 28 C -1.341479 -2.179448 1.463761 0
M  V30 29 H -0.066255 0.207767 3.459274 0
M  V30 30 H 0.815323 1.900391 2.290225 0
M  V30 31 H -0.747908 3.251436 1.234944 0
M  V30 32 H -1.052921 1.999487 0.033079 0
M  V30 33 H 0.008154 3.568846 -1.217789 0
M  V30 34 H 0.831025 1.317745 -1.480773 0
M  V30 35 H 2.322817 2.389745 -1.407905 0
M  V30 36 H 2.202220 0.403172 0.293162 0
M  V30 37 H 1.987189 4.105009 1.176444 0
M  V30 38 H 3.860479 5.389996 1.964587 0
M  V30 39 H 6.326213 1.994195 1.642484 0
M  V30 40 H 4.425360 0.638091 0.826992 0
M  V30 41 H -1.194341 -1.851940 -1.853161 0
M  V30 42 H -2.364604 -4.071362 -1.724665 0
M  V30 43 H -4.252866 -5.424151 2.252662 0
M  V30 44 H -3.786622 -8.377978 -0.668208 0
M  V30 45 H -2.272800 -6.339769 -1.413657 0
M  V30 46 H -2.221783 -3.862602 2.500918 0
M  V30 END ATOM
M  V30 BEGIN BOND
M  V30 1 2 1 2
M  V30 2 1 2 3
M  V30 3 1 3 4
M  V30 4 1 4 5
M  V30 5 1 5 6
M  V30 6 1 6 7
M  V30 7 1 7 8
M  V30 8 1 8 9
M  V30 9 1 9 10
M  V30 10 2 10 11
M  V30 11 1 11 12
M  V30 12 2 12 13
M  V30 13 1 13 14
M  V30 14 1 13 15
M  V30 15 2 15 16
M  V30 16 2 4 17
M  V30 17 1 17 18
M  V30 18 2 18 19
M  V30 19 1 19 20
M  V30 20 2 20 21
M  V30 21 1 21 22
M  V30 22 1 22 23
M  V30 23 2 23 24
M  V30 24 1 24 25
M  V30 25 1 25 26
M  V30 26 1 21 27
M  V30 27 2 27 28
M  V30 28 1 28 2
M  V30 29 1 9 5
M  V30 30 1 16 10
M  V30 31 1 28 18
M  V30 32 2 26 22
M  V30 33 1 3 29
M  V30 34 1 5 30 CFG=1
M  V30 35 1 6 31
M  V30 36 1 6 32
M  V30 37 1 7 33
M  V30 38 1 8 34
M  V30 39 1 8 35
M  V30 40 1 9 36 CFG=3
M  V30 41 1 11 37
M  V30 42 1 12 38
M  V30 43 1 15 39
M  V30 44 1 16 40
M  V30 45 1 19 41
M  V30 46 1 20 42
M  V30 47 1 23 43
M  V30 48 1 25 44
M  V30 49 1 26 45
M  V30 50 1 27 46
M  V30 END BOND
M  V30 END CTAB
M  END
>  <Dataset>  (863) 
ChEMBL_Kinases

>  <Ligand_Instance>  (863) 
nan

>  <PDB_ID>  (863) 
nan

>  <Standardized_SMILES>  (863) 
O=c1[nH]c([C@@H]2CNC[C@H]2c2ccc(F)cc2)nc2ccc(-c3cn[nH]c3)cc12

>  <Name>  (863) 
nan

>  <Pocket>  (863) 
nan

>  <ATP_Site>  (863) 
nan

>  <Peripheral>  (863) 
nan

>  <Num_H_Atoms_ProtBoundConf>  (863) 
nan

>  <Num_Resolved_Atoms>  (863) 
nan

>  <Num_Not_Resolved_Atoms>  (863) 
nan

$$$$
CHEMBL2333898
     RDKit          3D

  0  0  0  0  0  0  0  0  0  0999 V3000
M  V30 BEGIN CTAB
M  V30 COUNTS 46 50 0 0 0
M  V30 BEGIN ATOM
M  V30 1 O -2.037326 -1.196589 3.573984 0
M  V30 2 C -1.473956 -1.001521 2.457985 0
M  V30 3 N -0.832165 0.171977 2.264521 0
M  V30 4 C -0.232050 0.364798 1.058606 0
M  V30 5 C 0.513047 1.625227 0.718811 0 CFG=2
M  V30 6 C -0.039706 2.290926 -0.505273 0
M  V30 7 N 1.048976 2.548453 -1.391408 0
M  V30 8 C 1.947209 1.439346 -1.142344 0
M  V30 9 C 1.940797 1.347472 0.369959 0 CFG=1
M  V30 10 C 2.891497 2.363354 0.902037 0
M  V30 11 C 2.777207 3.723729 0.734670 0
M  V30 12 C 3.677316 4.637173 1.241296 0
M  V30 13 C 4.769789 4.157721 1.967148 0
M  V30 14 Cl 5.909043 5.296686 2.609379 0
M  V30 15 C 4.916537 2.799164 2.154973 0
M  V30 16 C 3.994489 1.914580 1.632341 0
M  V30 17 N -0.263230 -0.562514 0.081672 0
M  V30 18 C -0.896575 -1.748903 0.240455 0
M  V30 19 C -0.944295 -2.725703 -0.752476 0
M  V30 20 C -1.613962 -3.918910 -0.514361 0
M  V30 21 C -2.239819 -4.165558 0.691663 0
M  V30 22 C -2.945074 -5.421167 0.945368 0
M  V30 23 C -4.050632 -5.620159 1.751071 0
M  V30 24 N -4.357470 -6.939658 1.683734 0
M  V30 25 N -3.518017 -7.581983 0.889352 0
M  V30 26 C -2.630389 -6.658101 0.418336 0
M  V30 27 C -2.186725 -3.179831 1.681929 0
M  V30 28 C -1.519758 -1.971959 1.466816 0
M  V30 29 H -0.770651 0.931041 2.978798 0
M  V30 30 H 0.507755 2.337864 1.551439 0
M  V30 31 H -0.728173 1.558651 -0.977899 0
M  V30 32 H -0.651665 3.184963 -0.276135 0
M  V30 33 H 0.699110 2.485485 -2.367371 0
M  V30 34 H 1.526959 0.472549 -1.545337 0
M  V30 35 H 2.948722 1.634505 -1.547516 0
M  V30 36 H 2.244823 0.319573 0.668248 0
M  V30 37 H 1.931626 4.094917 0.173835 0
M  V30 38 H 3.512945 5.694168 1.062894 0
M  V30 39 H 5.754385 2.389915 2.714536 0
M  V30 40 H 4.112115 0.843230 1.781751 0
M  V30 41 H -0.457458 -2.535577 -1.692673 0
M  V30 42 H -1.648590 -4.677163 -1.290771 0
M  V30 43 H -4.582759 -4.869246 2.333747 0
M  V30 44 H -3.617362 -8.615874 0.727885 0
M  V30 45 H -1.829581 -6.923765 -0.259636 0
M  V30 46 H -2.668662 -3.359756 2.621866 0
M  V30 END ATOM
M  V30 BEGIN BOND
M  V30 1 2 1 2
M  V30 2 1 2 3
M  V30 3 1 3 4
M  V30 4 1 4 5
M  V30 5 1 5 6
M  V30 6 1 6 7
M  V30 7 1 7 8
M  V30 8 1 8 9
M  V30 9 1 9 10
M  V30 10 2 10 11
M  V30 11 1 11 12
M  V30 12 2 12 13
M  V30 13 1 13 14
M  V30 14 1 13 15
M  V30 15 2 15 16
M  V30 16 2 4 17
M  V30 17 1 17 18
M  V30 18 2 18 19
M  V30 19 1 19 20
M  V30 20 2 20 21
M  V30 21 1 21 22
M  V30 22 1 22 23
M  V30 23 2 23 24
M  V30 24 1 24 25
M  V30 25 1 25 26
M  V30 26 1 21 27
M  V30 27 2 27 28
M  V30 28 1 28 2
M  V30 29 1 9 5
M  V30 30 1 16 10
M  V30 31 1 28 18
M  V30 32 2 26 22
M  V30 33 1 3 29
M  V30 34 1 5 30 CFG=1
M  V30 35 1 6 31
M  V30 36 1 6 32
M  V30 37 1 7 33
M  V30 38 1 8 34
M  V30 39 1 8 35
M  V30 40 1 9 36 CFG=3
M  V30 41 1 11 37
M  V30 42 1 12 38
M  V30 43 1 15 39
M  V30 44 1 16 40
M  V30 45 1 19 41
M  V30 46 1 20 42
M  V30 47 1 23 43
M  V30 48 1 25 44
M  V30 49 1 26 45
M  V30 50 1 27 46
M  V30 END BOND
M  V30 END CTAB
M  END
>  <Dataset>  (864) 
ChEMBL_Kinases

>  <Ligand_Instance>  (864) 
nan

>  <PDB_ID>  (864) 
nan

>  <Standardized_SMILES>  (864) 
O=c1[nH]c([C@@H]2CNC[C@H]2c2ccc(Cl)cc2)nc2ccc(-c3cn[nH]c3)cc12

>  <Name>  (864) 
nan

>  <Pocket>  (864) 
nan

>  <ATP_Site>  (864) 
nan

>  <Peripheral>  (864) 
nan

>  <Num_H_Atoms_ProtBoundConf>  (864) 
nan

>  <Num_Resolved_Atoms>  (864) 
nan

>  <Num_Not_Resolved_Atoms>  (864) 
nan

$$$$
CHEMBL2333899
     RDKit          3D

  0  0  0  0  0  0  0  0  0  0999 V3000
M  V30 BEGIN CTAB
M  V30 COUNTS 49 53 0 0 0
M  V30 BEGIN ATOM
M  V30 1 O -0.798779 -2.636066 3.558142 0
M  V30 2 C -0.469562 -2.338694 2.382392 0
M  V30 3 N 0.716373 -1.764022 2.106633 0
M  V30 4 C 1.083518 -1.439421 0.851860 0
M  V30 5 C 2.381214 -0.803430 0.485902 0 CFG=2
M  V30 6 C 3.509968 -1.783264 0.813154 0
M  V30 7 N 4.379272 -1.129219 1.755177 0
M  V30 8 C 4.054079 0.264659 1.761835 0
M  V30 9 C 2.595707 0.378654 1.355495 0 CFG=1
M  V30 10 C 2.303165 1.688344 0.726141 0
M  V30 11 C 1.419288 2.506636 1.433676 0
M  V30 12 C 1.128186 3.748974 0.859348 0
M  V30 13 C 1.675755 4.159017 -0.340009 0
M  V30 14 C 1.335166 5.492018 -0.911218 0
M  V30 15 F 0.202334 6.015440 -0.315962 0
M  V30 16 F 2.404580 6.354518 -0.853092 0
M  V30 17 F 1.013348 5.302691 -2.244870 0
M  V30 18 C 2.545247 3.324402 -1.011546 0
M  V30 19 C 2.854741 2.077057 -0.461907 0
M  V30 20 N 0.200318 -1.716121 -0.149362 0
M  V30 21 C -0.992826 -2.288859 0.085065 0
M  V30 22 C -1.826408 -2.533858 -0.986743 0
M  V30 23 C -3.065395 -3.121597 -0.797841 0
M  V30 24 C -3.459135 -3.462826 0.493311 0
M  V30 25 C -4.762721 -4.082865 0.711079 0
M  V30 26 C -5.384550 -4.926563 -0.209904 0
M  V30 27 N -6.533177 -5.267877 0.364825 0
M  V30 28 N -6.654553 -4.709885 1.536345 0
M  V30 29 C -5.568951 -3.958398 1.795246 0
M  V30 30 C -2.604345 -3.206508 1.551872 0
M  V30 31 C -1.367866 -2.620911 1.370936 0
M  V30 32 H 1.385316 -1.554901 2.867647 0
M  V30 33 H 2.442268 -0.631366 -0.595349 0
M  V30 34 H 3.091080 -2.747928 1.165175 0
M  V30 35 H 4.124205 -2.036333 -0.070532 0
M  V30 36 H 4.289269 -1.623828 2.650178 0
M  V30 37 H 4.244639 0.640421 2.788713 0
M  V30 38 H 4.728569 0.813828 1.072129 0
M  V30 39 H 2.030076 0.299257 2.307390 0
M  V30 40 H 0.968062 2.238382 2.364726 0
M  V30 41 H 0.439893 4.448271 1.359386 0
M  V30 42 H 2.978870 3.642234 -1.955461 0
M  V30 43 H 3.522514 1.397560 -0.945475 0
M  V30 44 H -1.486896 -2.255901 -1.972177 0
M  V30 45 H -3.688077 -3.296033 -1.665645 0
M  V30 46 H -4.948208 -5.192971 -1.168941 0
M  V30 47 H -7.519390 -4.905110 2.084393 0
M  V30 48 H -5.424284 -3.398405 2.689473 0
M  V30 49 H -2.898999 -3.466656 2.553989 0
M  V30 END ATOM
M  V30 BEGIN BOND
M  V30 1 2 1 2
M  V30 2 1 2 3
M  V30 3 1 3 4
M  V30 4 1 4 5
M  V30 5 1 5 6
M  V30 6 1 6 7
M  V30 7 1 7 8
M  V30 8 1 8 9
M  V30 9 1 9 10
M  V30 10 2 10 11
M  V30 11 1 11 12
M  V30 12 2 12 13
M  V30 13 1 13 14
M  V30 14 1 14 15
M  V30 15 1 14 16
M  V30 16 1 14 17
M  V30 17 1 13 18
M  V30 18 2 18 19
M  V30 19 2 4 20
M  V30 20 1 20 21
M  V30 21 2 21 22
M  V30 22 1 22 23
M  V30 23 2 23 24
M  V30 24 1 24 25
M  V30 25 1 25 26
M  V30 26 2 26 27
M  V30 27 1 27 28
M  V30 28 1 28 29
M  V30 29 1 24 30
M  V30 30 2 30 31
M  V30 31 1 31 2
M  V30 32 1 9 5
M  V30 33 1 19 10
M  V30 34 1 31 21
M  V30 35 2 29 25
M  V30 36 1 3 32
M  V30 37 1 5 33 CFG=3
M  V30 38 1 6 34
M  V30 39 1 6 35
M  V30 40 1 7 36
M  V30 41 1 8 37
M  V30 42 1 8 38
M  V30 43 1 9 39 CFG=1
M  V30 44 1 11 40
M  V30 45 1 12 41
M  V30 46 1 18 42
M  V30 47 1 19 43
M  V30 48 1 22 44
M  V30 49 1 23 45
M  V30 50 1 26 46
M  V30 51 1 28 47
M  V30 52 1 29 48
M  V30 53 1 30 49
M  V30 END BOND
M  V30 END CTAB
M  END
>  <Dataset>  (865) 
ChEMBL_Kinases

>  <Ligand_Instance>  (865) 
nan

>  <PDB_ID>  (865) 
nan

>  <Standardized_SMILES>  (865) 
O=c1[nH]c([C@@H]2CNC[C@H]2c2ccc(C(F)(F)F)cc2)nc2ccc(-c3cn[nH]c3)cc12

>  <Name>  (865) 
nan

>  <Pocket>  (865) 
nan

>  <ATP_Site>  (865) 
nan

>  <Peripheral>  (865) 
nan

>  <Num_H_Atoms_ProtBoundConf>  (865) 
nan

>  <Num_Resolved_Atoms>  (865) 
nan

>  <Num_Not_Resolved_Atoms>  (865) 
nan

$$$$
CHEMBL2333900
     RDKit          3D

  0  0  0  0  0  0  0  0  0  0999 V3000
M  V30 BEGIN CTAB
M  V30 COUNTS 63 68 0 0 0
M  V30 BEGIN ATOM
M  V30 1 C 3.063532 1.528985 5.490428 0
M  V30 2 O 3.561051 0.644895 4.488404 0
M  V30 3 C 2.823729 0.599629 3.287853 0
M  V30 4 C 1.702087 1.388181 3.157923 0
M  V30 5 C 1.037133 1.284537 1.952733 0
M  V30 6 C 1.407697 0.471424 0.903667 0
M  V30 7 C 0.634665 0.414061 -0.359998 0 CFG=2
M  V30 8 C 0.389939 1.809968 -0.909681 0
M  V30 9 N -0.683499 1.586833 -1.840802 0
M  V30 10 C -1.409715 2.783165 -2.208773 0
M  V30 11 C -0.564998 3.822767 -2.834608 0
M  V30 12 C -0.342499 3.868824 -4.211900 0
M  V30 13 C 0.457841 4.907024 -4.603100 0
M  V30 14 C 1.030050 5.856360 -3.801313 0
M  V30 15 C 0.775598 5.759462 -2.458225 0
M  V30 16 C -0.025793 4.738373 -1.968189 0
M  V30 17 C -1.543670 0.571226 -1.301310 0
M  V30 18 C -0.797439 -0.010182 -0.117872 0 CFG=1
M  V30 19 C -0.973037 -1.469216 0.036989 0
M  V30 20 N -1.581338 -1.892860 1.176263 0
M  V30 21 C -1.776396 -3.231239 1.389982 0
M  V30 22 C -2.387440 -3.724420 2.524285 0
M  V30 23 C -2.540635 -5.090765 2.651362 0
M  V30 24 C -2.115993 -5.999616 1.705411 0
M  V30 25 C -2.268859 -7.445266 1.823800 0
M  V30 26 C -2.440197 -8.325217 0.775989 0
M  V30 27 N -2.540963 -9.557378 1.301544 0
M  V30 28 N -2.445839 -9.530087 2.622573 0
M  V30 29 C -2.275155 -8.219137 2.964893 0
M  V30 30 C -1.497250 -5.520541 0.554184 0
M  V30 31 C -1.344054 -4.155628 0.426534 0
M  V30 32 C -0.745675 -3.583141 -0.675374 0
M  V30 33 O -0.354316 -4.418738 -1.547477 0
M  V30 34 N -0.528300 -2.284393 -0.938407 0
M  V30 35 C 2.549178 -0.301767 1.092676 0
M  V30 36 C 3.287181 -0.261242 2.283280 0
M  V30 37 H 2.052156 1.252104 5.847763 0
M  V30 38 H 2.972651 2.576562 5.103299 0
M  V30 39 H 3.757230 1.551350 6.355329 0
M  V30 40 H 1.378587 2.037281 3.949915 0
M  V30 41 H 0.146457 1.927261 1.877973 0
M  V30 42 H 1.167313 -0.243974 -1.044864 0
M  V30 43 H 0.069177 2.507112 -0.112648 0
M  V30 44 H 1.287093 2.138426 -1.458249 0
M  V30 45 H -2.225410 2.444647 -2.891376 0
M  V30 46 H -1.933782 3.153458 -1.302440 0
M  V30 47 H -0.781972 3.131724 -4.865229 0
M  V30 48 H 0.682282 5.013524 -5.675936 0
M  V30 49 H 1.648066 6.647419 -4.158269 0
M  V30 50 H 1.218129 6.503937 -1.782752 0
M  V30 51 H -0.164094 4.751648 -0.901302 0
M  V30 52 H -1.807459 -0.210014 -2.046654 0
M  V30 53 H -2.494414 1.060643 -0.997746 0
M  V30 54 H -1.160175 0.562249 0.760885 0
M  V30 55 H -2.731167 -3.049908 3.282965 0
M  V30 56 H -3.017602 -5.476745 3.534078 0
M  V30 57 H -2.482216 -8.063811 -0.261596 0
M  V30 58 H -2.484364 -10.304449 3.319886 0
M  V30 59 H -2.165663 -7.875670 3.984875 0
M  V30 60 H -1.129181 -6.171010 -0.249921 0
M  V30 61 H -0.071824 -1.966134 -1.794452 0
M  V30 62 H 2.906453 -0.971524 0.308272 0
M  V30 63 H 4.171643 -0.873555 2.404743 0
M  V30 END ATOM
M  V30 BEGIN BOND
M  V30 1 1 1 2
M  V30 2 1 2 3
M  V30 3 2 3 4
M  V30 4 1 4 5
M  V30 5 2 5 6
M  V30 6 1 6 7
M  V30 7 1 7 8
M  V30 8 1 8 9
M  V30 9 1 9 10
M  V30 10 1 10 11
M  V30 11 2 11 12
M  V30 12 1 12 13
M  V30 13 2 13 14
M  V30 14 1 14 15
M  V30 15 2 15 16
M  V30 16 1 9 17
M  V30 17 1 17 18
M  V30 18 1 18 19
M  V30 19 2 19 20
M  V30 20 1 20 21
M  V30 21 2 21 22
M  V30 22 1 22 23
M  V30 23 2 23 24
M  V30 24 1 24 25
M  V30 25 1 25 26
M  V30 26 2 26 27
M  V30 27 1 27 28
M  V30 28 1 28 29
M  V30 29 1 24 30
M  V30 30 2 30 31
M  V30 31 1 31 32
M  V30 32 2 32 33
M  V30 33 1 32 34
M  V30 34 1 6 35
M  V30 35 2 35 36
M  V30 36 1 36 3
M  V30 37 1 18 7
M  V30 38 1 34 19
M  V30 39 1 16 11
M  V30 40 1 31 21
M  V30 41 2 29 25
M  V30 42 1 1 37
M  V30 43 1 1 38
M  V30 44 1 1 39
M  V30 45 1 4 40
M  V30 46 1 5 41
M  V30 47 1 7 42 CFG=3
M  V30 48 1 8 43
M  V30 49 1 8 44
M  V30 50 1 10 45
M  V30 51 1 10 46
M  V30 52 1 12 47
M  V30 53 1 13 48
M  V30 54 1 14 49
M  V30 55 1 15 50
M  V30 56 1 16 51
M  V30 57 1 17 52
M  V30 58 1 17 53
M  V30 59 1 18 54 CFG=1
M  V30 60 1 22 55
M  V30 61 1 23 56
M  V30 62 1 26 57
M  V30 63 1 28 58
M  V30 64 1 29 59
M  V30 65 1 30 60
M  V30 66 1 34 61
M  V30 67 1 35 62
M  V30 68 1 36 63
M  V30 END BOND
M  V30 END CTAB
M  END
>  <Dataset>  (866) 
ChEMBL_Kinases

>  <Ligand_Instance>  (866) 
nan

>  <PDB_ID>  (866) 
nan

>  <Standardized_SMILES>  (866) 
COc1ccc([C@@H]2CN(Cc3ccccc3)C[C@H]2c2nc3ccc(-c4cn[nH]c4)cc3c(=O)[nH]2)cc1

>  <Name>  (866) 
nan

>  <Pocket>  (866) 
nan

>  <ATP_Site>  (866) 
nan

>  <Peripheral>  (866) 
nan

>  <Num_H_Atoms_ProtBoundConf>  (866) 
nan

>  <Num_Resolved_Atoms>  (866) 
nan

>  <Num_Not_Resolved_Atoms>  (866) 
nan

$$$$
CHEMBL2333914
     RDKit          3D

  0  0  0  0  0  0  0  0  0  0999 V3000
M  V30 BEGIN CTAB
M  V30 COUNTS 42 45 0 0 0
M  V30 BEGIN ATOM
M  V30 1 N 1.663715 -4.414309 -0.794525 0
M  V30 2 C 1.402908 -3.044431 -1.198238 0 CFG=2
M  V30 3 C 2.587361 -2.412335 -1.828346 0
M  V30 4 C 2.386380 -1.026273 -2.256168 0
M  V30 5 C 1.789930 -0.808860 -3.506580 0
M  V30 6 C 1.549547 0.430455 -4.062960 0
M  V30 7 C 1.917034 1.544172 -3.349413 0
M  V30 8 C 2.503120 1.385815 -2.124095 0
M  V30 9 F 2.862144 2.488216 -1.427836 0
M  V30 10 C 2.721588 0.147039 -1.614092 0
M  V30 11 C 0.825276 -2.266704 -0.089703 0
M  V30 12 N 0.998025 -1.066347 0.475590 0
M  V30 13 C 0.318383 -0.572894 1.508895 0
M  V30 14 C 0.697282 0.694435 1.896126 0
M  V30 15 C 0.002456 1.245897 2.981931 0
M  V30 16 C -1.007279 0.497351 3.591831 0
M  V30 17 C -1.738710 1.068849 4.729154 0
M  V30 18 C -3.045984 0.871770 5.129003 0
M  V30 19 N -3.250456 1.628601 6.247389 0
M  V30 20 N -2.105128 2.265838 6.519850 0
M  V30 21 C -1.153298 1.956574 5.621795 0
M  V30 22 C -1.337242 -0.782244 3.144724 0
M  V30 23 C -0.668426 -1.346847 2.078492 0
M  V30 24 C -0.902107 -2.597953 1.546569 0
M  V30 25 O -1.813365 -3.237173 2.119743 0
M  V30 26 N -0.158938 -3.021753 0.488958 0
M  V30 27 H 2.418003 -4.781358 -1.410351 0
M  V30 28 H 0.807374 -4.972474 -0.992811 0
M  V30 29 H 0.614401 -3.094393 -2.016788 0
M  V30 30 H 3.481276 -2.517605 -1.171304 0
M  V30 31 H 2.848897 -2.993420 -2.763032 0
M  V30 32 H 1.485910 -1.684832 -4.099036 0
M  V30 33 H 1.079015 0.484247 -5.044006 0
M  V30 34 H 1.712882 2.496294 -3.816556 0
M  V30 35 H 3.194513 0.053533 -0.664186 0
M  V30 36 H 1.480005 1.247479 1.406373 0
M  V30 37 H 0.257342 2.238920 3.330214 0
M  V30 38 H -3.758179 0.216902 4.612910 0
M  V30 39 H -2.036345 2.907005 7.344318 0
M  V30 40 H -0.158844 2.356530 5.652706 0
M  V30 41 H -2.115035 -1.379482 3.601605 0
M  V30 42 H -0.490536 -3.996780 0.233563 0
M  V30 END ATOM
M  V30 BEGIN BOND
M  V30 1 1 1 2
M  V30 2 1 2 3
M  V30 3 1 3 4
M  V30 4 2 4 5
M  V30 5 1 5 6
M  V30 6 2 6 7
M  V30 7 1 7 8
M  V30 8 1 8 9
M  V30 9 2 8 10
M  V30 10 1 2 11
M  V30 11 2 11 12
M  V30 12 1 12 13
M  V30 13 2 13 14
M  V30 14 1 14 15
M  V30 15 2 15 16
M  V30 16 1 16 17
M  V30 17 1 17 18
M  V30 18 2 18 19
M  V30 19 1 19 20
M  V30 20 1 20 21
M  V30 21 1 16 22
M  V30 22 2 22 23
M  V30 23 1 23 24
M  V30 24 2 24 25
M  V30 25 1 24 26
M  V30 26 1 10 4
M  V30 27 1 26 11
M  V30 28 1 23 13
M  V30 29 2 21 17
M  V30 30 1 1 27
M  V30 31 1 1 28
M  V30 32 1 2 29 CFG=3
M  V30 33 1 3 30
M  V30 34 1 3 31
M  V30 35 1 5 32
M  V30 36 1 6 33
M  V30 37 1 7 34
M  V30 38 1 10 35
M  V30 39 1 14 36
M  V30 40 1 15 37
M  V30 41 1 18 38
M  V30 42 1 20 39
M  V30 43 1 21 40
M  V30 44 1 22 41
M  V30 45 1 26 42
M  V30 END BOND
M  V30 END CTAB
M  END
>  <Dataset>  (867) 
ChEMBL_Kinases

>  <Ligand_Instance>  (867) 
nan

>  <PDB_ID>  (867) 
nan

>  <Standardized_SMILES>  (867) 
N[C@H](Cc1cccc(F)c1)c1nc2ccc(-c3cn[nH]c3)cc2c(=O)[nH]1

>  <Name>  (867) 
nan

>  <Pocket>  (867) 
nan

>  <ATP_Site>  (867) 
nan

>  <Peripheral>  (867) 
nan

>  <Num_H_Atoms_ProtBoundConf>  (867) 
nan

>  <Num_Resolved_Atoms>  (867) 
nan

>  <Num_Not_Resolved_Atoms>  (867) 
nan

$$$$
CHEMBL2333902
     RDKit          3D

  0  0  0  0  0  0  0  0  0  0999 V3000
M  V30 BEGIN CTAB
M  V30 COUNTS 59 64 0 0 0
M  V30 BEGIN ATOM
M  V30 1 O 1.390272 -0.386483 -2.968182 0
M  V30 2 C 1.115411 -0.984745 -1.872640 0
M  V30 3 N 0.826271 -0.359256 -0.712442 0
M  V30 4 C 0.549532 -1.085749 0.389893 0
M  V30 5 C 0.229807 -0.378074 1.670656 0 CFG=2
M  V30 6 C 1.212440 -0.713353 2.764181 0
M  V30 7 N 0.487435 -0.340635 3.930344 0
M  V30 8 C 0.885151 0.840945 4.600694 0
M  V30 9 C 0.825292 2.094098 3.848172 0
M  V30 10 C 1.839708 2.643173 3.093214 0
M  V30 11 C 1.765821 3.827414 2.388287 0
M  V30 12 C 0.588007 4.537514 2.428500 0
M  V30 13 C -0.463973 4.042915 3.165428 0
M  V30 14 C -0.341698 2.853737 3.853720 0
M  V30 15 C -0.899381 -0.539902 3.705322 0
M  V30 16 C -1.085066 -0.792589 2.210911 0 CFG=1
M  V30 17 C -2.259786 -0.051333 1.769362 0
M  V30 18 C -2.336847 1.250036 1.313740 0
M  V30 19 C -3.502631 1.866175 0.916639 0
M  V30 20 C -4.690042 1.200288 0.952721 0
M  V30 21 C -4.673580 -0.101082 1.398806 0
M  V30 22 C -3.502779 -0.699495 1.790702 0
M  V30 23 F -3.553590 -1.987962 2.221565 0
M  V30 24 N 0.553306 -2.432974 0.366326 0
M  V30 25 C 0.838842 -3.119914 -0.779602 0
M  V30 26 C 0.851710 -4.500182 -0.838034 0
M  V30 27 C 1.145945 -5.169592 -2.016875 0
M  V30 28 C 1.435103 -4.437599 -3.167779 0
M  V30 29 C 1.760341 -5.072666 -4.461073 0
M  V30 30 C 2.411465 -6.275892 -4.643670 0
M  V30 31 N 2.473927 -6.428767 -5.982110 0
M  V30 32 N 1.902238 -5.393498 -6.574483 0
M  V30 33 C 1.427192 -4.494609 -5.690389 0
M  V30 34 C 1.421791 -3.053491 -3.107739 0
M  V30 35 C 1.127945 -2.384626 -1.930994 0
M  V30 36 H 0.832574 0.694927 -0.732020 0
M  V30 37 H 0.257465 0.711190 1.541583 0
M  V30 38 H 2.160040 -0.151927 2.699062 0
M  V30 39 H 1.428838 -1.799864 2.696269 0
M  V30 40 H 0.276899 0.893462 5.550551 0
M  V30 41 H 1.926814 0.647590 4.994748 0
M  V30 42 H 2.776843 2.117093 3.040905 0
M  V30 43 H 2.597996 4.208221 1.812013 0
M  V30 44 H 0.526559 5.460294 1.880505 0
M  V30 45 H -1.363097 4.645573 3.158917 0
M  V30 46 H -1.240939 2.586827 4.389888 0
M  V30 47 H -1.556329 0.246736 4.068661 0
M  V30 48 H -1.216376 -1.475892 4.227315 0
M  V30 49 H -1.273302 -1.882074 2.026999 0
M  V30 50 H -1.410692 1.801955 1.275854 0
M  V30 51 H -3.499315 2.884800 0.569991 0
M  V30 52 H -5.635234 1.618595 0.658240 0
M  V30 53 H -5.612204 -0.651980 1.435823 0
M  V30 54 H 0.625219 -5.078400 0.062108 0
M  V30 55 H 1.158713 -6.249606 -2.073433 0
M  V30 56 H 2.761261 -6.895585 -3.827915 0
M  V30 57 H 1.829800 -5.289343 -7.621641 0
M  V30 58 H 0.916254 -3.559784 -5.858825 0
M  V30 59 H 1.645506 -2.469571 -3.999224 0
M  V30 END ATOM
M  V30 BEGIN BOND
M  V30 1 2 1 2
M  V30 2 1 2 3
M  V30 3 1 3 4
M  V30 4 1 4 5
M  V30 5 1 5 6
M  V30 6 1 6 7
M  V30 7 1 7 8
M  V30 8 1 8 9
M  V30 9 2 9 10
M  V30 10 1 10 11
M  V30 11 2 11 12
M  V30 12 1 12 13
M  V30 13 2 13 14
M  V30 14 1 7 15
M  V30 15 1 15 16
M  V30 16 1 16 17
M  V30 17 2 17 18
M  V30 18 1 18 19
M  V30 19 2 19 20
M  V30 20 1 20 21
M  V30 21 2 21 22
M  V30 22 1 22 23
M  V30 23 2 4 24
M  V30 24 1 24 25
M  V30 25 2 25 26
M  V30 26 1 26 27
M  V30 27 2 27 28
M  V30 28 1 28 29
M  V30 29 1 29 30
M  V30 30 2 30 31
M  V30 31 1 31 32
M  V30 32 1 32 33
M  V30 33 1 28 34
M  V30 34 2 34 35
M  V30 35 1 35 2
M  V30 36 1 16 5
M  V30 37 1 22 17
M  V30 38 1 35 25
M  V30 39 1 14 9
M  V30 40 2 33 29
M  V30 41 1 3 36
M  V30 42 1 5 37 CFG=3
M  V30 43 1 6 38
M  V30 44 1 6 39
M  V30 45 1 8 40
M  V30 46 1 8 41
M  V30 47 1 10 42
M  V30 48 1 11 43
M  V30 49 1 12 44
M  V30 50 1 13 45
M  V30 51 1 14 46
M  V30 52 1 15 47
M  V30 53 1 15 48
M  V30 54 1 16 49 CFG=1
M  V30 55 1 18 50
M  V30 56 1 19 51
M  V30 57 1 20 52
M  V30 58 1 21 53
M  V30 59 1 26 54
M  V30 60 1 27 55
M  V30 61 1 30 56
M  V30 62 1 32 57
M  V30 63 1 33 58
M  V30 64 1 34 59
M  V30 END BOND
M  V30 END CTAB
M  END
>  <Dataset>  (868) 
ChEMBL_Kinases

>  <Ligand_Instance>  (868) 
nan

>  <PDB_ID>  (868) 
nan

>  <Standardized_SMILES>  (868) 
O=c1[nH]c([C@@H]2CN(Cc3ccccc3)C[C@H]2c2ccccc2F)nc2ccc(-c3cn[nH]c3)cc12

>  <Name>  (868) 
nan

>  <Pocket>  (868) 
nan

>  <ATP_Site>  (868) 
nan

>  <Peripheral>  (868) 
nan

>  <Num_H_Atoms_ProtBoundConf>  (868) 
nan

>  <Num_Resolved_Atoms>  (868) 
nan

>  <Num_Not_Resolved_Atoms>  (868) 
nan

$$$$
CHEMBL2333903
     RDKit          3D

  0  0  0  0  0  0  0  0  0  0999 V3000
M  V30 BEGIN CTAB
M  V30 COUNTS 56 60 0 0 0
M  V30 BEGIN ATOM
M  V30 1 O 3.570040 0.449589 -1.004979 0
M  V30 2 C 3.262345 -0.144067 0.051953 0
M  V30 3 C 3.992250 -0.922071 1.088784 0
M  V30 4 C 4.947909 -0.009155 1.752390 0
M  V30 5 C 4.446421 0.606796 2.903814 0
M  V30 6 C 5.132193 1.496993 3.699727 0
M  V30 7 C 6.434566 1.764090 3.261812 0
M  V30 8 N 6.963826 1.192677 2.153540 0
M  V30 9 C 6.226550 0.316608 1.410035 0
M  V30 10 N 1.839630 -0.000716 0.258341 0
M  V30 11 C 0.713154 0.618030 -0.406022 0 CFG=2
M  V30 12 C 0.229304 1.845980 0.283828 0
M  V30 13 C -0.215149 1.662745 1.680229 0
M  V30 14 C 0.815115 1.776199 2.611617 0
M  V30 15 C 0.661416 1.656150 3.974310 0
M  V30 16 C -0.603581 1.402727 4.500738 0
M  V30 17 Cl -0.937337 1.228543 6.197045 0
M  V30 18 C -1.628408 1.290215 3.579442 0
M  V30 19 C -1.456621 1.412987 2.219832 0
M  V30 20 C -0.377627 -0.269114 -0.760290 0
M  V30 21 N -1.714236 -0.259397 -0.656082 0
M  V30 22 C -2.549031 -1.205939 -1.064361 0
M  V30 23 C -3.887139 -0.981107 -0.852258 0
M  V30 24 C -4.769315 -1.968039 -1.277895 0
M  V30 25 C -4.285970 -3.129209 -1.893094 0
M  V30 26 C -5.144967 -4.205957 -2.367306 0
M  V30 27 C -6.368812 -4.643120 -1.846241 0
M  V30 28 N -6.819612 -5.676724 -2.617071 0
M  V30 29 N -5.920056 -5.881804 -3.580854 0
M  V30 30 C -4.892594 -5.019297 -3.471334 0
M  V30 31 C -2.912231 -3.307005 -2.083857 0
M  V30 32 C -2.035582 -2.330567 -1.662216 0
M  V30 33 C -0.653243 -2.425736 -1.811658 0
M  V30 34 O -0.237912 -3.470622 -2.361487 0
M  V30 35 N 0.118378 -1.395837 -1.356760 0
M  V30 36 H 4.585226 -1.703926 0.565248 0
M  V30 37 H 3.322240 -1.431924 1.778525 0
M  V30 38 H 3.425479 0.404343 3.259014 0
M  V30 39 H 4.707159 1.940727 4.570380 0
M  V30 40 H 7.012528 2.466411 3.867688 0
M  V30 41 H 6.583345 -0.175667 0.512589 0
M  V30 42 H 1.364845 -0.426100 1.105478 0
M  V30 43 H 1.155459 0.983446 -1.393906 0
M  V30 44 H 1.016748 2.657930 0.252089 0
M  V30 45 H -0.614875 2.322306 -0.303508 0
M  V30 46 H 1.862682 1.975339 2.332492 0
M  V30 47 H 1.470357 1.746766 4.686056 0
M  V30 48 H -2.666382 1.093721 3.854853 0
M  V30 49 H -2.237466 1.335943 1.508055 0
M  V30 50 H -4.347893 -0.124335 -0.389451 0
M  V30 51 H -5.834206 -1.861664 -1.143820 0
M  V30 52 H -6.784352 -4.145257 -0.955770 0
M  V30 53 H -5.943027 -6.589957 -4.345333 0
M  V30 54 H -4.015662 -4.922980 -4.084431 0
M  V30 55 H -2.504474 -4.196339 -2.558373 0
M  V30 56 H 1.122095 -1.629492 -1.548707 0
M  V30 END ATOM
M  V30 BEGIN BOND
M  V30 1 2 1 2
M  V30 2 1 2 3
M  V30 3 1 3 4
M  V30 4 2 4 5
M  V30 5 1 5 6
M  V30 6 2 6 7
M  V30 7 1 7 8
M  V30 8 2 8 9
M  V30 9 1 2 10
M  V30 10 1 10 11
M  V30 11 1 11 12
M  V30 12 1 12 13
M  V30 13 2 13 14
M  V30 14 1 14 15
M  V30 15 2 15 16
M  V30 16 1 16 17
M  V30 17 1 16 18
M  V30 18 2 18 19
M  V30 19 1 11 20
M  V30 20 2 20 21
M  V30 21 1 21 22
M  V30 22 2 22 23
M  V30 23 1 23 24
M  V30 24 2 24 25
M  V30 25 1 25 26
M  V30 26 1 26 27
M  V30 27 2 27 28
M  V30 28 1 28 29
M  V30 29 1 29 30
M  V30 30 1 25 31
M  V30 31 2 31 32
M  V30 32 1 32 33
M  V30 33 2 33 34
M  V30 34 1 33 35
M  V30 35 1 9 4
M  V30 36 1 19 13
M  V30 37 1 35 20
M  V30 38 1 32 22
M  V30 39 2 30 26
M  V30 40 1 3 36
M  V30 41 1 3 37
M  V30 42 1 5 38
M  V30 43 1 6 39
M  V30 44 1 7 40
M  V30 45 1 9 41
M  V30 46 1 10 42
M  V30 47 1 11 43 CFG=3
M  V30 48 1 12 44
M  V30 49 1 12 45
M  V30 50 1 14 46
M  V30 51 1 15 47
M  V30 52 1 18 48
M  V30 53 1 19 49
M  V30 54 1 23 50
M  V30 55 1 24 51
M  V30 56 1 27 52
M  V30 57 1 29 53
M  V30 58 1 30 54
M  V30 59 1 31 55
M  V30 60 1 35 56
M  V30 END BOND
M  V30 END CTAB
M  END
>  <Dataset>  (869) 
ChEMBL_Kinases

>  <Ligand_Instance>  (869) 
nan

>  <PDB_ID>  (869) 
nan

>  <Standardized_SMILES>  (869) 
O=C(Cc1cccnc1)N[C@H](Cc1ccc(Cl)cc1)c1nc2ccc(-c3cn[nH]c3)cc2c(=O)[nH]1

>  <Name>  (869) 
nan

>  <Pocket>  (869) 
nan

>  <ATP_Site>  (869) 
nan

>  <Peripheral>  (869) 
nan

>  <Num_H_Atoms_ProtBoundConf>  (869) 
nan

>  <Num_Resolved_Atoms>  (869) 
nan

>  <Num_Not_Resolved_Atoms>  (869) 
nan

$$$$
CHEMBL2333904
     RDKit          3D

  0  0  0  0  0  0  0  0  0  0999 V3000
M  V30 BEGIN CTAB
M  V30 COUNTS 48 51 0 0 0
M  V30 BEGIN ATOM
M  V30 1 C 1.146978 1.582600 -2.561803 0
M  V30 2 C 1.229122 0.387442 -1.636089 0
M  V30 3 N 1.620768 0.868708 -0.333302 0
M  V30 4 C 1.775293 -0.164728 0.652606 0 CFG=2
M  V30 5 C 2.878336 -1.134236 0.339734 0
M  V30 6 C 4.175452 -0.384592 0.267846 0
M  V30 7 C 4.924622 -0.224191 1.413470 0
M  V30 8 C 6.133134 0.434696 1.527206 0
M  V30 9 C 6.637828 0.987741 0.369423 0
M  V30 10 Cl 8.152431 1.836064 0.416289 0
M  V30 11 C 5.925987 0.853500 -0.797813 0
M  V30 12 C 4.702046 0.180290 -0.887017 0
M  V30 13 C 0.479608 -0.823568 0.957483 0
M  V30 14 N -0.512161 0.108287 1.111094 0
M  V30 15 C -1.765221 -0.359383 1.399253 0
M  V30 16 C -2.811095 0.548523 1.565299 0
M  V30 17 C -4.080146 0.034866 1.859183 0
M  V30 18 C -4.314219 -1.322125 1.985485 0
M  V30 19 C -5.687018 -1.771521 2.298133 0
M  V30 20 C -6.820002 -1.109746 1.875195 0
M  V30 21 N -7.930650 -1.741184 2.306466 0
M  V30 22 N -7.519670 -2.793154 2.996384 0
M  V30 23 C -6.157214 -2.849177 3.015957 0
M  V30 24 C -3.274702 -2.215535 1.819868 0
M  V30 25 C -2.004483 -1.712349 1.526307 0
M  V30 26 C -0.966073 -2.637665 1.362279 0
M  V30 27 O -1.158970 -3.858597 1.471980 0
M  V30 28 N 0.245115 -2.140413 1.081198 0
M  V30 29 H 1.595782 2.495648 -2.083510 0
M  V30 30 H 0.108822 1.880864 -2.808986 0
M  V30 31 H 1.737888 1.430910 -3.488794 0
M  V30 32 H 1.829624 -0.423633 -2.040125 0
M  V30 33 H 0.182889 0.025457 -1.541054 0
M  V30 34 H 1.110283 1.690327 -0.019604 0
M  V30 35 H 2.084437 0.358709 1.589446 0
M  V30 36 H 2.710055 -1.749530 -0.564304 0
M  V30 37 H 2.965115 -1.820326 1.210163 0
M  V30 38 H 4.561662 -0.648579 2.359832 0
M  V30 39 H 6.655914 0.516864 2.455591 0
M  V30 40 H 6.331726 1.296979 -1.721296 0
M  V30 41 H 4.142957 0.073061 -1.802099 0
M  V30 42 H -2.636973 1.609498 1.469120 0
M  V30 43 H -4.854968 0.791665 1.977850 0
M  V30 44 H -6.816381 -0.199110 1.272442 0
M  V30 45 H -8.081510 -3.516202 3.482003 0
M  V30 46 H -5.491133 -3.561425 3.478902 0
M  V30 47 H -3.486404 -3.264739 1.924380 0
M  V30 48 H 1.069145 -2.734207 0.942654 0
M  V30 END ATOM
M  V30 BEGIN BOND
M  V30 1 1 1 2
M  V30 2 1 2 3
M  V30 3 1 3 4
M  V30 4 1 4 5
M  V30 5 1 5 6
M  V30 6 2 6 7
M  V30 7 1 7 8
M  V30 8 2 8 9
M  V30 9 1 9 10
M  V30 10 1 9 11
M  V30 11 2 11 12
M  V30 12 1 4 13
M  V30 13 2 13 14
M  V30 14 1 14 15
M  V30 15 2 15 16
M  V30 16 1 16 17
M  V30 17 2 17 18
M  V30 18 1 18 19
M  V30 19 1 19 20
M  V30 20 2 20 21
M  V30 21 1 21 22
M  V30 22 1 22 23
M  V30 23 1 18 24
M  V30 24 2 24 25
M  V30 25 1 25 26
M  V30 26 2 26 27
M  V30 27 1 26 28
M  V30 28 1 12 6
M  V30 29 1 28 13
M  V30 30 1 25 15
M  V30 31 2 23 19
M  V30 32 1 1 29
M  V30 33 1 1 30
M  V30 34 1 1 31
M  V30 35 1 2 32
M  V30 36 1 2 33
M  V30 37 1 3 34
M  V30 38 1 4 35 CFG=1
M  V30 39 1 5 36
M  V30 40 1 5 37
M  V30 41 1 7 38
M  V30 42 1 8 39
M  V30 43 1 11 40
M  V30 44 1 12 41
M  V30 45 1 16 42
M  V30 46 1 17 43
M  V30 47 1 20 44
M  V30 48 1 22 45
M  V30 49 1 23 46
M  V30 50 1 24 47
M  V30 51 1 28 48
M  V30 END BOND
M  V30 END CTAB
M  END
>  <Dataset>  (870) 
ChEMBL_Kinases

>  <Ligand_Instance>  (870) 
nan

>  <PDB_ID>  (870) 
nan

>  <Standardized_SMILES>  (870) 
CCN[C@H](Cc1ccc(Cl)cc1)c1nc2ccc(-c3cn[nH]c3)cc2c(=O)[nH]1

>  <Name>  (870) 
nan

>  <Pocket>  (870) 
nan

>  <ATP_Site>  (870) 
nan

>  <Peripheral>  (870) 
nan

>  <Num_H_Atoms_ProtBoundConf>  (870) 
nan

>  <Num_Resolved_Atoms>  (870) 
nan

>  <Num_Not_Resolved_Atoms>  (870) 
nan

$$$$
CHEMBL2333907
     RDKit          3D

  0  0  0  0  0  0  0  0  0  0999 V3000
M  V30 BEGIN CTAB
M  V30 COUNTS 46 49 0 0 0
M  V30 BEGIN ATOM
M  V30 1 C 1.236988 -4.069158 -0.438231 0
M  V30 2 O 1.015546 -2.761048 -0.016566 0
M  V30 3 C 1.843198 -1.680800 -0.164140 0
M  V30 4 C 3.091046 -1.688267 -0.777978 0
M  V30 5 C 3.819667 -0.517531 -0.855216 0
M  V30 6 C 5.129998 -0.532872 -1.501333 0
M  V30 7 C 5.619420 -1.289158 -2.546860 0
M  V30 8 N 6.897056 -0.971215 -2.819359 0
M  V30 9 N 7.213711 -0.017471 -1.949179 0
M  V30 10 C 6.196738 0.292759 -1.128515 0
M  V30 11 C 3.370486 0.686207 -0.346902 0
M  V30 12 C 2.128754 0.667557 0.257679 0
M  V30 13 C 1.611409 1.831893 0.791002 0
M  V30 14 O 2.305353 2.886200 0.702859 0
M  V30 15 N 0.403150 1.833375 1.384965 0
M  V30 16 C -0.347518 0.721512 1.487182 0
M  V30 17 C -1.690085 0.671188 2.136870 0 CFG=1
M  V30 18 N -2.546032 1.775661 1.757055 0
M  V30 19 C -2.403681 -0.587665 1.696262 0
M  V30 20 C -3.754940 -0.731710 2.290837 0
M  V30 21 C -3.839713 -1.411889 3.504883 0
M  V30 22 C -5.061181 -1.586375 4.120611 0
M  V30 23 C -6.223024 -1.095889 3.555259 0
M  V30 24 C -6.155184 -0.417269 2.348165 0
M  V30 25 F -7.274658 0.064743 1.788264 0
M  V30 26 C -4.930340 -0.253029 1.749544 0
M  V30 27 N 0.158982 -0.413133 0.966258 0
M  V30 28 C 1.359500 -0.475907 0.361404 0
M  V30 29 H 1.054027 -4.727167 0.447478 0
M  V30 30 H 2.259450 -4.282309 -0.766659 0
M  V30 31 H 0.544921 -4.300712 -1.270384 0
M  V30 32 H 3.427734 -2.627909 -1.168210 0
M  V30 33 H 4.990068 -2.033746 -3.042784 0
M  V30 34 H 8.178140 0.424820 -1.937989 0
M  V30 35 H 6.235236 1.032968 -0.353166 0
M  V30 36 H 3.943166 1.601611 -0.408241 0
M  V30 37 H 0.040631 2.713268 1.773649 0
M  V30 38 H -1.616953 0.660923 3.244117 0
M  V30 39 H -1.992312 2.654212 1.863876 0
M  V30 40 H -2.881665 1.745830 0.777073 0
M  V30 41 H -1.765200 -1.449586 1.890021 0
M  V30 42 H -2.532662 -0.509859 0.589721 0
M  V30 43 H -2.980637 -1.828783 4.018082 0
M  V30 44 H -5.135709 -2.104202 5.047158 0
M  V30 45 H -7.203878 -1.216778 4.016652 0
M  V30 46 H -4.850708 0.270240 0.812688 0
M  V30 END ATOM
M  V30 BEGIN BOND
M  V30 1 1 1 2
M  V30 2 1 2 3
M  V30 3 2 3 4
M  V30 4 1 4 5
M  V30 5 1 5 6
M  V30 6 1 6 7
M  V30 7 2 7 8
M  V30 8 1 8 9
M  V30 9 1 9 10
M  V30 10 2 5 11
M  V30 11 1 11 12
M  V30 12 1 12 13
M  V30 13 2 13 14
M  V30 14 1 13 15
M  V30 15 1 15 16
M  V30 16 1 16 17
M  V30 17 1 17 18
M  V30 18 1 17 19
M  V30 19 1 19 20
M  V30 20 2 20 21
M  V30 21 1 21 22
M  V30 22 2 22 23
M  V30 23 1 23 24
M  V30 24 1 24 25
M  V30 25 2 24 26
M  V30 26 2 16 27
M  V30 27 1 27 28
M  V30 28 1 28 3
M  V30 29 2 10 6
M  V30 30 2 28 12
M  V30 31 1 26 20
M  V30 32 1 1 29
M  V30 33 1 1 30
M  V30 34 1 1 31
M  V30 35 1 4 32
M  V30 36 1 7 33
M  V30 37 1 9 34
M  V30 38 1 10 35
M  V30 39 1 11 36
M  V30 40 1 15 37
M  V30 41 1 17 38 CFG=1
M  V30 42 1 18 39
M  V30 43 1 18 40
M  V30 44 1 19 41
M  V30 45 1 19 42
M  V30 46 1 21 43
M  V30 47 1 22 44
M  V30 48 1 23 45
M  V30 49 1 26 46
M  V30 END BOND
M  V30 END CTAB
M  END
>  <Dataset>  (871) 
ChEMBL_Kinases

>  <Ligand_Instance>  (871) 
nan

>  <PDB_ID>  (871) 
nan

>  <Standardized_SMILES>  (871) 
COc1cc(-c2cn[nH]c2)cc2c(=O)[nH]c([C@@H](N)Cc3cccc(F)c3)nc12

>  <Name>  (871) 
nan

>  <Pocket>  (871) 
nan

>  <ATP_Site>  (871) 
nan

>  <Peripheral>  (871) 
nan

>  <Num_H_Atoms_ProtBoundConf>  (871) 
nan

>  <Num_Resolved_Atoms>  (871) 
nan

>  <Num_Not_Resolved_Atoms>  (871) 
nan

$$$$
CHEMBL2333910
     RDKit          3D

  0  0  0  0  0  0  0  0  0  0999 V3000
M  V30 BEGIN CTAB
M  V30 COUNTS 49 52 0 0 0
M  V30 BEGIN ATOM
M  V30 1 C -0.808530 -6.950774 2.816089 0
M  V30 2 C 0.183169 -6.354098 1.818453 0
M  V30 3 O 0.320630 -4.979751 2.077807 0
M  V30 4 C 1.133730 -4.117656 1.375160 0
M  V30 5 C 1.067531 -2.807277 1.857301 0
M  V30 6 C 1.804203 -1.774716 1.298207 0
M  V30 7 C 2.617132 -2.097507 0.231210 0
M  V30 8 C 3.443098 -1.021226 -0.420450 0
M  V30 9 C 2.661827 -0.367881 -1.547780 0 CFG=2
M  V30 10 N 3.471627 0.671892 -2.170402 0
M  V30 11 C 1.433903 0.251784 -0.993526 0
M  V30 12 N 1.502167 1.396509 -0.293859 0
M  V30 13 C 0.362175 1.937615 0.199368 0
M  V30 14 C 0.310552 3.103036 0.928466 0
M  V30 15 C -0.869158 3.627062 1.416627 0
M  V30 16 C -2.061608 2.942129 1.157692 0
M  V30 17 C -3.355176 3.422792 1.634310 0
M  V30 18 C -4.420575 2.581197 1.972898 0
M  V30 19 N -5.456719 3.341892 2.370546 0
M  V30 20 N -5.114123 4.637255 2.306005 0
M  V30 21 C -3.845854 4.713797 1.862911 0
M  V30 22 C -2.027512 1.769943 0.426847 0
M  V30 23 C -0.815212 1.268004 -0.052190 0
M  V30 24 C -0.909523 0.094693 -0.765940 0
M  V30 25 O -1.987023 -0.508741 -0.990315 0
M  V30 26 N 0.260853 -0.395682 -1.231965 0
M  V30 27 C 2.715023 -3.392514 -0.283941 0
M  V30 28 C 1.962512 -4.384004 0.306613 0
M  V30 29 H -0.388749 -7.915176 3.216432 0
M  V30 30 H -1.032657 -6.245341 3.635419 0
M  V30 31 H -1.767507 -7.197134 2.334182 0
M  V30 32 H 1.140199 -6.912654 1.896331 0
M  V30 33 H -0.285729 -6.460488 0.799547 0
M  V30 34 H 0.444369 -2.473562 2.701899 0
M  V30 35 H 1.763706 -0.759640 1.658659 0
M  V30 36 H 3.752935 -0.270434 0.333455 0
M  V30 37 H 4.377830 -1.428559 -0.860640 0
M  V30 38 H 2.428636 -1.095437 -2.345919 0
M  V30 39 H 4.064731 1.085596 -1.418387 0
M  V30 40 H 2.871265 1.402589 -2.570148 0
M  V30 41 H 1.273330 3.592609 1.098217 0
M  V30 42 H -0.886690 4.532518 1.979794 0
M  V30 43 H -4.397600 1.519501 1.918796 0
M  V30 44 H -5.689432 5.475100 2.544749 0
M  V30 45 H -3.201047 5.566819 1.672921 0
M  V30 46 H -2.970738 1.251069 0.236205 0
M  V30 47 H 0.228106 -1.290674 -1.781878 0
M  V30 48 H 3.342875 -3.657664 -1.113319 0
M  V30 49 H 1.945952 -5.434258 0.003147 0
M  V30 END ATOM
M  V30 BEGIN BOND
M  V30 1 1 1 2
M  V30 2 1 2 3
M  V30 3 1 3 4
M  V30 4 2 4 5
M  V30 5 1 5 6
M  V30 6 2 6 7
M  V30 7 1 7 8
M  V30 8 1 8 9
M  V30 9 1 9 10
M  V30 10 1 9 11
M  V30 11 2 11 12
M  V30 12 1 12 13
M  V30 13 2 13 14
M  V30 14 1 14 15
M  V30 15 2 15 16
M  V30 16 1 16 17
M  V30 17 1 17 18
M  V30 18 2 18 19
M  V30 19 1 19 20
M  V30 20 1 20 21
M  V30 21 1 16 22
M  V30 22 2 22 23
M  V30 23 1 23 24
M  V30 24 2 24 25
M  V30 25 1 24 26
M  V30 26 1 7 27
M  V30 27 2 27 28
M  V30 28 1 28 4
M  V30 29 1 26 11
M  V30 30 1 23 13
M  V30 31 2 21 17
M  V30 32 1 1 29
M  V30 33 1 1 30
M  V30 34 1 1 31
M  V30 35 1 2 32
M  V30 36 1 2 33
M  V30 37 1 5 34
M  V30 38 1 6 35
M  V30 39 1 8 36
M  V30 40 1 8 37
M  V30 41 1 9 38 CFG=3
M  V30 42 1 10 39
M  V30 43 1 10 40
M  V30 44 1 14 41
M  V30 45 1 15 42
M  V30 46 1 18 43
M  V30 47 1 20 44
M  V30 48 1 21 45
M  V30 49 1 22 46
M  V30 50 1 26 47
M  V30 51 1 27 48
M  V30 52 1 28 49
M  V30 END BOND
M  V30 END CTAB
M  END
>  <Dataset>  (872) 
ChEMBL_Kinases

>  <Ligand_Instance>  (872) 
nan

>  <PDB_ID>  (872) 
nan

>  <Standardized_SMILES>  (872) 
CCOc1ccc(C[C@H](N)c2nc3ccc(-c4cn[nH]c4)cc3c(=O)[nH]2)cc1

>  <Name>  (872) 
nan

>  <Pocket>  (872) 
nan

>  <ATP_Site>  (872) 
nan

>  <Peripheral>  (872) 
nan

>  <Num_H_Atoms_ProtBoundConf>  (872) 
nan

>  <Num_Resolved_Atoms>  (872) 
nan

>  <Num_Not_Resolved_Atoms>  (872) 
nan

$$$$
CHEMBL2333911
     RDKit          3D

  0  0  0  0  0  0  0  0  0  0999 V3000
M  V30 BEGIN CTAB
M  V30 COUNTS 50 53 0 0 0
M  V30 BEGIN ATOM
M  V30 1 C -2.719295 -4.243849 -0.471441 0
M  V30 2 O -1.404174 -4.476916 -0.933641 0
M  V30 3 C -0.321510 -3.996337 -0.222950 0
M  V30 4 C -0.601917 -3.296106 0.932122 0
M  V30 5 C 0.415786 -2.780440 1.703800 0
M  V30 6 C 1.699367 -2.994613 1.273262 0
M  V30 7 C 2.788078 -2.434175 2.111579 0
M  V30 8 C 3.160611 -1.033907 1.709653 0 CFG=2
M  V30 9 N 4.224157 -0.556529 2.571236 0
M  V30 10 C 2.059524 -0.077717 1.734413 0
M  V30 11 N 1.504986 0.249297 0.550647 0
M  V30 12 C 0.477682 1.124396 0.450925 0
M  V30 13 C -0.062115 1.431843 -0.782002 0
M  V30 14 C -1.109332 2.333206 -0.806321 0
M  V30 15 C -1.607819 2.914808 0.365890 0
M  V30 16 C -2.724357 3.865078 0.258234 0
M  V30 17 C -3.669504 3.694172 -0.755658 0
M  V30 18 N -4.582960 4.694917 -0.633154 0
M  V30 19 N -4.223740 5.435030 0.390571 0
M  V30 20 C -3.100631 4.966658 0.960453 0
M  V30 21 C -1.028209 2.571695 1.587336 0
M  V30 22 C 0.023168 1.669633 1.635109 0
M  V30 23 C 0.599919 1.329447 2.864826 0
M  V30 24 O 0.177054 1.833256 3.939480 0
M  V30 25 N 1.635268 0.438507 2.896003 0
M  V30 26 C 1.987375 -3.693788 0.119485 0
M  V30 27 C 0.978489 -4.213866 -0.660038 0
M  V30 28 O 1.098154 -4.930984 -1.832363 0
M  V30 29 C 2.358280 -5.215349 -2.376517 0
M  V30 30 H -2.816713 -4.599373 0.580388 0
M  V30 31 H -2.811060 -3.126677 -0.418910 0
M  V30 32 H -3.468094 -4.715142 -1.122781 0
M  V30 33 H -1.618703 -3.114349 1.293629 0
M  V30 34 H 0.184508 -2.231078 2.610957 0
M  V30 35 H 2.518305 -2.532671 3.167043 0
M  V30 36 H 3.684102 -3.067153 1.936235 0
M  V30 37 H 3.634140 -1.131491 0.695442 0
M  V30 38 H 4.255629 0.493693 2.443342 0
M  V30 39 H 3.907508 -0.719865 3.557088 0
M  V30 40 H 0.333627 0.974823 -1.679857 0
M  V30 41 H -1.514553 2.556921 -1.784862 0
M  V30 42 H -3.775946 2.950885 -1.554674 0
M  V30 43 H -4.761204 6.279128 0.704250 0
M  V30 44 H -2.538683 5.316150 1.798283 0
M  V30 45 H -1.416282 3.024622 2.493548 0
M  V30 46 H 2.060453 0.188891 3.813344 0
M  V30 47 H 2.982113 -3.866459 -0.224849 0
M  V30 48 H 2.193350 -5.311193 -3.489958 0
M  V30 49 H 2.765348 -6.214699 -2.044839 0
M  V30 50 H 3.071339 -4.403768 -2.184495 0
M  V30 END ATOM
M  V30 BEGIN BOND
M  V30 1 1 1 2
M  V30 2 1 2 3
M  V30 3 2 3 4
M  V30 4 1 4 5
M  V30 5 2 5 6
M  V30 6 1 6 7
M  V30 7 1 7 8
M  V30 8 1 8 9
M  V30 9 1 8 10
M  V30 10 2 10 11
M  V30 11 1 11 12
M  V30 12 2 12 13
M  V30 13 1 13 14
M  V30 14 2 14 15
M  V30 15 1 15 16
M  V30 16 1 16 17
M  V30 17 2 17 18
M  V30 18 1 18 19
M  V30 19 1 19 20
M  V30 20 1 15 21
M  V30 21 2 21 22
M  V30 22 1 22 23
M  V30 23 2 23 24
M  V30 24 1 23 25
M  V30 25 1 6 26
M  V30 26 2 26 27
M  V30 27 1 27 28
M  V30 28 1 28 29
M  V30 29 1 27 3
M  V30 30 1 25 10
M  V30 31 1 22 12
M  V30 32 2 20 16
M  V30 33 1 1 30
M  V30 34 1 1 31
M  V30 35 1 1 32
M  V30 36 1 4 33
M  V30 37 1 5 34
M  V30 38 1 7 35
M  V30 39 1 7 36
M  V30 40 1 8 37 CFG=3
M  V30 41 1 9 38
M  V30 42 1 9 39
M  V30 43 1 13 40
M  V30 44 1 14 41
M  V30 45 1 17 42
M  V30 46 1 19 43
M  V30 47 1 20 44
M  V30 48 1 21 45
M  V30 49 1 25 46
M  V30 50 1 26 47
M  V30 51 1 29 48
M  V30 52 1 29 49
M  V30 53 1 29 50
M  V30 END BOND
M  V30 END CTAB
M  END
>  <Dataset>  (873) 
ChEMBL_Kinases

>  <Ligand_Instance>  (873) 
nan

>  <PDB_ID>  (873) 
nan

>  <Standardized_SMILES>  (873) 
COc1ccc(C[C@H](N)c2nc3ccc(-c4cn[nH]c4)cc3c(=O)[nH]2)cc1OC

>  <Name>  (873) 
nan

>  <Pocket>  (873) 
nan

>  <ATP_Site>  (873) 
nan

>  <Peripheral>  (873) 
nan

>  <Num_H_Atoms_ProtBoundConf>  (873) 
nan

>  <Num_Resolved_Atoms>  (873) 
nan

>  <Num_Not_Resolved_Atoms>  (873) 
nan

$$$$
CHEMBL2333912
     RDKit          3D

  0  0  0  0  0  0  0  0  0  0999 V3000
M  V30 BEGIN CTAB
M  V30 COUNTS 42 45 0 0 0
M  V30 BEGIN ATOM
M  V30 1 N -1.357263 -2.029455 -3.161772 0
M  V30 2 C -0.463296 -1.094523 -2.552796 0 CFG=2
M  V30 3 C 0.916803 -1.199233 -3.138936 0
M  V30 4 C 1.863391 -0.233027 -2.517214 0
M  V30 5 C 2.072724 1.048485 -2.990606 0
M  V30 6 C 2.972258 1.884306 -2.352356 0
M  V30 7 C 3.676800 1.455947 -1.232904 0
M  V30 8 F 4.556141 2.281582 -0.613707 0
M  V30 9 C 3.502752 0.178205 -0.717878 0
M  V30 10 F 4.155076 -0.303285 0.367155 0
M  V30 11 C 2.595037 -0.591977 -1.403821 0
M  V30 12 C -0.459431 -1.269913 -1.076627 0
M  V30 13 N -0.517557 -0.161806 -0.279356 0
M  V30 14 C -0.514784 -0.307103 1.078524 0
M  V30 15 C -0.574956 0.860079 1.830575 0
M  V30 16 C -0.574711 0.778901 3.208391 0
M  V30 17 C -0.513794 -0.477671 3.794619 0
M  V30 18 C -0.513075 -0.557955 5.267187 0
M  V30 19 C 0.142592 -1.569444 5.941343 0
M  V30 20 N -0.073728 -1.319311 7.265416 0
M  V30 21 N -0.812140 -0.227191 7.376363 0
M  V30 22 C -1.118438 0.293619 6.167801 0
M  V30 23 C -0.453356 -1.650241 3.044558 0
M  V30 24 C -0.453852 -1.562896 1.657773 0
M  V30 25 C -0.394910 -2.686529 0.828433 0
M  V30 26 O -0.339531 -3.828523 1.362100 0
M  V30 27 N -0.400092 -2.493423 -0.519434 0
M  V30 28 H -2.330827 -1.953135 -2.854873 0
M  V30 29 H -0.988853 -2.961690 -3.363540 0
M  V30 30 H -0.842046 -0.075403 -2.816552 0
M  V30 31 H 0.869782 -0.964504 -4.220639 0
M  V30 32 H 1.257225 -2.243741 -3.017178 0
M  V30 33 H 1.534791 1.377499 -3.846329 0
M  V30 34 H 3.167479 2.895379 -2.688274 0
M  V30 35 H 2.429749 -1.602275 -1.031198 0
M  V30 36 H -0.620943 1.812998 1.319647 0
M  V30 37 H -0.620849 1.675837 3.814020 0
M  V30 38 H 0.717985 -2.403766 5.544450 0
M  V30 39 H -1.168128 0.255224 8.242921 0
M  V30 40 H -1.698758 1.169449 5.931455 0
M  V30 41 H -0.405746 -2.631054 3.497622 0
M  V30 42 H -0.354625 -3.360980 -1.112648 0
M  V30 END ATOM
M  V30 BEGIN BOND
M  V30 1 1 1 2
M  V30 2 1 2 3
M  V30 3 1 3 4
M  V30 4 2 4 5
M  V30 5 1 5 6
M  V30 6 2 6 7
M  V30 7 1 7 8
M  V30 8 1 7 9
M  V30 9 1 9 10
M  V30 10 2 9 11
M  V30 11 1 2 12
M  V30 12 2 12 13
M  V30 13 1 13 14
M  V30 14 2 14 15
M  V30 15 1 15 16
M  V30 16 2 16 17
M  V30 17 1 17 18
M  V30 18 1 18 19
M  V30 19 2 19 20
M  V30 20 1 20 21
M  V30 21 1 21 22
M  V30 22 1 17 23
M  V30 23 2 23 24
M  V30 24 1 24 25
M  V30 25 2 25 26
M  V30 26 1 25 27
M  V30 27 1 11 4
M  V30 28 1 27 12
M  V30 29 1 24 14
M  V30 30 2 22 18
M  V30 31 1 1 28
M  V30 32 1 1 29
M  V30 33 1 2 30 CFG=1
M  V30 34 1 3 31
M  V30 35 1 3 32
M  V30 36 1 5 33
M  V30 37 1 6 34
M  V30 38 1 11 35
M  V30 39 1 15 36
M  V30 40 1 16 37
M  V30 41 1 19 38
M  V30 42 1 21 39
M  V30 43 1 22 40
M  V30 44 1 23 41
M  V30 45 1 27 42
M  V30 END BOND
M  V30 END CTAB
M  END
>  <Dataset>  (874) 
ChEMBL_Kinases

>  <Ligand_Instance>  (874) 
nan

>  <PDB_ID>  (874) 
nan

>  <Standardized_SMILES>  (874) 
N[C@H](Cc1ccc(F)c(F)c1)c1nc2ccc(-c3cn[nH]c3)cc2c(=O)[nH]1

>  <Name>  (874) 
nan

>  <Pocket>  (874) 
nan

>  <ATP_Site>  (874) 
nan

>  <Peripheral>  (874) 
nan

>  <Num_H_Atoms_ProtBoundConf>  (874) 
nan

>  <Num_Resolved_Atoms>  (874) 
nan

>  <Num_Not_Resolved_Atoms>  (874) 
nan

$$$$
CHEMBL2333913
     RDKit          3D

  0  0  0  0  0  0  0  0  0  0999 V3000
M  V30 BEGIN CTAB
M  V30 COUNTS 42 45 0 0 0
M  V30 BEGIN ATOM
M  V30 1 N 3.508349 -3.033848 0.814143 0
M  V30 2 C 2.284115 -3.459054 0.147870 0 CFG=2
M  V30 3 C 2.433472 -3.183512 -1.338850 0
M  V30 4 C 2.655504 -1.767343 -1.648513 0
M  V30 5 C 1.544084 -0.981832 -1.872508 0
M  V30 6 C 1.625225 0.361703 -2.172123 0
M  V30 7 C 2.891965 0.942210 -2.249728 0
M  V30 8 C 4.016067 0.161088 -2.026163 0
M  V30 9 Cl 5.587202 0.943889 -2.136456 0
M  V30 10 C 3.912686 -1.196920 -1.724184 0
M  V30 11 C 1.096260 -2.799487 0.735128 0
M  V30 12 N 1.286254 -1.468377 0.935988 0
M  V30 13 C 0.294729 -0.700252 1.470792 0
M  V30 14 C 0.476619 0.647249 1.678151 0
M  V30 15 C -0.481359 1.483543 2.214222 0
M  V30 16 C -1.708031 0.907162 2.562603 0
M  V30 17 C -2.832414 1.642962 3.141001 0
M  V30 18 C -3.869681 1.375500 4.012641 0
M  V30 19 N -4.598139 2.510867 4.152363 0
M  V30 20 N -4.061190 3.485745 3.402566 0
M  V30 21 C -2.975606 2.974552 2.772728 0
M  V30 22 C -1.890419 -0.463921 2.350636 0
M  V30 23 C -0.906721 -1.263871 1.812240 0
M  V30 24 C -1.058899 -2.606626 1.594598 0
M  V30 25 O -2.148180 -3.162700 1.894861 0
M  V30 26 N -0.081123 -3.362891 1.067412 0
M  V30 27 H 4.119341 -3.853228 1.072288 0
M  V30 28 H 3.224364 -2.486623 1.653695 0
M  V30 29 H 2.232357 -4.566024 0.248833 0
M  V30 30 H 3.361446 -3.747188 -1.637883 0
M  V30 31 H 1.619240 -3.614070 -1.934472 0
M  V30 32 H 0.549549 -1.410716 -1.817647 0
M  V30 33 H 0.741804 0.944718 -2.340921 0
M  V30 34 H 3.021345 1.995663 -2.481940 0
M  V30 35 H 4.790586 -1.795393 -1.552338 0
M  V30 36 H 1.422862 1.085425 1.408131 0
M  V30 37 H -0.368867 2.532915 2.386766 0
M  V30 38 H -3.939520 0.385551 4.418426 0
M  V30 39 H -4.514380 4.425434 3.406297 0
M  V30 40 H -2.428019 3.650806 2.121451 0
M  V30 41 H -2.827156 -0.939697 2.609439 0
M  V30 42 H -0.140830 -4.385957 0.880168 0
M  V30 END ATOM
M  V30 BEGIN BOND
M  V30 1 1 1 2
M  V30 2 1 2 3
M  V30 3 1 3 4
M  V30 4 2 4 5
M  V30 5 1 5 6
M  V30 6 2 6 7
M  V30 7 1 7 8
M  V30 8 1 8 9
M  V30 9 2 8 10
M  V30 10 1 2 11
M  V30 11 2 11 12
M  V30 12 1 12 13
M  V30 13 2 13 14
M  V30 14 1 14 15
M  V30 15 2 15 16
M  V30 16 1 16 17
M  V30 17 1 17 18
M  V30 18 2 18 19
M  V30 19 1 19 20
M  V30 20 1 20 21
M  V30 21 1 16 22
M  V30 22 2 22 23
M  V30 23 1 23 24
M  V30 24 2 24 25
M  V30 25 1 24 26
M  V30 26 1 10 4
M  V30 27 1 26 11
M  V30 28 1 23 13
M  V30 29 2 21 17
M  V30 30 1 1 27
M  V30 31 1 1 28
M  V30 32 1 2 29 CFG=3
M  V30 33 1 3 30
M  V30 34 1 3 31
M  V30 35 1 5 32
M  V30 36 1 6 33
M  V30 37 1 7 34
M  V30 38 1 10 35
M  V30 39 1 14 36
M  V30 40 1 15 37
M  V30 41 1 18 38
M  V30 42 1 20 39
M  V30 43 1 21 40
M  V30 44 1 22 41
M  V30 45 1 26 42
M  V30 END BOND
M  V30 END CTAB
M  END
>  <Dataset>  (875) 
ChEMBL_Kinases

>  <Ligand_Instance>  (875) 
nan

>  <PDB_ID>  (875) 
nan

>  <Standardized_SMILES>  (875) 
N[C@H](Cc1cccc(Cl)c1)c1nc2ccc(-c3cn[nH]c3)cc2c(=O)[nH]1

>  <Name>  (875) 
nan

>  <Pocket>  (875) 
nan

>  <ATP_Site>  (875) 
nan

>  <Peripheral>  (875) 
nan

>  <Num_H_Atoms_ProtBoundConf>  (875) 
nan

>  <Num_Resolved_Atoms>  (875) 
nan

>  <Num_Not_Resolved_Atoms>  (875) 
nan

$$$$
CHEMBL2333901
     RDKit          3D

  0  0  0  0  0  0  0  0  0  0999 V3000
M  V30 BEGIN CTAB
M  V30 COUNTS 59 64 0 0 0
M  V30 BEGIN ATOM
M  V30 1 O 1.474251 -0.343883 -2.974996 0
M  V30 2 C 1.156013 -0.963395 -1.928939 0
M  V30 3 N 0.874218 -0.343167 -0.758192 0
M  V30 4 C 0.530587 -0.992071 0.375745 0
M  V30 5 C 0.230935 -0.233548 1.617650 0 CFG=2
M  V30 6 C 1.201713 -0.544612 2.738869 0
M  V30 7 N 0.500961 -0.205961 3.925056 0
M  V30 8 C 0.957009 0.889509 4.689878 0
M  V30 9 C 0.974906 2.208144 4.033160 0
M  V30 10 C 2.013387 2.769831 3.321301 0
M  V30 11 C 1.990669 4.010771 2.722857 0
M  V30 12 C 0.845763 4.770145 2.832367 0
M  V30 13 C -0.227675 4.257410 3.535080 0
M  V30 14 C -0.154633 3.008236 4.116500 0
M  V30 15 C -0.897231 -0.317157 3.683632 0
M  V30 16 C -1.068050 -0.688128 2.221365 0 CFG=1
M  V30 17 C -2.274990 -0.131056 1.615973 0
M  V30 18 C -2.572729 1.232496 1.527133 0
M  V30 19 C -3.719064 1.707280 0.950043 0
M  V30 20 C -4.671462 0.840875 0.408298 0
M  V30 21 C -4.419028 -0.503032 0.474287 0
M  V30 22 F -5.271438 -1.427651 -0.018757 0
M  V30 23 C -3.258323 -0.958413 1.059671 0
M  V30 24 N 0.458870 -2.335047 0.359950 0
M  V30 25 C 0.725940 -3.045395 -0.774726 0
M  V30 26 C 0.651671 -4.431394 -0.793444 0
M  V30 27 C 0.925831 -5.123301 -1.956356 0
M  V30 28 C 1.277291 -4.463533 -3.118221 0
M  V30 29 C 1.565030 -5.213192 -4.350215 0
M  V30 30 C 2.125901 -6.483531 -4.465227 0
M  V30 31 N 2.191028 -6.734389 -5.786678 0
M  V30 32 N 1.707409 -5.699762 -6.451812 0
M  V30 33 C 1.299555 -4.716676 -5.610871 0
M  V30 34 C 1.350781 -3.071949 -3.093751 0
M  V30 35 C 1.076771 -2.363080 -1.928508 0
M  V30 36 H 0.945735 0.685123 -0.806233 0
M  V30 37 H 0.311768 0.851836 1.449300 0
M  V30 38 H 1.446725 -1.649301 2.720364 0
M  V30 39 H 2.118285 0.062615 2.653678 0
M  V30 40 H 0.333855 0.969627 5.610404 0
M  V30 41 H 1.985665 0.660537 5.049165 0
M  V30 42 H 2.921343 2.201585 3.226683 0
M  V30 43 H 2.864671 4.360707 2.183801 0
M  V30 44 H 0.853629 5.735789 2.355972 0
M  V30 45 H -1.083662 4.917935 3.571183 0
M  V30 46 H -1.074269 2.763385 4.628585 0
M  V30 47 H -1.339757 -1.163948 4.272722 0
M  V30 48 H -1.513666 0.552839 3.894531 0
M  V30 49 H -1.103416 -1.799148 2.107210 0
M  V30 50 H -1.844870 1.930520 1.942960 0
M  V30 51 H -3.944215 2.766754 0.883755 0
M  V30 52 H -5.574010 1.163131 -0.049841 0
M  V30 53 H -3.069509 -2.035071 1.106371 0
M  V30 54 H 0.378781 -4.985816 0.098394 0
M  V30 55 H 0.879699 -6.207027 -2.016018 0
M  V30 56 H 2.434232 -7.113873 -3.636410 0
M  V30 57 H 1.673810 -5.707075 -7.485147 0
M  V30 58 H 0.868738 -3.774731 -5.937135 0
M  V30 59 H 1.627442 -2.562702 -4.012870 0
M  V30 END ATOM
M  V30 BEGIN BOND
M  V30 1 2 1 2
M  V30 2 1 2 3
M  V30 3 1 3 4
M  V30 4 1 4 5
M  V30 5 1 5 6
M  V30 6 1 6 7
M  V30 7 1 7 8
M  V30 8 1 8 9
M  V30 9 2 9 10
M  V30 10 1 10 11
M  V30 11 2 11 12
M  V30 12 1 12 13
M  V30 13 2 13 14
M  V30 14 1 7 15
M  V30 15 1 15 16
M  V30 16 1 16 17
M  V30 17 2 17 18
M  V30 18 1 18 19
M  V30 19 2 19 20
M  V30 20 1 20 21
M  V30 21 1 21 22
M  V30 22 2 21 23
M  V30 23 2 4 24
M  V30 24 1 24 25
M  V30 25 2 25 26
M  V30 26 1 26 27
M  V30 27 2 27 28
M  V30 28 1 28 29
M  V30 29 1 29 30
M  V30 30 2 30 31
M  V30 31 1 31 32
M  V30 32 1 32 33
M  V30 33 1 28 34
M  V30 34 2 34 35
M  V30 35 1 35 2
M  V30 36 1 16 5
M  V30 37 1 23 17
M  V30 38 1 35 25
M  V30 39 1 14 9
M  V30 40 2 33 29
M  V30 41 1 3 36
M  V30 42 1 5 37 CFG=3
M  V30 43 1 6 38
M  V30 44 1 6 39
M  V30 45 1 8 40
M  V30 46 1 8 41
M  V30 47 1 10 42
M  V30 48 1 11 43
M  V30 49 1 12 44
M  V30 50 1 13 45
M  V30 51 1 14 46
M  V30 52 1 15 47
M  V30 53 1 15 48
M  V30 54 1 16 49 CFG=1
M  V30 55 1 18 50
M  V30 56 1 19 51
M  V30 57 1 20 52
M  V30 58 1 23 53
M  V30 59 1 26 54
M  V30 60 1 27 55
M  V30 61 1 30 56
M  V30 62 1 32 57
M  V30 63 1 33 58
M  V30 64 1 34 59
M  V30 END BOND
M  V30 END CTAB
M  END
>  <Dataset>  (876) 
ChEMBL_Kinases

>  <Ligand_Instance>  (876) 
nan

>  <PDB_ID>  (876) 
nan

>  <Standardized_SMILES>  (876) 
O=c1[nH]c([C@@H]2CN(Cc3ccccc3)C[C@H]2c2cccc(F)c2)nc2ccc(-c3cn[nH]c3)cc12

>  <Name>  (876) 
nan

>  <Pocket>  (876) 
nan

>  <ATP_Site>  (876) 
nan

>  <Peripheral>  (876) 
nan

>  <Num_H_Atoms_ProtBoundConf>  (876) 
nan

>  <Num_Resolved_Atoms>  (876) 
nan

>  <Num_Not_Resolved_Atoms>  (876) 
nan

$$$$
CHEMBL2332062
     RDKit          3D

  0  0  0  0  0  0  0  0  0  0999 V3000
M  V30 BEGIN CTAB
M  V30 COUNTS 71 73 0 0 0
M  V30 BEGIN ATOM
M  V30 1 C 4.416007 -2.419731 3.885049 0
M  V30 2 O 5.280340 -1.369306 3.501979 0
M  V30 3 C 4.788807 -0.264195 2.822742 0
M  V30 4 C 5.700702 0.705208 2.491497 0
M  V30 5 C 5.243477 1.814794 1.816785 0
M  V30 6 C 3.917531 1.905935 1.507594 0
M  V30 7 C 2.955687 0.937765 1.828245 0
M  V30 8 C 1.566714 1.189404 1.423631 0
M  V30 9 N 1.190161 0.720080 0.131770 0
M  V30 10 C 1.369544 1.554668 -1.040458 0
M  V30 11 C 0.153948 2.414261 -1.318865 0
M  V30 12 N 0.355509 3.243700 -2.493962 0
M  V30 13 C 1.340585 4.265982 -2.327849 0
M  V30 14 C -0.884732 3.718337 -3.043698 0
M  V30 15 C 0.634402 -0.611978 0.105809 0
M  V30 16 O 0.546489 -1.184037 1.221563 0
M  V30 17 N 0.159081 -1.398511 -1.007045 0
M  V30 18 C -0.251978 -2.605941 -0.329070 0
M  V30 19 C 0.567265 -3.693721 -0.107685 0
M  V30 20 C 0.049898 -4.765005 0.560563 0
M  V30 21 C -1.263724 -4.693314 0.974247 0
M  V30 22 C -1.790830 -5.853183 1.684514 0
M  V30 23 C -1.416980 -7.157913 1.475067 0
M  V30 24 N -2.143674 -7.906768 2.335725 0
M  V30 25 N -2.935040 -7.109015 3.050612 0
M  V30 26 C -2.749320 -5.814983 2.678359 0
M  V30 27 C -2.114253 -3.611175 0.765948 0
M  V30 28 C -1.566856 -2.531279 0.083098 0
M  V30 29 O -2.405428 -1.465300 -0.124959 0
M  V30 30 C -3.736956 -1.376329 0.295191 0
M  V30 31 C -4.365010 -0.040144 -0.112054 0
M  V30 32 N -4.346582 0.122751 -1.533724 0
M  V30 33 C -4.927423 1.368238 -1.973452 0
M  V30 34 C -5.019494 -0.955593 -2.229679 0
M  V30 35 C 3.463859 -0.152799 2.503116 0
M  V30 36 H 3.897554 -2.867508 2.993499 0
M  V30 37 H 4.996523 -3.257466 4.348053 0
M  V30 38 H 3.633380 -2.024080 4.561176 0
M  V30 39 H 6.747965 0.626911 2.739229 0
M  V30 40 H 5.963833 2.574664 1.557807 0
M  V30 41 H 3.653317 2.823435 0.973516 0
M  V30 42 H 1.408109 2.301921 1.412437 0
M  V30 43 H 0.860524 0.845458 2.231319 0
M  V30 44 H 2.274976 2.166096 -0.872373 0
M  V30 45 H 1.550993 0.983192 -1.968473 0
M  V30 46 H -0.015497 3.067683 -0.451080 0
M  V30 47 H -0.736203 1.802707 -1.517336 0
M  V30 48 H 1.862474 4.124661 -1.358991 0
M  V30 49 H 2.104751 4.179436 -3.143137 0
M  V30 50 H 0.928188 5.296930 -2.351809 0
M  V30 51 H -1.313782 3.048037 -3.812141 0
M  V30 52 H -1.637793 3.805283 -2.225961 0
M  V30 53 H -0.798746 4.723949 -3.506486 0
M  V30 54 H 0.253684 -0.878727 -1.914144 0
M  V30 55 H 1.579933 -3.643709 -0.476703 0
M  V30 56 H 0.652849 -5.640034 0.758326 0
M  V30 57 H -0.683814 -7.574773 0.769091 0
M  V30 58 H -3.604974 -7.406870 3.789568 0
M  V30 59 H -3.251189 -4.957625 3.082572 0
M  V30 60 H -3.131654 -3.654620 1.132579 0
M  V30 61 H -4.341939 -2.223783 -0.062031 0
M  V30 62 H -3.715801 -1.444199 1.410706 0
M  V30 63 H -5.439135 -0.104085 0.189154 0
M  V30 64 H -3.912884 0.783884 0.438307 0
M  V30 65 H -4.324191 2.256204 -1.732557 0
M  V30 66 H -5.949664 1.501750 -1.566479 0
M  V30 67 H -4.989852 1.288620 -3.097249 0
M  V30 68 H -4.193388 -1.538724 -2.732810 0
M  V30 69 H -5.597448 -1.613216 -1.548430 0
M  V30 70 H -5.645950 -0.567247 -3.050624 0
M  V30 71 H 2.770399 -0.914485 2.770472 0
M  V30 END ATOM
M  V30 BEGIN BOND
M  V30 1 1 1 2
M  V30 2 1 2 3
M  V30 3 2 3 4
M  V30 4 1 4 5
M  V30 5 2 5 6
M  V30 6 1 6 7
M  V30 7 1 7 8
M  V30 8 1 8 9
M  V30 9 1 9 10
M  V30 10 1 10 11
M  V30 11 1 11 12
M  V30 12 1 12 13
M  V30 13 1 12 14
M  V30 14 1 9 15
M  V30 15 2 15 16
M  V30 16 1 15 17
M  V30 17 1 17 18
M  V30 18 2 18 19
M  V30 19 1 19 20
M  V30 20 2 20 21
M  V30 21 1 21 22
M  V30 22 1 22 23
M  V30 23 2 23 24
M  V30 24 1 24 25
M  V30 25 1 25 26
M  V30 26 1 21 27
M  V30 27 2 27 28
M  V30 28 1 28 29
M  V30 29 1 29 30
M  V30 30 1 30 31
M  V30 31 1 31 32
M  V30 32 1 32 33
M  V30 33 1 32 34
M  V30 34 2 7 35
M  V30 35 1 35 3
M  V30 36 1 28 18
M  V30 37 2 26 22
M  V30 38 1 1 36
M  V30 39 1 1 37
M  V30 40 1 1 38
M  V30 41 1 4 39
M  V30 42 1 5 40
M  V30 43 1 6 41
M  V30 44 1 8 42
M  V30 45 1 8 43
M  V30 46 1 10 44
M  V30 47 1 10 45
M  V30 48 1 11 46
M  V30 49 1 11 47
M  V30 50 1 13 48
M  V30 51 1 13 49
M  V30 52 1 13 50
M  V30 53 1 14 51
M  V30 54 1 14 52
M  V30 55 1 14 53
M  V30 56 1 17 54
M  V30 57 1 19 55
M  V30 58 1 20 56
M  V30 59 1 23 57
M  V30 60 1 25 58
M  V30 61 1 26 59
M  V30 62 1 27 60
M  V30 63 1 30 61
M  V30 64 1 30 62
M  V30 65 1 31 63
M  V30 66 1 31 64
M  V30 67 1 33 65
M  V30 68 1 33 66
M  V30 69 1 33 67
M  V30 70 1 34 68
M  V30 71 1 34 69
M  V30 72 1 34 70
M  V30 73 1 35 71
M  V30 END BOND
M  V30 END CTAB
M  END
>  <Dataset>  (877) 
ChEMBL_Kinases

>  <Ligand_Instance>  (877) 
nan

>  <PDB_ID>  (877) 
nan

>  <Standardized_SMILES>  (877) 
COc1cccc(CN(CCN(C)C)C(=O)Nc2ccc(-c3cn[nH]c3)cc2OCCN(C)C)c1

>  <Name>  (877) 
nan

>  <Pocket>  (877) 
nan

>  <ATP_Site>  (877) 
nan

>  <Peripheral>  (877) 
nan

>  <Num_H_Atoms_ProtBoundConf>  (877) 
nan

>  <Num_Resolved_Atoms>  (877) 
nan

>  <Num_Not_Resolved_Atoms>  (877) 
nan

$$$$
CHEMBL2332058
     RDKit          3D

  0  0  0  0  0  0  0  0  0  0999 V3000
M  V30 BEGIN CTAB
M  V30 COUNTS 42 44 0 0 0
M  V30 BEGIN ATOM
M  V30 1 O 1.172010 0.219062 1.051236 0
M  V30 2 C 0.616362 -0.875019 1.282528 0
M  V30 3 N -0.060231 -1.626457 0.281481 0
M  V30 4 C -0.082274 -1.075666 -1.032041 0
M  V30 5 C 1.036497 -1.526993 -1.732058 0
M  V30 6 C 1.265878 -1.136993 -3.057555 0
M  V30 7 C 0.349450 -0.288994 -3.654292 0
M  V30 8 C 0.550844 0.141323 -5.032375 0
M  V30 9 C 1.857379 0.295139 -5.508945 0
M  V30 10 N 1.747874 0.694084 -6.795299 0
M  V30 11 N 0.474028 0.795748 -7.141540 0
M  V30 12 C -0.294150 0.461349 -6.075181 0
M  V30 13 C -0.753713 0.152022 -2.953573 0
M  V30 14 C -0.981315 -0.231026 -1.648474 0
M  V30 15 N 0.647531 -1.414639 2.595725 0
M  V30 16 C 1.314808 -0.715244 3.665269 0
M  V30 17 C 2.488784 -1.447353 4.236579 0
M  V30 18 O 2.175572 -2.689711 4.779625 0
M  V30 19 C 0.402645 -0.364982 4.773865 0
M  V30 20 C 0.275440 0.812151 5.481511 0
M  V30 21 C -0.621727 0.982395 6.483988 0
M  V30 22 C -1.484782 -0.022979 6.874700 0
M  V30 23 C -1.390103 -1.226216 6.187600 0
M  V30 24 C -0.467134 -1.392045 5.161130 0
M  V30 25 H -0.540366 -2.551424 0.440857 0
M  V30 26 H 1.827966 -2.189284 -1.387866 0
M  V30 27 H 2.097818 -1.443278 -3.652969 0
M  V30 28 H 2.817407 0.141626 -5.002456 0
M  V30 29 H 0.056951 1.079485 -8.062420 0
M  V30 30 H -1.369953 0.409532 -5.925702 0
M  V30 31 H -1.504758 0.815022 -3.364878 0
M  V30 32 H -1.788680 0.030801 -0.986157 0
M  V30 33 H 0.177883 -2.335193 2.787453 0
M  V30 34 H 1.718718 0.218683 3.225043 0
M  V30 35 H 2.853356 -0.821740 5.092250 0
M  V30 36 H 3.364714 -1.497032 3.551476 0
M  V30 37 H 2.367086 -3.367664 4.095284 0
M  V30 38 H 0.978486 1.578918 5.138029 0
M  V30 39 H -0.665807 1.935890 6.997591 0
M  V30 40 H -2.197836 0.085097 7.659022 0
M  V30 41 H -2.064571 -2.009756 6.493886 0
M  V30 42 H -0.503195 -2.391184 4.709368 0
M  V30 END ATOM
M  V30 BEGIN BOND
M  V30 1 2 1 2
M  V30 2 1 2 3
M  V30 3 1 3 4
M  V30 4 2 4 5
M  V30 5 1 5 6
M  V30 6 2 6 7
M  V30 7 1 7 8
M  V30 8 1 8 9
M  V30 9 2 9 10
M  V30 10 1 10 11
M  V30 11 1 11 12
M  V30 12 1 7 13
M  V30 13 2 13 14
M  V30 14 1 2 15
M  V30 15 1 15 16
M  V30 16 1 16 17
M  V30 17 1 17 18
M  V30 18 1 16 19
M  V30 19 2 19 20
M  V30 20 1 20 21
M  V30 21 2 21 22
M  V30 22 1 22 23
M  V30 23 2 23 24
M  V30 24 1 14 4
M  V30 25 1 24 19
M  V30 26 2 12 8
M  V30 27 1 3 25
M  V30 28 1 5 26
M  V30 29 1 6 27
M  V30 30 1 9 28
M  V30 31 1 11 29
M  V30 32 1 12 30
M  V30 33 1 13 31
M  V30 34 1 14 32
M  V30 35 1 15 33
M  V30 36 1 16 34
M  V30 37 1 17 35
M  V30 38 1 17 36
M  V30 39 1 18 37
M  V30 40 1 20 38
M  V30 41 1 21 39
M  V30 42 1 22 40
M  V30 43 1 23 41
M  V30 44 1 24 42
M  V30 END BOND
M  V30 END CTAB
M  END
>  <Dataset>  (878) 
ChEMBL_Kinases

>  <Ligand_Instance>  (878) 
nan

>  <PDB_ID>  (878) 
nan

>  <Standardized_SMILES>  (878) 
O=C(Nc1ccc(-c2cn[nH]c2)cc1)NC(CO)c1ccccc1

>  <Name>  (878) 
nan

>  <Pocket>  (878) 
nan

>  <ATP_Site>  (878) 
nan

>  <Peripheral>  (878) 
nan

>  <Num_H_Atoms_ProtBoundConf>  (878) 
nan

>  <Num_Resolved_Atoms>  (878) 
nan

>  <Num_Not_Resolved_Atoms>  (878) 
nan

$$$$
CHEMBL2332057
     RDKit          3D

  0  0  0  0  0  0  0  0  0  0999 V3000
M  V30 BEGIN CTAB
M  V30 COUNTS 45 47 0 0 0
M  V30 BEGIN ATOM
M  V30 1 O 0.286210 0.499041 1.528839 0
M  V30 2 C -0.064499 -0.495095 0.881850 0
M  V30 3 N 0.726043 -1.072987 -0.159058 0
M  V30 4 C 2.001054 -0.590859 -0.584823 0
M  V30 5 C 3.257868 -0.933431 -0.129373 0
M  V30 6 C 4.358032 -0.327733 -0.698907 0
M  V30 7 C 4.239302 0.606777 -1.706416 0
M  V30 8 C 5.417430 1.234846 -2.292781 0
M  V30 9 C 6.649955 1.568305 -1.771747 0
M  V30 10 N 7.406383 2.139516 -2.737614 0
M  V30 11 N 6.667434 2.166035 -3.844293 0
M  V30 12 C 5.443317 1.627590 -3.634861 0
M  V30 13 C 2.964546 0.955951 -2.170006 0
M  V30 14 C 1.851063 0.346559 -1.597562 0
M  V30 15 N -1.290731 -1.203272 1.073407 0
M  V30 16 C -2.232661 -0.752651 2.101923 0
M  V30 17 C -3.475966 -0.218794 1.441166 0
M  V30 18 C -4.518809 0.274918 2.380201 0
M  V30 19 O -5.625724 0.746059 1.643066 0
M  V30 20 C -2.457791 -1.742878 3.151070 0
M  V30 21 C -2.469210 -1.382140 4.486250 0
M  V30 22 C -2.688027 -2.363131 5.446368 0
M  V30 23 C -2.893779 -3.685713 5.100069 0
M  V30 24 C -2.886741 -4.063346 3.792131 0
M  V30 25 C -2.666629 -3.069606 2.848664 0
M  V30 26 H 0.468006 -1.914543 -0.731853 0
M  V30 27 H 3.240911 -1.670909 0.657764 0
M  V30 28 H 5.324647 -0.630512 -0.307074 0
M  V30 29 H 6.810669 1.329271 -0.712008 0
M  V30 30 H 7.050257 2.570059 -4.737188 0
M  V30 31 H 4.715122 1.569775 -4.431351 0
M  V30 32 H 2.935898 1.687810 -2.954566 0
M  V30 33 H 0.928085 0.695576 -2.036067 0
M  V30 34 H -1.599959 -2.043336 0.535531 0
M  V30 35 H -1.748233 0.138549 2.570312 0
M  V30 36 H -3.940714 -0.944070 0.735555 0
M  V30 37 H -3.167045 0.646555 0.817503 0
M  V30 38 H -4.876399 -0.480226 3.113900 0
M  V30 39 H -4.187540 1.151278 2.976930 0
M  V30 40 H -5.342168 1.609903 1.218447 0
M  V30 41 H -2.308684 -0.338641 4.796577 0
M  V30 42 H -2.705506 -2.121392 6.515385 0
M  V30 43 H -3.063144 -4.437803 5.865203 0
M  V30 44 H -3.042487 -5.085290 3.466094 0
M  V30 45 H -2.660952 -3.369018 1.813490 0
M  V30 END ATOM
M  V30 BEGIN BOND
M  V30 1 2 1 2
M  V30 2 1 2 3
M  V30 3 1 3 4
M  V30 4 2 4 5
M  V30 5 1 5 6
M  V30 6 2 6 7
M  V30 7 1 7 8
M  V30 8 1 8 9
M  V30 9 2 9 10
M  V30 10 1 10 11
M  V30 11 1 11 12
M  V30 12 1 7 13
M  V30 13 2 13 14
M  V30 14 1 2 15
M  V30 15 1 15 16
M  V30 16 1 16 17
M  V30 17 1 17 18
M  V30 18 1 18 19
M  V30 19 1 16 20
M  V30 20 2 20 21
M  V30 21 1 21 22
M  V30 22 2 22 23
M  V30 23 1 23 24
M  V30 24 2 24 25
M  V30 25 1 14 4
M  V30 26 1 25 20
M  V30 27 2 12 8
M  V30 28 1 3 26
M  V30 29 1 5 27
M  V30 30 1 6 28
M  V30 31 1 9 29
M  V30 32 1 11 30
M  V30 33 1 12 31
M  V30 34 1 13 32
M  V30 35 1 14 33
M  V30 36 1 15 34
M  V30 37 1 16 35
M  V30 38 1 17 36
M  V30 39 1 17 37
M  V30 40 1 18 38
M  V30 41 1 18 39
M  V30 42 1 19 40
M  V30 43 1 21 41
M  V30 44 1 22 42
M  V30 45 1 23 43
M  V30 46 1 24 44
M  V30 47 1 25 45
M  V30 END BOND
M  V30 END CTAB
M  END
>  <Dataset>  (879) 
ChEMBL_Kinases

>  <Ligand_Instance>  (879) 
nan

>  <PDB_ID>  (879) 
nan

>  <Standardized_SMILES>  (879) 
O=C(Nc1ccc(-c2cn[nH]c2)cc1)NC(CCO)c1ccccc1

>  <Name>  (879) 
nan

>  <Pocket>  (879) 
nan

>  <ATP_Site>  (879) 
nan

>  <Peripheral>  (879) 
nan

>  <Num_H_Atoms_ProtBoundConf>  (879) 
nan

>  <Num_Resolved_Atoms>  (879) 
nan

>  <Num_Not_Resolved_Atoms>  (879) 
nan

$$$$
CHEMBL2332033
     RDKit          3D

  0  0  0  0  0  0  0  0  0  0999 V3000
M  V30 BEGIN CTAB
M  V30 COUNTS 67 70 0 0 0
M  V30 BEGIN ATOM
M  V30 1 C -1.307577 7.457605 1.580617 0
M  V30 2 C -1.640362 6.889539 0.216170 0
M  V30 3 N -0.696836 5.896999 -0.235911 0
M  V30 4 C -0.465351 4.703581 0.489523 0
M  V30 5 O -1.096742 4.517366 1.540822 0
M  V30 6 O 0.433377 3.689860 0.119011 0
M  V30 7 C 0.570242 2.544288 0.935355 0 CFG=2
M  V30 8 C 1.993714 2.278028 1.288123 0
M  V30 9 C 2.713470 1.296027 0.431049 0
M  V30 10 C 1.877629 0.086352 0.026853 0 CFG=2
M  V30 11 C 1.473927 0.273812 -1.424673 0
M  V30 12 C 0.524635 -0.776422 -1.778932 0
M  V30 13 O 0.205463 -1.613588 -0.901048 0
M  V30 14 N -0.071097 -0.926342 -3.049840 0
M  V30 15 C -0.994473 -1.873030 -3.548460 0
M  V30 16 C -1.422125 -1.789440 -4.853057 0
M  V30 17 C -2.319343 -2.684673 -5.388042 0
M  V30 18 C -2.843465 -3.718311 -4.650158 0
M  V30 19 N -3.766135 -4.604820 -5.270146 0
M  V30 20 C -4.107334 -4.374938 -6.645891 0
M  V30 21 C -4.319239 -5.706084 -4.470396 0
M  V30 22 C -2.442116 -3.839681 -3.337562 0
M  V30 23 C -1.542401 -2.919801 -2.846659 0
M  V30 24 C 0.674529 1.556121 -1.282961 0
M  V30 25 C 0.038195 1.385420 0.083534 0 CFG=1
M  V30 26 N 0.616548 0.217876 0.612022 0
M  V30 27 C 0.335301 -0.204841 1.896293 0
M  V30 28 C 1.091452 -1.440620 2.219394 0
M  V30 29 C 2.349288 -1.181714 2.771597 0
M  V30 30 C 3.228487 -2.154348 3.154024 0
M  V30 31 C 2.857664 -3.474902 2.987413 0
M  V30 32 C 1.627815 -3.758387 2.447415 0
M  V30 33 C 0.752786 -2.766950 2.066868 0
M  V30 34 H -1.281380 6.696987 2.374972 0
M  V30 35 H -0.427271 8.121652 1.564631 0
M  V30 36 H -2.170692 8.131503 1.829189 0
M  V30 37 H -1.649099 7.726447 -0.499625 0
M  V30 38 H -2.681965 6.508305 0.263960 0
M  V30 39 H -0.135210 6.006744 -1.121758 0
M  V30 40 H -0.103372 2.624452 1.811530 0
M  V30 41 H 2.162062 2.089671 2.390222 0
M  V30 42 H 2.530083 3.263568 1.138970 0
M  V30 43 H 3.606769 0.931515 0.999338 0
M  V30 44 H 3.131757 1.803096 -0.463751 0
M  V30 45 H 2.400292 -0.865383 0.203892 0
M  V30 46 H 2.333063 0.375858 -2.094856 0
M  V30 47 H 0.260514 -0.176657 -3.714691 0
M  V30 48 H -1.038455 -0.986493 -5.488455 0
M  V30 49 H -2.601412 -2.543438 -6.425593 0
M  V30 50 H -4.461704 -3.335201 -6.739519 0
M  V30 51 H -4.872301 -5.066038 -7.030222 0
M  V30 52 H -3.169792 -4.483478 -7.247409 0
M  V30 53 H -3.511940 -6.447701 -4.280930 0
M  V30 54 H -4.641311 -5.337659 -3.469099 0
M  V30 55 H -5.114963 -6.211167 -5.026463 0
M  V30 56 H -2.837212 -4.639493 -2.738932 0
M  V30 57 H -1.271225 -3.072210 -1.815012 0
M  V30 58 H 1.320855 2.443509 -1.364528 0
M  V30 59 H -0.068850 1.532182 -2.110476 0
M  V30 60 H -1.048002 1.391105 -0.002390 0
M  V30 61 H -0.750140 -0.530399 1.910783 0
M  V30 62 H 0.423443 0.483419 2.739464 0
M  V30 63 H 2.745448 -0.169631 2.948663 0
M  V30 64 H 4.194291 -1.977379 3.577961 0
M  V30 65 H 3.526614 -4.275544 3.278213 0
M  V30 66 H 1.279171 -4.781097 2.291462 0
M  V30 67 H -0.241116 -2.881501 1.630816 0
M  V30 END ATOM
M  V30 BEGIN BOND
M  V30 1 1 1 2
M  V30 2 1 2 3
M  V30 3 1 3 4
M  V30 4 2 4 5
M  V30 5 1 4 6
M  V30 6 1 6 7
M  V30 7 1 7 8
M  V30 8 1 8 9
M  V30 9 1 9 10
M  V30 10 1 10 11
M  V30 11 1 11 12
M  V30 12 2 12 13
M  V30 13 1 12 14
M  V30 14 1 14 15
M  V30 15 2 15 16
M  V30 16 1 16 17
M  V30 17 2 17 18
M  V30 18 1 18 19
M  V30 19 1 19 20
M  V30 20 1 19 21
M  V30 21 1 18 22
M  V30 22 2 22 23
M  V30 23 1 11 24
M  V30 24 1 24 25
M  V30 25 1 25 26
M  V30 26 1 26 27
M  V30 27 1 27 28
M  V30 28 2 28 29
M  V30 29 1 29 30
M  V30 30 2 30 31
M  V30 31 1 31 32
M  V30 32 2 32 33
M  V30 33 1 25 7
M  V30 34 1 33 28
M  V30 35 1 26 10
M  V30 36 1 23 15
M  V30 37 1 1 34
M  V30 38 1 1 35
M  V30 39 1 1 36
M  V30 40 1 2 37
M  V30 41 1 2 38
M  V30 42 1 3 39
M  V30 43 1 7 40 CFG=1
M  V30 44 1 8 41
M  V30 45 1 8 42
M  V30 46 1 9 43
M  V30 47 1 9 44
M  V30 48 1 10 45 CFG=3
M  V30 49 1 11 46
M  V30 50 1 14 47
M  V30 51 1 16 48
M  V30 52 1 17 49
M  V30 53 1 20 50
M  V30 54 1 20 51
M  V30 55 1 20 52
M  V30 56 1 21 53
M  V30 57 1 21 54
M  V30 58 1 21 55
M  V30 59 1 22 56
M  V30 60 1 23 57
M  V30 61 1 24 58
M  V30 62 1 24 59
M  V30 63 1 25 60 CFG=3
M  V30 64 1 27 61
M  V30 65 1 27 62
M  V30 66 1 29 63
M  V30 67 1 30 64
M  V30 68 1 31 65
M  V30 69 1 32 66
M  V30 70 1 33 67
M  V30 END BOND
M  V30 END CTAB
M  END
>  <Dataset>  (880) 
ChEMBL_Kinases

>  <Ligand_Instance>  (880) 
nan

>  <PDB_ID>  (880) 
nan

>  <Standardized_SMILES>  (880) 
CCNC(=O)O[C@@H]1CC[C@@H]2C(C(=O)Nc3ccc(N(C)C)cc3)C[C@H]1N2Cc1ccccc1

>  <Name>  (880) 
nan

>  <Pocket>  (880) 
nan

>  <ATP_Site>  (880) 
nan

>  <Peripheral>  (880) 
nan

>  <Num_H_Atoms_ProtBoundConf>  (880) 
nan

>  <Num_Resolved_Atoms>  (880) 
nan

>  <Num_Not_Resolved_Atoms>  (880) 
nan

$$$$
CHEMBL2332032
     RDKit          3D

  0  0  0  0  0  0  0  0  0  0999 V3000
M  V30 BEGIN CTAB
M  V30 COUNTS 62 63 0 0 0
M  V30 BEGIN ATOM
M  V30 1 O 5.194406 0.169334 2.089416 0
M  V30 2 P 4.123799 -0.533387 1.280832 0
M  V30 3 O 4.159672 -2.160347 1.728787 0
M  V30 4 O 4.398080 -0.365885 -0.366283 0
M  V30 5 O 2.650124 0.146311 1.744671 0
M  V30 6 C 1.596093 -0.272718 0.904344 0 CFG=2
M  V30 7 C 1.007363 1.002244 0.327502 0 CFG=1
M  V30 8 O 1.329422 1.115439 -1.024734 0
M  V30 9 P 2.101844 2.537568 -1.424009 0
M  V30 10 O 2.334091 3.458787 -0.252028 0
M  V30 11 O 3.614983 2.195131 -2.094818 0
M  V30 12 O 1.147710 3.308723 -2.608665 0
M  V30 13 C -0.505433 0.973541 0.445356 0 CFG=1
M  V30 14 O -1.117039 1.901092 -0.360976 0
M  V30 15 P -2.113034 2.946022 0.546109 0
M  V30 16 O -1.687818 4.382730 0.293945 0
M  V30 17 O -1.955204 2.564303 2.170397 0
M  V30 18 O -3.709264 2.795385 0.059816 0
M  V30 19 C -0.922675 -0.423089 -0.040358 0 CFG=1
M  V30 20 O -0.061966 -0.790052 -1.052634 0
M  V30 21 C -0.664321 -1.100585 -2.247357 0
M  V30 22 C -1.604027 -2.216930 -2.222117 0
M  V30 23 C -2.969589 -2.273455 -2.072118 0
M  V30 24 C -3.656311 -3.468704 -2.066233 0
M  V30 25 C -3.020029 -4.689736 -2.210903 0
M  V30 26 C -1.647129 -4.656812 -2.363584 0
M  V30 27 C -0.965576 -3.455304 -2.368306 0
M  V30 28 C -0.690396 -1.322665 1.166588 0 CFG=2
M  V30 29 O -1.690909 -1.076101 2.100527 0
M  V30 30 P -2.596471 -2.407861 2.526540 0
M  V30 31 O -3.964501 -2.421987 1.852220 0
M  V30 32 O -2.919295 -2.287565 4.202992 0
M  V30 33 O -1.815019 -3.874253 2.305559 0
M  V30 34 C 0.607782 -0.931277 1.834449 0 CFG=1
M  V30 35 O 1.201236 -2.031598 2.435232 0
M  V30 36 P 1.418659 -1.812292 4.091723 0
M  V30 37 O 2.629628 -2.602254 4.559983 0
M  V30 38 O 0.088231 -2.351634 4.967984 0
M  V30 39 O 1.763925 -0.182185 4.453561 0
M  V30 40 H 4.691707 -2.643486 1.066921 0
M  V30 41 H 4.966795 -1.108778 -0.692529 0
M  V30 42 H 2.031924 -0.941237 0.161683 0
M  V30 43 H 1.346252 1.913039 0.861204 0
M  V30 44 H 3.747592 2.771914 -2.888797 0
M  V30 45 H 0.210975 3.358153 -2.310086 0
M  V30 46 H -0.804831 1.120181 1.517198 0
M  V30 47 H -2.857364 2.593281 2.583936 0
M  V30 48 H -4.151395 1.991478 0.402592 0
M  V30 49 H -1.943583 -0.443612 -0.392102 0
M  V30 50 H -1.157894 -0.173168 -2.626600 0
M  V30 51 H 0.178770 -1.268870 -2.981376 0
M  V30 52 H -3.438058 -1.306079 -1.970731 0
M  V30 53 H -4.707859 -3.353528 -1.940920 0
M  V30 54 H -3.655402 -5.545143 -2.190473 0
M  V30 55 H -1.175900 -5.615360 -2.474153 0
M  V30 56 H 0.110814 -3.593126 -2.497836 0
M  V30 57 H -0.629543 -2.363409 0.833165 0
M  V30 58 H -3.314728 -1.423016 4.430973 0
M  V30 59 H -2.240685 -4.455246 1.627188 0
M  V30 60 H 0.443304 -0.195384 2.662222 0
M  V30 61 H 0.140053 -1.982252 5.888152 0
M  V30 62 H 1.316830 0.053475 5.300665 0
M  V30 END ATOM
M  V30 BEGIN BOND
M  V30 1 2 1 2
M  V30 2 1 2 3
M  V30 3 1 2 4
M  V30 4 1 2 5
M  V30 5 1 5 6
M  V30 6 1 6 7
M  V30 7 1 7 8
M  V30 8 1 8 9
M  V30 9 2 9 10
M  V30 10 1 9 11
M  V30 11 1 9 12
M  V30 12 1 7 13
M  V30 13 1 13 14
M  V30 14 1 14 15
M  V30 15 2 15 16
M  V30 16 1 15 17
M  V30 17 1 15 18
M  V30 18 1 13 19
M  V30 19 1 19 20
M  V30 20 1 20 21
M  V30 21 1 21 22
M  V30 22 2 22 23
M  V30 23 1 23 24
M  V30 24 2 24 25
M  V30 25 1 25 26
M  V30 26 2 26 27
M  V30 27 1 19 28
M  V30 28 1 28 29
M  V30 29 1 29 30
M  V30 30 2 30 31
M  V30 31 1 30 32
M  V30 32 1 30 33
M  V30 33 1 28 34
M  V30 34 1 34 35
M  V30 35 1 35 36
M  V30 36 2 36 37
M  V30 37 1 36 38
M  V30 38 1 36 39
M  V30 39 1 34 6
M  V30 40 1 27 22
M  V30 41 1 3 40
M  V30 42 1 4 41
M  V30 43 1 6 42 CFG=3
M  V30 44 1 7 43 CFG=1
M  V30 45 1 11 44
M  V30 46 1 12 45
M  V30 47 1 13 46 CFG=1
M  V30 48 1 17 47
M  V30 49 1 18 48
M  V30 50 1 19 49 CFG=3
M  V30 51 1 21 50
M  V30 52 1 21 51
M  V30 53 1 23 52
M  V30 54 1 24 53
M  V30 55 1 25 54
M  V30 56 1 26 55
M  V30 57 1 27 56
M  V30 58 1 28 57 CFG=3
M  V30 59 1 32 58
M  V30 60 1 33 59
M  V30 61 1 34 60 CFG=1
M  V30 62 1 38 61
M  V30 63 1 39 62
M  V30 END BOND
M  V30 END CTAB
M  END
>  <Dataset>  (881) 
ChEMBL_Kinases

>  <Ligand_Instance>  (881) 
nan

>  <PDB_ID>  (881) 
nan

>  <Standardized_SMILES>  (881) 
O=P(O)(O)O[C@@H]1[C@@H](OP(=O)(O)O)[C@@H](OP(=O)(O)O)[C@@H](OCc2ccccc2)[C@H](OP(=O)(O)O)[C@H]1OP(=O)(O)O

>  <Name>  (881) 
nan

>  <Pocket>  (881) 
nan

>  <ATP_Site>  (881) 
nan

>  <Peripheral>  (881) 
nan

>  <Num_H_Atoms_ProtBoundConf>  (881) 
nan

>  <Num_Resolved_Atoms>  (881) 
nan

>  <Num_Not_Resolved_Atoms>  (881) 
nan

$$$$
CHEMBL2332031
     RDKit          3D

  0  0  0  0  0  0  0  0  0  0999 V3000
M  V30 BEGIN CTAB
M  V30 COUNTS 51 55 0 0 0
M  V30 BEGIN ATOM
M  V30 1 N 4.216603 -0.792715 6.268731 0
M  V30 2 C 3.070200 -1.157652 5.477442 0
M  V30 3 N 2.296620 -2.167847 6.156006 0
M  V30 4 N 2.103315 -1.341619 4.613221 0
M  V30 5 C 2.095660 -0.588287 3.406195 0
M  V30 6 C 3.226770 -0.481219 2.625128 0
M  V30 7 C 3.216077 0.249922 1.456730 0
M  V30 8 C 2.044480 0.875751 1.082574 0
M  V30 9 N 1.818877 1.674642 -0.078058 0
M  V30 10 N 2.483400 2.752641 -0.441534 0
M  V30 11 C 1.970704 3.206637 -1.577854 0
M  V30 12 C 2.425084 4.400423 -2.329627 0
M  V30 13 F 1.663428 4.641864 -3.433816 0
M  V30 14 F 3.767843 4.246300 -2.601094 0
M  V30 15 F 2.283266 5.488245 -1.469108 0
M  V30 16 C 0.910874 2.398367 -2.002088 0
M  V30 17 C 0.861620 1.428811 -0.994810 0
M  V30 18 C -0.096418 0.304760 -0.945490 0
M  V30 19 C 0.392121 -0.954639 -0.627603 0
M  V30 20 C -0.464481 -2.024385 -0.571880 0
M  V30 21 C -1.797611 -1.817751 -0.835227 0
M  V30 22 C -2.259331 -0.557843 -1.148642 0
M  V30 23 C -3.601487 -0.318717 -1.419600 0
M  V30 24 C -4.465012 -1.365420 -1.369568 0
M  V30 25 C -4.022077 -2.633729 -1.057873 0
M  V30 26 C -4.929047 -3.680376 -1.015060 0
M  V30 27 C -4.498855 -4.941762 -0.706639 0
M  V30 28 C -3.178683 -5.180559 -0.439440 0
M  V30 29 C -2.270686 -4.118251 -0.484939 0
M  V30 30 C -2.686915 -2.846374 -0.792962 0
M  V30 31 C -1.443509 0.563418 -1.220886 0
M  V30 32 C 0.894005 0.778635 1.857965 0
M  V30 33 C 0.904915 0.041404 3.036054 0
M  V30 34 H 3.819602 -0.119912 6.963073 0
M  V30 35 H 4.825797 -1.423548 5.689764 0
M  V30 36 H 1.731638 -2.909107 6.649729 0
M  V30 37 H 1.722653 -2.871667 6.683431 0
M  V30 38 H 4.146892 -0.956911 2.893931 0
M  V30 39 H 4.039144 0.395804 0.778964 0
M  V30 40 H 0.304815 2.502107 -2.868466 0
M  V30 41 H 1.442703 -1.053610 -0.431927 0
M  V30 42 H -0.013241 -2.958862 -0.321182 0
M  V30 43 H -4.034457 0.641756 -1.672058 0
M  V30 44 H -5.527234 -1.246816 -1.570613 0
M  V30 45 H -5.971480 -3.503954 -1.224039 0
M  V30 46 H -5.196700 -5.784739 -0.666638 0
M  V30 47 H -2.877814 -6.211658 -0.195829 0
M  V30 48 H -1.264548 -4.421163 -0.258607 0
M  V30 49 H -1.792803 1.542799 -1.463104 0
M  V30 50 H -0.064373 1.231529 1.646929 0
M  V30 51 H 0.025363 -0.061429 3.675053 0
M  V30 END ATOM
M  V30 BEGIN BOND
M  V30 1 1 1 2
M  V30 2 1 2 3
M  V30 3 2 2 4 CFG=2
M  V30 4 1 4 5
M  V30 5 2 5 6
M  V30 6 1 6 7
M  V30 7 2 7 8
M  V30 8 1 8 9
M  V30 9 1 9 10
M  V30 10 2 10 11
M  V30 11 1 11 12
M  V30 12 1 12 13
M  V30 13 1 12 14
M  V30 14 1 12 15
M  V30 15 1 11 16
M  V30 16 2 16 17
M  V30 17 1 17 18
M  V30 18 2 18 19
M  V30 19 1 19 20
M  V30 20 2 20 21
M  V30 21 1 21 22
M  V30 22 1 22 23
M  V30 23 2 23 24
M  V30 24 1 24 25
M  V30 25 2 25 26
M  V30 26 1 26 27
M  V30 27 2 27 28
M  V30 28 1 28 29
M  V30 29 2 29 30
M  V30 30 2 22 31
M  V30 31 1 8 32
M  V30 32 2 32 33
M  V30 33 1 33 5
M  V30 34 1 17 9
M  V30 35 1 31 18
M  V30 36 1 30 21
M  V30 37 1 30 25
M  V30 38 1 1 34
M  V30 39 1 1 35
M  V30 40 1 3 36
M  V30 41 1 3 37
M  V30 42 1 6 38
M  V30 43 1 7 39
M  V30 44 1 16 40
M  V30 45 1 19 41
M  V30 46 1 20 42
M  V30 47 1 23 43
M  V30 48 1 24 44
M  V30 49 1 26 45
M  V30 50 1 27 46
M  V30 51 1 28 47
M  V30 52 1 29 48
M  V30 53 1 31 49
M  V30 54 1 32 50
M  V30 55 1 33 51
M  V30 END BOND
M  V30 END CTAB
M  END
>  <Dataset>  (882) 
ChEMBL_Kinases

>  <Ligand_Instance>  (882) 
nan

>  <PDB_ID>  (882) 
nan

>  <Standardized_SMILES>  (882) 
NC(N)=Nc1ccc(-n2nc(C(F)(F)F)cc2-c2ccc3c(ccc4ccccc43)c2)cc1

>  <Name>  (882) 
nan

>  <Pocket>  (882) 
nan

>  <ATP_Site>  (882) 
nan

>  <Peripheral>  (882) 
nan

>  <Num_H_Atoms_ProtBoundConf>  (882) 
nan

>  <Num_Resolved_Atoms>  (882) 
nan

>  <Num_Not_Resolved_Atoms>  (882) 
nan

$$$$
CHEMBL233186
     RDKit          3D

  0  0  0  0  0  0  0  0  0  0999 V3000
M  V30 BEGIN CTAB
M  V30 COUNTS 56 60 0 0 0
M  V30 BEGIN ATOM
M  V30 1 C 1.047731 0.645962 4.569858 0
M  V30 2 C 2.072760 -0.450908 4.663902 0
M  V30 3 C 1.396180 -1.747313 4.273469 0
M  V30 4 N 3.269223 -0.191406 3.918471 0
M  V30 5 C 3.236342 0.008725 2.508814 0
M  V30 6 N 4.366197 0.253482 1.819206 0
M  V30 7 C 4.388393 0.447987 0.493447 0
M  V30 8 C 3.215896 0.401334 -0.225152 0
M  V30 9 C 2.037771 0.152563 0.448848 0
M  V30 10 C 0.662136 0.046899 -0.026581 0
M  V30 11 C -0.048501 1.089012 -0.581456 0
M  V30 12 C 0.296858 2.479905 -0.848401 0
M  V30 13 C 1.223319 3.027454 -1.708729 0
M  V30 14 C 1.365396 4.397039 -1.779460 0
M  V30 15 C 0.584493 5.218308 -0.993209 0
M  V30 16 F 0.752228 6.567722 -1.089487 0
M  V30 17 C -0.355761 4.705942 -0.117926 0
M  V30 18 C -0.489608 3.316025 -0.055959 0
M  V30 19 N -1.242903 0.540622 -0.864438 0
M  V30 20 C -1.276472 -0.746950 -0.513117 0
M  V30 21 C -2.302177 -1.660290 -0.631180 0
M  V30 22 C -2.170076 -2.965301 -0.214447 0
M  V30 23 C -3.146030 -4.059217 -0.271845 0
M  V30 24 N -3.008612 -4.825186 -1.488447 0
M  V30 25 C -3.256415 -4.007765 -2.651658 0
M  V30 26 C -3.935341 -5.230390 -3.265677 0
M  V30 27 C -4.160000 -5.645903 -1.807197 0
M  V30 28 C -0.913659 -3.263314 0.330257 0
M  V30 29 C 0.101721 -2.336291 0.440851 0
M  V30 30 N -0.084651 -1.073342 0.015986 0
M  V30 31 N 2.108159 -0.032668 1.793312 0
M  V30 32 H 0.473346 0.645520 3.617920 0
M  V30 33 H 0.299076 0.460829 5.368476 0
M  V30 34 H 1.486638 1.643167 4.814920 0
M  V30 35 H 2.313073 -0.554041 5.748210 0
M  V30 36 H 1.245765 -1.765343 3.175079 0
M  V30 37 H 1.977343 -2.637031 4.588790 0
M  V30 38 H 0.381306 -1.743021 4.735297 0
M  V30 39 H 4.190921 -0.145600 4.406295 0
M  V30 40 H 5.258859 0.647310 -0.115658 0
M  V30 41 H 3.046760 0.530560 -1.284803 0
M  V30 42 H 1.756059 2.287251 -2.256084 0
M  V30 43 H 2.117140 4.768035 -2.480899 0
M  V30 44 H -0.939564 5.397384 0.473269 0
M  V30 45 H -1.256389 3.029205 0.664132 0
M  V30 46 H -3.253228 -1.398002 -1.049293 0
M  V30 47 H -2.946565 -4.760882 0.587012 0
M  V30 48 H -4.195758 -3.712913 -0.150014 0
M  V30 49 H -2.364413 -3.686769 -3.224366 0
M  V30 50 H -3.928674 -3.160358 -2.481531 0
M  V30 51 H -4.870476 -4.957972 -3.790046 0
M  V30 52 H -3.231937 -5.868250 -3.821532 0
M  V30 53 H -5.131660 -5.303723 -1.401626 0
M  V30 54 H -3.947548 -6.735738 -1.714086 0
M  V30 55 H -0.654708 -4.264044 0.707954 0
M  V30 56 H 1.063542 -2.584177 0.863373 0
M  V30 END ATOM
M  V30 BEGIN BOND
M  V30 1 1 1 2
M  V30 2 1 2 3
M  V30 3 1 2 4
M  V30 4 1 4 5
M  V30 5 2 5 6
M  V30 6 1 6 7
M  V30 7 2 7 8
M  V30 8 1 8 9
M  V30 9 1 9 10
M  V30 10 2 10 11
M  V30 11 1 11 12
M  V30 12 2 12 13
M  V30 13 1 13 14
M  V30 14 2 14 15
M  V30 15 1 15 16
M  V30 16 1 15 17
M  V30 17 2 17 18
M  V30 18 1 11 19
M  V30 19 2 19 20
M  V30 20 1 20 21
M  V30 21 2 21 22
M  V30 22 1 22 23
M  V30 23 1 23 24
M  V30 24 1 24 25
M  V30 25 1 25 26
M  V30 26 1 26 27
M  V30 27 1 22 28
M  V30 28 2 28 29
M  V30 29 1 29 30
M  V30 30 2 9 31
M  V30 31 1 31 5
M  V30 32 1 30 10
M  V30 33 1 18 12
M  V30 34 1 30 20
M  V30 35 1 27 24
M  V30 36 1 1 32
M  V30 37 1 1 33
M  V30 38 1 1 34
M  V30 39 1 2 35
M  V30 40 1 3 36
M  V30 41 1 3 37
M  V30 42 1 3 38
M  V30 43 1 4 39
M  V30 44 1 7 40
M  V30 45 1 8 41
M  V30 46 1 13 42
M  V30 47 1 14 43
M  V30 48 1 17 44
M  V30 49 1 18 45
M  V30 50 1 21 46
M  V30 51 1 23 47
M  V30 52 1 23 48
M  V30 53 1 25 49
M  V30 54 1 25 50
M  V30 55 1 26 51
M  V30 56 1 26 52
M  V30 57 1 27 53
M  V30 58 1 27 54
M  V30 59 1 28 55
M  V30 60 1 29 56
M  V30 END BOND
M  V30 END CTAB
M  END
>  <Dataset>  (883) 
ChEMBL_Kinases

>  <Ligand_Instance>  (883) 
nan

>  <PDB_ID>  (883) 
nan

>  <Standardized_SMILES>  (883) 
CC(C)Nc1nccc(-c2c(-c3ccc(F)cc3)nc3cc(CN4CCC4)ccn23)n1

>  <Name>  (883) 
nan

>  <Pocket>  (883) 
nan

>  <ATP_Site>  (883) 
nan

>  <Peripheral>  (883) 
nan

>  <Num_H_Atoms_ProtBoundConf>  (883) 
nan

>  <Num_Resolved_Atoms>  (883) 
nan

>  <Num_Not_Resolved_Atoms>  (883) 
nan

$$$$
CHEMBL233012
     RDKit          3D

  0  0  0  0  0  0  0  0  0  0999 V3000
M  V30 BEGIN CTAB
M  V30 COUNTS 55 58 0 0 0
M  V30 BEGIN ATOM
M  V30 1 C 0.463360 0.433377 4.692066 0
M  V30 2 C 1.275024 -0.832344 4.918126 0
M  V30 3 C 0.502233 -1.972962 4.303089 0
M  V30 4 N 2.620275 -0.706430 4.382417 0
M  V30 5 C 2.807700 -0.458843 2.993897 0
M  V30 6 N 4.070444 -0.339880 2.506564 0
M  V30 7 C 4.320030 -0.108087 1.211967 0
M  V30 8 C 3.215763 0.003207 0.399828 0
M  V30 9 C 1.933202 -0.108722 0.846255 0
M  V30 10 C 0.688278 -0.007858 0.092616 0
M  V30 11 C 0.262411 1.158536 -0.510201 0
M  V30 12 C 0.828129 2.500214 -0.590072 0
M  V30 13 C 1.975845 2.973517 -1.190403 0
M  V30 14 C 2.277380 4.317272 -1.105453 0
M  V30 15 C 1.468332 5.209552 -0.438583 0
M  V30 16 F 1.796334 6.518998 -0.377372 0
M  V30 17 C 0.311446 4.757941 0.171362 0
M  V30 18 C 0.005174 3.408727 0.088323 0
M  V30 19 N -0.913215 0.849188 -1.100134 0
M  V30 20 C -1.223320 -0.450355 -0.885105 0
M  V30 21 C -2.318413 -1.183912 -1.298878 0
M  V30 22 C -2.422496 -2.529247 -0.949648 0
M  V30 23 C -3.587829 -3.313941 -1.389007 0
M  V30 24 N -3.401654 -3.952044 -2.656747 0
M  V30 25 C -2.299428 -4.863730 -2.642023 0
M  V30 26 C -4.646534 -4.643115 -2.985763 0
M  V30 27 C -1.378123 -3.017579 -0.193034 0
M  V30 28 C -0.289826 -2.273964 0.213567 0
M  V30 29 N -0.228425 -0.976726 -0.146021 0
M  V30 30 N 1.745334 -0.345466 2.178518 0
M  V30 31 H -0.256399 0.312179 3.857831 0
M  V30 32 H 1.091204 1.320866 4.500323 0
M  V30 33 H -0.124888 0.618524 5.609449 0
M  V30 34 H 1.337001 -1.047505 6.010921 0
M  V30 35 H 1.128030 -2.887775 4.361809 0
M  V30 36 H -0.422926 -2.071963 4.937828 0
M  V30 37 H 0.164829 -1.754379 3.266680 0
M  V30 38 H 3.445558 -0.797405 5.015420 0
M  V30 39 H 5.279417 -0.001486 0.743694 0
M  V30 40 H 3.312610 0.186959 -0.654158 0
M  V30 41 H 2.517548 2.189967 -1.675908 0
M  V30 42 H 3.205670 4.610291 -1.608346 0
M  V30 43 H -0.291190 5.487747 0.680725 0
M  V30 44 H -0.936562 3.179678 0.612192 0
M  V30 45 H -3.116735 -0.769117 -1.890398 0
M  V30 46 H -3.714782 -4.142072 -0.630596 0
M  V30 47 H -4.534847 -2.737557 -1.353666 0
M  V30 48 H -2.302737 -5.403302 -1.669837 0
M  V30 49 H -1.327034 -4.387522 -2.862443 0
M  V30 50 H -2.514584 -5.657367 -3.411842 0
M  V30 51 H -4.812463 -5.495736 -2.310387 0
M  V30 52 H -4.620318 -5.007306 -4.039489 0
M  V30 53 H -5.514038 -3.963861 -2.837105 0
M  V30 54 H -1.408877 -4.058199 0.106278 0
M  V30 55 H 0.504163 -2.709917 0.808122 0
M  V30 END ATOM
M  V30 BEGIN BOND
M  V30 1 1 1 2
M  V30 2 1 2 3
M  V30 3 1 2 4
M  V30 4 1 4 5
M  V30 5 2 5 6
M  V30 6 1 6 7
M  V30 7 2 7 8
M  V30 8 1 8 9
M  V30 9 1 9 10
M  V30 10 2 10 11
M  V30 11 1 11 12
M  V30 12 2 12 13
M  V30 13 1 13 14
M  V30 14 2 14 15
M  V30 15 1 15 16
M  V30 16 1 15 17
M  V30 17 2 17 18
M  V30 18 1 11 19
M  V30 19 2 19 20
M  V30 20 1 20 21
M  V30 21 2 21 22
M  V30 22 1 22 23
M  V30 23 1 23 24
M  V30 24 1 24 25
M  V30 25 1 24 26
M  V30 26 1 22 27
M  V30 27 2 27 28
M  V30 28 1 28 29
M  V30 29 2 9 30
M  V30 30 1 30 5
M  V30 31 1 29 10
M  V30 32 1 18 12
M  V30 33 1 29 20
M  V30 34 1 1 31
M  V30 35 1 1 32
M  V30 36 1 1 33
M  V30 37 1 2 34
M  V30 38 1 3 35
M  V30 39 1 3 36
M  V30 40 1 3 37
M  V30 41 1 4 38
M  V30 42 1 7 39
M  V30 43 1 8 40
M  V30 44 1 13 41
M  V30 45 1 14 42
M  V30 46 1 17 43
M  V30 47 1 18 44
M  V30 48 1 21 45
M  V30 49 1 23 46
M  V30 50 1 23 47
M  V30 51 1 25 48
M  V30 52 1 25 49
M  V30 53 1 25 50
M  V30 54 1 26 51
M  V30 55 1 26 52
M  V30 56 1 26 53
M  V30 57 1 27 54
M  V30 58 1 28 55
M  V30 END BOND
M  V30 END CTAB
M  END
>  <Dataset>  (884) 
ChEMBL_Kinases

>  <Ligand_Instance>  (884) 
nan

>  <PDB_ID>  (884) 
nan

>  <Standardized_SMILES>  (884) 
CC(C)Nc1nccc(-c2c(-c3ccc(F)cc3)nc3cc(CN(C)C)ccn23)n1

>  <Name>  (884) 
nan

>  <Pocket>  (884) 
nan

>  <ATP_Site>  (884) 
nan

>  <Peripheral>  (884) 
nan

>  <Num_H_Atoms_ProtBoundConf>  (884) 
nan

>  <Num_Resolved_Atoms>  (884) 
nan

>  <Num_Not_Resolved_Atoms>  (884) 
nan

$$$$
CHEMBL233011
     RDKit          3D

  0  0  0  0  0  0  0  0  0  0999 V3000
M  V30 BEGIN CTAB
M  V30 COUNTS 58 61 0 0 0
M  V30 BEGIN ATOM
M  V30 1 C 2.221615 0.577835 5.939519 0
M  V30 2 N 3.376893 -0.212476 5.646946 0
M  V30 3 C 3.234549 -1.594990 5.978434 0
M  V30 4 C 4.025585 0.066114 4.408323 0
M  V30 5 C 3.197617 -0.117783 3.204904 0
M  V30 6 C 2.457709 0.946704 2.721527 0
M  V30 7 C 1.647462 0.894246 1.605321 0
M  V30 8 N 1.564128 -0.282321 0.926273 0
M  V30 9 C 0.877838 -0.669309 -0.185361 0
M  V30 10 C 0.020874 0.269662 -0.887146 0
M  V30 11 C 0.723599 1.369416 -1.377302 0
M  V30 12 C 0.111816 2.389257 -2.073587 0
M  V30 13 N -1.214575 2.283289 -2.267143 0
M  V30 14 C -1.928458 1.219657 -1.799650 0
M  V30 15 N -3.338408 1.078209 -1.985527 0
M  V30 16 C -4.092589 -0.052995 -1.488135 0
M  V30 17 C -4.008827 -0.211746 -0.008563 0
M  V30 18 C -3.740034 -1.343645 -2.171961 0
M  V30 19 C -5.566577 0.224086 -1.812168 0
M  V30 20 N -1.311176 0.228924 -1.119058 0
M  V30 21 C 1.212581 -1.992185 -0.372757 0
M  V30 22 C 0.674882 -2.772281 -1.473855 0
M  V30 23 C 1.582623 -3.292606 -2.401041 0
M  V30 24 C 0.983018 -4.017794 -3.406736 0
M  V30 25 C -0.350017 -4.282508 -3.602437 0
M  V30 26 F -0.779285 -5.018335 -4.650768 0
M  V30 27 C -1.194826 -3.732113 -2.639254 0
M  V30 28 C -0.679669 -2.988296 -1.592509 0
M  V30 29 N 2.062831 -2.362395 0.594482 0
M  V30 30 C 2.285619 -1.314692 1.400290 0
M  V30 31 C 3.103658 -1.313400 2.502368 0
M  V30 32 H 1.259935 0.118019 5.619476 0
M  V30 33 H 2.152599 0.621713 7.065988 0
M  V30 34 H 2.342526 1.633069 5.633289 0
M  V30 35 H 2.188854 -1.953904 5.807891 0
M  V30 36 H 3.958627 -2.256154 5.506414 0
M  V30 37 H 3.367216 -1.666769 7.093417 0
M  V30 38 H 4.476754 1.070099 4.480761 0
M  V30 39 H 4.879329 -0.638836 4.318933 0
M  V30 40 H 2.519431 1.884283 3.255658 0
M  V30 41 H 1.085525 1.768414 1.269712 0
M  V30 42 H 1.807289 1.520968 -1.255731 0
M  V30 43 H 0.638599 3.243120 -2.457585 0
M  V30 44 H -3.791672 1.876270 -2.522170 0
M  V30 45 H -3.213440 -0.905274 0.324771 0
M  V30 46 H -4.955691 -0.655664 0.354731 0
M  V30 47 H -3.835968 0.731277 0.544630 0
M  V30 48 H -2.760342 -1.296631 -2.693156 0
M  V30 49 H -3.711467 -2.148883 -1.413904 0
M  V30 50 H -4.515223 -1.641193 -2.934907 0
M  V30 51 H -6.147362 -0.581396 -1.323679 0
M  V30 52 H -5.741004 0.343531 -2.886140 0
M  V30 53 H -5.795650 1.155520 -1.236122 0
M  V30 54 H 2.655906 -3.164818 -2.372885 0
M  V30 55 H 1.658016 -4.444716 -4.156700 0
M  V30 56 H -2.257867 -3.914630 -2.751956 0
M  V30 57 H -1.336445 -2.556307 -0.837675 0
M  V30 58 H 3.655679 -2.154492 2.840773 0
M  V30 END ATOM
M  V30 BEGIN BOND
M  V30 1 1 1 2
M  V30 2 1 2 3
M  V30 3 1 2 4
M  V30 4 1 4 5
M  V30 5 1 5 6
M  V30 6 2 6 7
M  V30 7 1 7 8
M  V30 8 1 8 9
M  V30 9 1 9 10
M  V30 10 2 10 11
M  V30 11 1 11 12
M  V30 12 2 12 13
M  V30 13 1 13 14
M  V30 14 1 14 15
M  V30 15 1 15 16
M  V30 16 1 16 17
M  V30 17 1 16 18
M  V30 18 1 16 19
M  V30 19 2 14 20
M  V30 20 2 9 21
M  V30 21 1 21 22
M  V30 22 2 22 23
M  V30 23 1 23 24
M  V30 24 2 24 25
M  V30 25 1 25 26
M  V30 26 1 25 27
M  V30 27 2 27 28
M  V30 28 1 21 29
M  V30 29 2 29 30
M  V30 30 1 30 31
M  V30 31 2 31 5
M  V30 32 1 30 8
M  V30 33 1 20 10
M  V30 34 1 28 22
M  V30 35 1 1 32
M  V30 36 1 1 33
M  V30 37 1 1 34
M  V30 38 1 3 35
M  V30 39 1 3 36
M  V30 40 1 3 37
M  V30 41 1 4 38
M  V30 42 1 4 39
M  V30 43 1 6 40
M  V30 44 1 7 41
M  V30 45 1 11 42
M  V30 46 1 12 43
M  V30 47 1 15 44
M  V30 48 1 17 45
M  V30 49 1 17 46
M  V30 50 1 17 47
M  V30 51 1 18 48
M  V30 52 1 18 49
M  V30 53 1 18 50
M  V30 54 1 19 51
M  V30 55 1 19 52
M  V30 56 1 19 53
M  V30 57 1 23 54
M  V30 58 1 24 55
M  V30 59 1 27 56
M  V30 60 1 28 57
M  V30 61 1 31 58
M  V30 END BOND
M  V30 END CTAB
M  END
>  <Dataset>  (885) 
ChEMBL_Kinases

>  <Ligand_Instance>  (885) 
nan

>  <PDB_ID>  (885) 
nan

>  <Standardized_SMILES>  (885) 
CN(C)Cc1ccn2c(-c3ccnc(NC(C)(C)C)n3)c(-c3ccc(F)cc3)nc2c1

>  <Name>  (885) 
nan

>  <Pocket>  (885) 
nan

>  <ATP_Site>  (885) 
nan

>  <Peripheral>  (885) 
nan

>  <Num_H_Atoms_ProtBoundConf>  (885) 
nan

>  <Num_Resolved_Atoms>  (885) 
nan

>  <Num_Not_Resolved_Atoms>  (885) 
nan

$$$$
CHEMBL233010
     RDKit          3D

  0  0  0  0  0  0  0  0  0  0999 V3000
M  V30 BEGIN CTAB
M  V30 COUNTS 67 70 0 0 0
M  V30 BEGIN ATOM
M  V30 1 C 4.004758 -1.676332 5.434794 0
M  V30 2 C 3.663985 -0.395119 4.627539 0
M  V30 3 C 2.223566 -0.506441 4.288518 0
M  V30 4 N 4.605850 -0.358552 3.575950 0
M  V30 5 C 5.976606 -0.492042 4.113466 0
M  V30 6 C 4.549893 0.655770 2.596039 0
M  V30 7 C 3.350435 0.649530 1.750794 0
M  V30 8 C 2.145406 1.349232 1.811122 0
M  V30 9 C 1.154867 1.159605 0.878035 0
M  V30 10 N 1.283223 0.296400 -0.141167 0
M  V30 11 C 0.405716 0.011890 -1.118783 0
M  V30 12 C -0.920759 0.594908 -1.295593 0
M  V30 13 C -1.140275 1.351305 -2.428865 0
M  V30 14 C -2.408562 1.908568 -2.601425 0
M  V30 15 N -3.395875 1.740921 -1.729014 0
M  V30 16 C -3.151504 0.988572 -0.618239 0
M  V30 17 N -4.205138 0.809388 0.315113 0
M  V30 18 C -5.280451 -0.106845 0.519968 0
M  V30 19 C -4.857378 -1.544911 0.706942 0
M  V30 20 C -6.165243 -2.324135 0.907229 0
M  V30 21 C -3.971326 -1.753180 1.887753 0
M  V30 22 C -4.177694 -2.079661 -0.525734 0
M  V30 23 N -1.935885 0.432745 -0.416960 0
M  V30 24 C 1.028823 -0.926882 -1.891990 0
M  V30 25 C 0.504461 -1.573193 -3.089952 0
M  V30 26 C -0.636829 -2.352302 -2.992123 0
M  V30 27 C -1.096447 -2.943056 -4.149208 0
M  V30 28 C -0.479996 -2.793860 -5.374772 0
M  V30 29 F -0.939460 -3.380314 -6.518513 0
M  V30 30 C 0.673001 -2.006158 -5.470044 0
M  V30 31 C 1.153971 -1.401204 -4.317417 0
M  V30 32 N 2.260028 -1.178035 -1.356835 0
M  V30 33 C 2.428178 -0.418171 -0.262149 0
M  V30 34 C 3.429705 -0.237035 0.667404 0
M  V30 35 H 4.311633 -2.463802 4.726817 0
M  V30 36 H 3.082811 -1.957503 5.960264 0
M  V30 37 H 4.841614 -1.447574 6.130299 0
M  V30 38 H 3.776254 0.460512 5.342826 0
M  V30 39 H 1.668552 0.466849 4.445066 0
M  V30 40 H 1.973544 -1.025056 3.360745 0
M  V30 41 H 1.738398 -1.158079 5.092053 0
M  V30 42 H 6.220059 0.267187 4.853824 0
M  V30 43 H 6.656516 -0.463003 3.214297 0
M  V30 44 H 6.103154 -1.511083 4.530827 0
M  V30 45 H 5.454243 0.599538 1.910063 0
M  V30 46 H 4.640701 1.691555 3.016472 0
M  V30 47 H 2.149731 2.020896 2.676485 0
M  V30 48 H 0.275296 1.788054 1.071166 0
M  V30 49 H -0.391703 1.542196 -3.194653 0
M  V30 50 H -2.587269 2.506608 -3.494446 0
M  V30 51 H -4.002453 1.639110 0.946831 0
M  V30 52 H -5.817458 0.214137 1.429202 0
M  V30 53 H -5.991282 -0.092259 -0.345003 0
M  V30 54 H -5.942233 -3.399325 0.876764 0
M  V30 55 H -6.898177 -1.980171 0.167369 0
M  V30 56 H -6.526408 -1.987193 1.916042 0
M  V30 57 H -3.859561 -0.883002 2.535355 0
M  V30 58 H -2.947180 -2.136870 1.613039 0
M  V30 59 H -4.387898 -2.566191 2.531877 0
M  V30 60 H -3.169986 -2.452595 -0.262578 0
M  V30 61 H -4.037867 -1.222331 -1.234096 0
M  V30 62 H -4.791592 -2.880349 -1.010049 0
M  V30 63 H -1.183929 -2.524980 -2.071861 0
M  V30 64 H -1.982057 -3.575548 -4.191252 0
M  V30 65 H 1.205835 -1.847450 -6.400997 0
M  V30 66 H 2.052453 -0.765530 -4.291197 0
M  V30 67 H 4.297369 -0.858372 0.471341 0
M  V30 END ATOM
M  V30 BEGIN BOND
M  V30 1 1 1 2
M  V30 2 1 2 3
M  V30 3 1 2 4
M  V30 4 1 4 5
M  V30 5 1 4 6
M  V30 6 1 6 7
M  V30 7 1 7 8
M  V30 8 2 8 9
M  V30 9 1 9 10
M  V30 10 1 10 11
M  V30 11 1 11 12
M  V30 12 2 12 13
M  V30 13 1 13 14
M  V30 14 2 14 15
M  V30 15 1 15 16
M  V30 16 1 16 17
M  V30 17 1 17 18
M  V30 18 1 18 19
M  V30 19 1 19 20
M  V30 20 1 19 21
M  V30 21 1 19 22
M  V30 22 2 16 23
M  V30 23 2 11 24
M  V30 24 1 24 25
M  V30 25 2 25 26
M  V30 26 1 26 27
M  V30 27 2 27 28
M  V30 28 1 28 29
M  V30 29 1 28 30
M  V30 30 2 30 31
M  V30 31 1 24 32
M  V30 32 2 32 33
M  V30 33 1 33 34
M  V30 34 2 34 7
M  V30 35 1 33 10
M  V30 36 1 23 12
M  V30 37 1 31 25
M  V30 38 1 1 35
M  V30 39 1 1 36
M  V30 40 1 1 37
M  V30 41 1 2 38
M  V30 42 1 3 39
M  V30 43 1 3 40
M  V30 44 1 3 41
M  V30 45 1 5 42
M  V30 46 1 5 43
M  V30 47 1 5 44
M  V30 48 1 6 45
M  V30 49 1 6 46
M  V30 50 1 8 47
M  V30 51 1 9 48
M  V30 52 1 13 49
M  V30 53 1 14 50
M  V30 54 1 17 51
M  V30 55 1 18 52
M  V30 56 1 18 53
M  V30 57 1 20 54
M  V30 58 1 20 55
M  V30 59 1 20 56
M  V30 60 1 21 57
M  V30 61 1 21 58
M  V30 62 1 21 59
M  V30 63 1 22 60
M  V30 64 1 22 61
M  V30 65 1 22 62
M  V30 66 1 26 63
M  V30 67 1 27 64
M  V30 68 1 30 65
M  V30 69 1 31 66
M  V30 70 1 34 67
M  V30 END BOND
M  V30 END CTAB
M  END
>  <Dataset>  (886) 
ChEMBL_Kinases

>  <Ligand_Instance>  (886) 
nan

>  <PDB_ID>  (886) 
nan

>  <Standardized_SMILES>  (886) 
CC(C)N(C)Cc1ccn2c(-c3ccnc(NCC(C)(C)C)n3)c(-c3ccc(F)cc3)nc2c1

>  <Name>  (886) 
nan

>  <Pocket>  (886) 
nan

>  <ATP_Site>  (886) 
nan

>  <Peripheral>  (886) 
nan

>  <Num_H_Atoms_ProtBoundConf>  (886) 
nan

>  <Num_Resolved_Atoms>  (886) 
nan

>  <Num_Not_Resolved_Atoms>  (886) 
nan

$$$$
CHEMBL233009
     RDKit          3D

  0  0  0  0  0  0  0  0  0  0999 V3000
M  V30 BEGIN CTAB
M  V30 COUNTS 56 60 0 0 0
M  V30 BEGIN ATOM
M  V30 1 C 4.705415 -0.196238 3.509718 0
M  V30 2 N 5.291466 -1.083736 2.602036 0
M  V30 3 C 5.218413 -2.460901 2.889775 0
M  V30 4 C 5.377471 -0.711370 1.248745 0
M  V30 5 C 4.016514 -0.513954 0.694999 0
M  V30 6 C 3.378372 0.723758 0.793241 0
M  V30 7 C 2.106333 0.824800 0.218384 0
M  V30 8 N 1.561577 -0.246928 -0.393763 0
M  V30 9 C 0.366115 -0.347886 -1.000818 0
M  V30 10 C -0.718886 0.614834 -1.175366 0
M  V30 11 C -1.216889 1.315275 -2.262904 0
M  V30 12 C -2.298389 2.126751 -2.038952 0
M  V30 13 N -2.908703 2.290677 -0.843505 0
M  V30 14 C -2.394563 1.585804 0.216338 0
M  V30 15 N -3.241842 1.920186 1.335091 0
M  V30 16 C -3.752980 0.815679 2.090778 0
M  V30 17 C -4.894945 0.966893 2.845645 0
M  V30 18 C -5.402533 -0.087842 3.587256 0
M  V30 19 C -4.804368 -1.328947 3.613696 0
M  V30 20 C -3.641267 -1.474820 2.842082 0
M  V30 21 C -3.165786 -0.413276 2.120092 0
M  V30 22 N -1.346244 0.799539 -0.003224 0
M  V30 23 C 0.166857 -1.637444 -1.523367 0
M  V30 24 C -0.985521 -2.165777 -2.260108 0
M  V30 25 C -1.408490 -1.826508 -3.513232 0
M  V30 26 C -2.520588 -2.387761 -4.099816 0
M  V30 27 C -3.231493 -3.341797 -3.368501 0
M  V30 28 F -4.322844 -3.870973 -3.990200 0
M  V30 29 C -2.805828 -3.684042 -2.109420 0
M  V30 30 C -1.688594 -3.119085 -1.519848 0
M  V30 31 N 1.305072 -2.286360 -1.190661 0
M  V30 32 C 2.134677 -1.466717 -0.520055 0
M  V30 33 C 3.410735 -1.590983 0.051565 0
M  V30 34 H 4.736573 -0.537722 4.578253 0
M  V30 35 H 5.163067 0.836515 3.437944 0
M  V30 36 H 3.627145 -0.051943 3.281484 0
M  V30 37 H 5.857771 -3.113763 2.293631 0
M  V30 38 H 4.161035 -2.783259 2.618068 0
M  V30 39 H 5.270355 -2.606261 3.984525 0
M  V30 40 H 5.993105 0.194089 1.068930 0
M  V30 41 H 5.850716 -1.510763 0.604920 0
M  V30 42 H 3.855302 1.548845 1.294246 0
M  V30 43 H 1.549941 1.757989 0.252968 0
M  V30 44 H -0.647949 1.102410 -3.141399 0
M  V30 45 H -2.627929 2.626073 -2.953102 0
M  V30 46 H -3.453578 2.914706 1.594469 0
M  V30 47 H -5.442950 1.909113 2.887366 0
M  V30 48 H -6.320816 0.051501 4.182214 0
M  V30 49 H -5.162622 -2.179600 4.175586 0
M  V30 50 H -3.157038 -2.454001 2.859033 0
M  V30 51 H -2.277197 -0.629414 1.582602 0
M  V30 52 H -0.835027 -1.096653 -4.032678 0
M  V30 53 H -2.793274 -2.057029 -5.110394 0
M  V30 54 H -3.434324 -4.429830 -1.647377 0
M  V30 55 H -1.487595 -3.497747 -0.522119 0
M  V30 56 H 3.910532 -2.539971 -0.012028 0
M  V30 END ATOM
M  V30 BEGIN BOND
M  V30 1 1 1 2
M  V30 2 1 2 3
M  V30 3 1 2 4
M  V30 4 1 4 5
M  V30 5 1 5 6
M  V30 6 2 6 7
M  V30 7 1 7 8
M  V30 8 1 8 9
M  V30 9 1 9 10
M  V30 10 2 10 11
M  V30 11 1 11 12
M  V30 12 2 12 13
M  V30 13 1 13 14
M  V30 14 1 14 15
M  V30 15 1 15 16
M  V30 16 2 16 17
M  V30 17 1 17 18
M  V30 18 2 18 19
M  V30 19 1 19 20
M  V30 20 2 20 21
M  V30 21 2 14 22
M  V30 22 2 9 23
M  V30 23 1 23 24
M  V30 24 2 24 25
M  V30 25 1 25 26
M  V30 26 2 26 27
M  V30 27 1 27 28
M  V30 28 1 27 29
M  V30 29 2 29 30
M  V30 30 1 23 31
M  V30 31 2 31 32
M  V30 32 1 32 33
M  V30 33 2 33 5
M  V30 34 1 32 8
M  V30 35 1 22 10
M  V30 36 1 30 24
M  V30 37 1 21 16
M  V30 38 1 1 34
M  V30 39 1 1 35
M  V30 40 1 1 36
M  V30 41 1 3 37
M  V30 42 1 3 38
M  V30 43 1 3 39
M  V30 44 1 4 40
M  V30 45 1 4 41
M  V30 46 1 6 42
M  V30 47 1 7 43
M  V30 48 1 11 44
M  V30 49 1 12 45
M  V30 50 1 15 46
M  V30 51 1 17 47
M  V30 52 1 18 48
M  V30 53 1 19 49
M  V30 54 1 20 50
M  V30 55 1 21 51
M  V30 56 1 25 52
M  V30 57 1 26 53
M  V30 58 1 29 54
M  V30 59 1 30 55
M  V30 60 1 33 56
M  V30 END BOND
M  V30 END CTAB
M  END
>  <Dataset>  (887) 
ChEMBL_Kinases

>  <Ligand_Instance>  (887) 
nan

>  <PDB_ID>  (887) 
nan

>  <Standardized_SMILES>  (887) 
CN(C)Cc1ccn2c(-c3ccnc(Nc4ccccc4)n3)c(-c3ccc(F)cc3)nc2c1

>  <Name>  (887) 
nan

>  <Pocket>  (887) 
nan

>  <ATP_Site>  (887) 
nan

>  <Peripheral>  (887) 
nan

>  <Num_H_Atoms_ProtBoundConf>  (887) 
nan

>  <Num_Resolved_Atoms>  (887) 
nan

>  <Num_Not_Resolved_Atoms>  (887) 
nan

$$$$
CHEMBL233008
     RDKit          3D

  0  0  0  0  0  0  0  0  0  0999 V3000
M  V30 BEGIN CTAB
M  V30 COUNTS 73 77 0 0 0
M  V30 BEGIN ATOM
M  V30 1 C 4.131636 -0.617914 5.108128 0
M  V30 2 C 4.182446 -0.321311 3.624229 0 CFG=2
M  V30 3 N 2.871257 0.068089 3.200072 0
M  V30 4 C 2.664049 0.401260 1.841954 0
M  V30 5 N 3.712782 0.343523 0.976354 0
M  V30 6 C 3.536171 0.658374 -0.324267 0
M  V30 7 C 2.283249 1.047136 -0.806379 0
M  V30 8 C 1.236118 1.097398 0.092072 0
M  V30 9 C -0.042490 1.509516 -0.476045 0
M  V30 10 C -0.396596 2.723055 -1.071059 0
M  V30 11 C 0.499607 3.861646 -1.238311 0
M  V30 12 C 0.823957 4.336236 -2.509543 0
M  V30 13 C 1.675352 5.418499 -2.651278 0
M  V30 14 C 2.234136 6.068701 -1.571233 0
M  V30 15 F 3.051917 7.116061 -1.860151 0
M  V30 16 C 1.910389 5.595343 -0.310081 0
M  V30 17 C 1.063575 4.518165 -0.156244 0
M  V30 18 N -1.688229 2.558450 -1.415650 0
M  V30 19 C -2.142712 1.350027 -1.079318 0
M  V30 20 C -3.401431 0.819933 -1.267055 0
M  V30 21 C -3.653079 -0.472223 -0.832398 0
M  V30 22 C -4.874869 -1.281505 -0.903979 0
M  V30 23 N -4.976630 -2.116254 -2.062656 0
M  V30 24 C -4.969575 -1.419231 -3.312812 0
M  V30 25 C -5.928456 -3.174652 -1.964672 0
M  V30 26 C -5.498136 -4.230806 -0.965105 0
M  V30 27 N -4.236684 -4.830438 -1.330506 0
M  V30 28 S -3.824066 -6.015555 -0.141728 0
M  V30 29 C -3.629547 -5.274261 1.455143 0
M  V30 30 O -2.506559 -6.661332 -0.507275 0
M  V30 31 O -4.934430 -7.033520 -0.076255 0
M  V30 32 C -2.613234 -1.162933 -0.227720 0
M  V30 33 C -1.355044 -0.576267 -0.062432 0
M  V30 34 N -1.132539 0.686438 -0.494698 0
M  V30 35 N 1.456412 0.775693 1.378278 0
M  V30 36 C 4.677910 -1.550037 2.951307 0
M  V30 37 C 3.711213 -2.535365 2.911687 0
M  V30 38 C 3.965001 -3.769288 2.325889 0
M  V30 39 C 5.215436 -3.995816 1.777810 0
M  V30 40 C 6.171201 -3.019908 1.817595 0
M  V30 41 C 5.923300 -1.787582 2.400574 0
M  V30 42 H 5.167850 -0.696715 5.548449 0
M  V30 43 H 3.669876 0.258056 5.609415 0
M  V30 44 H 3.567835 -1.523151 5.340185 0
M  V30 45 H 4.880856 0.512062 3.440373 0
M  V30 46 H 2.044589 0.118943 3.858873 0
M  V30 47 H 4.414451 0.587390 -0.942062 0
M  V30 48 H 2.255968 1.280209 -1.880669 0
M  V30 49 H 0.415485 3.866400 -3.411039 0
M  V30 50 H 1.892279 5.745719 -3.673417 0
M  V30 51 H 2.373725 6.140547 0.510852 0
M  V30 52 H 0.850064 4.196597 0.853325 0
M  V30 53 H -4.245827 1.287264 -1.715999 0
M  V30 54 H -5.724940 -0.540393 -0.985731 0
M  V30 55 H -5.068275 -1.825944 0.042083 0
M  V30 56 H -4.335240 -0.531491 -3.238988 0
M  V30 57 H -4.460720 -2.103047 -4.056532 0
M  V30 58 H -6.003694 -1.183419 -3.662987 0
M  V30 59 H -6.067906 -3.704553 -2.926085 0
M  V30 60 H -6.941579 -2.799943 -1.683645 0
M  V30 61 H -6.254522 -5.070418 -0.933625 0
M  V30 62 H -5.442928 -3.806755 0.051457 0
M  V30 63 H -4.218936 -5.207162 -2.283912 0
M  V30 64 H -3.311162 -4.207388 1.378493 0
M  V30 65 H -4.555355 -5.274906 2.064154 0
M  V30 66 H -2.856902 -5.782804 2.079175 0
M  V30 67 H -2.646153 -2.169789 0.163001 0
M  V30 68 H -0.519922 -1.079989 0.403181 0
M  V30 69 H 2.702273 -2.473532 3.306748 0
M  V30 70 H 3.252775 -4.584440 2.261239 0
M  V30 71 H 5.449044 -4.942189 1.313722 0
M  V30 72 H 7.162157 -3.150647 1.402917 0
M  V30 73 H 6.602760 -0.947482 2.487933 0
M  V30 END ATOM
M  V30 BEGIN BOND
M  V30 1 1 1 2
M  V30 2 1 2 3
M  V30 3 1 3 4
M  V30 4 2 4 5
M  V30 5 1 5 6
M  V30 6 2 6 7
M  V30 7 1 7 8
M  V30 8 1 8 9
M  V30 9 2 9 10
M  V30 10 1 10 11
M  V30 11 2 11 12
M  V30 12 1 12 13
M  V30 13 2 13 14
M  V30 14 1 14 15
M  V30 15 1 14 16
M  V30 16 2 16 17
M  V30 17 1 10 18
M  V30 18 2 18 19
M  V30 19 1 19 20
M  V30 20 2 20 21
M  V30 21 1 21 22
M  V30 22 1 22 23
M  V30 23 1 23 24
M  V30 24 1 23 25
M  V30 25 1 25 26
M  V30 26 1 26 27
M  V30 27 1 27 28
M  V30 28 1 28 29
M  V30 29 2 28 30
M  V30 30 2 28 31
M  V30 31 1 21 32
M  V30 32 2 32 33
M  V30 33 1 33 34
M  V30 34 2 8 35
M  V30 35 1 2 36
M  V30 36 2 36 37
M  V30 37 1 37 38
M  V30 38 2 38 39
M  V30 39 1 39 40
M  V30 40 2 40 41
M  V30 41 1 35 4
M  V30 42 1 41 36
M  V30 43 1 34 9
M  V30 44 1 17 11
M  V30 45 1 34 19
M  V30 46 1 1 42
M  V30 47 1 1 43
M  V30 48 1 1 44
M  V30 49 1 2 45 CFG=1
M  V30 50 1 3 46
M  V30 51 1 6 47
M  V30 52 1 7 48
M  V30 53 1 12 49
M  V30 54 1 13 50
M  V30 55 1 16 51
M  V30 56 1 17 52
M  V30 57 1 20 53
M  V30 58 1 22 54
M  V30 59 1 22 55
M  V30 60 1 24 56
M  V30 61 1 24 57
M  V30 62 1 24 58
M  V30 63 1 25 59
M  V30 64 1 25 60
M  V30 65 1 26 61
M  V30 66 1 26 62
M  V30 67 1 27 63
M  V30 68 1 29 64
M  V30 69 1 29 65
M  V30 70 1 29 66
M  V30 71 1 32 67
M  V30 72 1 33 68
M  V30 73 1 37 69
M  V30 74 1 38 70
M  V30 75 1 39 71
M  V30 76 1 40 72
M  V30 77 1 41 73
M  V30 END BOND
M  V30 END CTAB
M  END
>  <Dataset>  (888) 
ChEMBL_Kinases

>  <Ligand_Instance>  (888) 
nan

>  <PDB_ID>  (888) 
nan

>  <Standardized_SMILES>  (888) 
C[C@H](Nc1nccc(-c2c(-c3ccc(F)cc3)nc3cc(CN(C)CCNS(C)(=O)=O)ccn23)n1)c1ccccc1

>  <Name>  (888) 
nan

>  <Pocket>  (888) 
nan

>  <ATP_Site>  (888) 
nan

>  <Peripheral>  (888) 
nan

>  <Num_H_Atoms_ProtBoundConf>  (888) 
nan

>  <Num_Resolved_Atoms>  (888) 
nan

>  <Num_Not_Resolved_Atoms>  (888) 
nan

$$$$
CHEMBL233002
     RDKit          3D

  0  0  0  0  0  0  0  0  0  0999 V3000
M  V30 BEGIN CTAB
M  V30 COUNTS 40 43 0 0 0
M  V30 BEGIN ATOM
M  V30 1 N -0.576597 1.446826 2.770649 0
M  V30 2 C -0.788284 0.361467 2.362344 0
M  V30 3 C -1.053271 -0.978294 1.860737 0
M  V30 4 C -0.475523 -1.427032 0.742128 0
M  V30 5 N 0.449757 -0.735562 -0.125334 0
M  V30 6 C 1.847925 -0.683395 -0.087086 0
M  V30 7 O 2.639681 -1.240998 0.732101 0
M  V30 8 C 2.536237 0.105140 -1.104612 0
M  V30 9 C 3.416949 -0.583364 -1.935791 0
M  V30 10 C 4.129288 0.075555 -2.944956 0
M  V30 11 C 3.967209 1.432905 -3.132840 0
M  V30 12 F 4.653340 2.096822 -4.112451 0
M  V30 13 C 3.092709 2.120946 -2.308489 0
M  V30 14 C 2.894456 3.478754 -2.454198 0
M  V30 15 C 2.015300 4.132438 -1.615281 0
M  V30 16 C 1.300732 3.480076 -0.605735 0
M  V30 17 C 1.525365 2.128187 -0.492014 0
M  V30 18 C 2.397605 1.460579 -1.319165 0
M  V30 19 S -1.078244 -3.061316 0.528994 0
M  V30 20 C -2.116060 -3.087098 1.992148 0
M  V30 21 C -1.912042 -1.796610 2.548738 0
M  V30 22 C -2.723698 -1.672616 3.789852 0
M  V30 23 C -2.442872 -2.831084 4.719453 0
M  V30 24 C -2.677380 -4.159933 4.068975 0
M  V30 25 C -3.030125 -4.105118 2.624225 0
M  V30 26 H -0.071015 -0.216128 -0.871554 0
M  V30 27 H 3.581901 -1.647211 -1.831731 0
M  V30 28 H 4.798757 -0.505748 -3.561434 0
M  V30 29 H 3.432474 4.032027 -3.231640 0
M  V30 30 H 1.844061 5.196762 -1.711257 0
M  V30 31 H 0.624350 3.986476 0.039106 0
M  V30 32 H 0.976485 1.624212 0.283917 0
M  V30 33 H -3.792425 -1.626618 3.563038 0
M  V30 34 H -2.436036 -0.756275 4.345258 0
M  V30 35 H -3.201950 -2.734873 5.547844 0
M  V30 36 H -1.463041 -2.748250 5.227070 0
M  V30 37 H -3.473397 -4.751958 4.583250 0
M  V30 38 H -1.742595 -4.767026 4.185347 0
M  V30 39 H -2.781153 -5.060170 2.119856 0
M  V30 40 H -4.085393 -3.830940 2.516367 0
M  V30 END ATOM
M  V30 BEGIN BOND
M  V30 1 3 1 2
M  V30 2 1 2 3
M  V30 3 2 3 4
M  V30 4 1 4 5
M  V30 5 1 5 6
M  V30 6 2 6 7
M  V30 7 1 6 8
M  V30 8 2 8 9
M  V30 9 1 9 10
M  V30 10 2 10 11
M  V30 11 1 11 12
M  V30 12 1 11 13
M  V30 13 2 13 14
M  V30 14 1 14 15
M  V30 15 2 15 16
M  V30 16 1 16 17
M  V30 17 2 17 18
M  V30 18 1 4 19
M  V30 19 1 19 20
M  V30 20 2 20 21
M  V30 21 1 21 22
M  V30 22 1 22 23
M  V30 23 1 23 24
M  V30 24 1 24 25
M  V30 25 1 21 3
M  V30 26 1 18 8
M  V30 27 1 25 20
M  V30 28 1 18 13
M  V30 29 1 5 26
M  V30 30 1 9 27
M  V30 31 1 10 28
M  V30 32 1 14 29
M  V30 33 1 15 30
M  V30 34 1 16 31
M  V30 35 1 17 32
M  V30 36 1 22 33
M  V30 37 1 22 34
M  V30 38 1 23 35
M  V30 39 1 23 36
M  V30 40 1 24 37
M  V30 41 1 24 38
M  V30 42 1 25 39
M  V30 43 1 25 40
M  V30 END BOND
M  V30 END CTAB
M  END
>  <Dataset>  (889) 
ChEMBL_Kinases

>  <Ligand_Instance>  (889) 
nan

>  <PDB_ID>  (889) 
nan

>  <Standardized_SMILES>  (889) 
N#Cc1c(NC(=O)c2ccc(F)c3ccccc23)sc2c1CCCC2

>  <Name>  (889) 
nan

>  <Pocket>  (889) 
nan

>  <ATP_Site>  (889) 
nan

>  <Peripheral>  (889) 
nan

>  <Num_H_Atoms_ProtBoundConf>  (889) 
nan

>  <Num_Resolved_Atoms>  (889) 
nan

>  <Num_Not_Resolved_Atoms>  (889) 
nan

$$$$
CHEMBL233000
     RDKit          3D

  0  0  0  0  0  0  0  0  0  0999 V3000
M  V30 BEGIN CTAB
M  V30 COUNTS 34 36 0 0 0
M  V30 BEGIN ATOM
M  V30 1 N 1.525694 -3.173556 1.368303 0
M  V30 2 C 0.657883 -2.379290 1.374211 0
M  V30 3 C -0.426456 -1.399876 1.358513 0
M  V30 4 C -0.497982 -0.465884 0.417205 0
M  V30 5 N 0.384630 -0.227607 -0.689919 0
M  V30 6 C 1.504473 0.635644 -0.587975 0
M  V30 7 O 1.723248 1.206439 0.512160 0
M  V30 8 C 2.428452 0.907788 -1.686100 0
M  V30 9 C 3.473218 1.771786 -1.433433 0
M  V30 10 C 4.358135 2.032506 -2.485074 0
M  V30 11 C 4.272845 1.504900 -3.733698 0
M  V30 12 C 3.199938 0.643296 -3.924213 0
M  V30 13 C 2.287696 0.339087 -2.935310 0
M  V30 14 S -2.002319 0.498211 0.822311 0
M  V30 15 C -2.382238 -0.483365 2.249546 0
M  V30 16 C -1.381281 -1.444479 2.325698 0
M  V30 17 C -1.654066 -2.300068 3.513783 0
M  V30 18 C -3.050898 -2.918034 3.425896 0
M  V30 19 C -4.110184 -1.859014 3.370135 0
M  V30 20 C -3.466004 -0.496155 3.305885 0
M  V30 21 H 0.193213 -0.706290 -1.596740 0
M  V30 22 H 3.634788 2.248609 -0.472268 0
M  V30 23 H 5.185665 2.722872 -2.268765 0
M  V30 24 H 4.975038 1.733007 -4.511180 0
M  V30 25 H 3.060905 0.175539 -4.905671 0
M  V30 26 H 1.473482 -0.336874 -3.139265 0
M  V30 27 H -1.538918 -1.730706 4.456120 0
M  V30 28 H -0.922490 -3.130462 3.579794 0
M  V30 29 H -3.207866 -3.502914 4.343718 0
M  V30 30 H -3.046724 -3.568224 2.523150 0
M  V30 31 H -4.837547 -1.867064 4.176350 0
M  V30 32 H -4.663384 -1.988423 2.400258 0
M  V30 33 H -2.940355 -0.266040 4.252186 0
M  V30 34 H -4.212199 0.281154 3.052630 0
M  V30 END ATOM
M  V30 BEGIN BOND
M  V30 1 3 1 2
M  V30 2 1 2 3
M  V30 3 2 3 4
M  V30 4 1 4 5
M  V30 5 1 5 6
M  V30 6 2 6 7
M  V30 7 1 6 8
M  V30 8 2 8 9
M  V30 9 1 9 10
M  V30 10 2 10 11
M  V30 11 1 11 12
M  V30 12 2 12 13
M  V30 13 1 4 14
M  V30 14 1 14 15
M  V30 15 2 15 16
M  V30 16 1 16 17
M  V30 17 1 17 18
M  V30 18 1 18 19
M  V30 19 1 19 20
M  V30 20 1 16 3
M  V30 21 1 13 8
M  V30 22 1 20 15
M  V30 23 1 5 21
M  V30 24 1 9 22
M  V30 25 1 10 23
M  V30 26 1 11 24
M  V30 27 1 12 25
M  V30 28 1 13 26
M  V30 29 1 17 27
M  V30 30 1 17 28
M  V30 31 1 18 29
M  V30 32 1 18 30
M  V30 33 1 19 31
M  V30 34 1 19 32
M  V30 35 1 20 33
M  V30 36 1 20 34
M  V30 END BOND
M  V30 END CTAB
M  END
>  <Dataset>  (890) 
ChEMBL_Kinases

>  <Ligand_Instance>  (890) 
nan

>  <PDB_ID>  (890) 
nan

>  <Standardized_SMILES>  (890) 
N#Cc1c(NC(=O)c2ccccc2)sc2c1CCCC2

>  <Name>  (890) 
nan

>  <Pocket>  (890) 
nan

>  <ATP_Site>  (890) 
nan

>  <Peripheral>  (890) 
nan

>  <Num_H_Atoms_ProtBoundConf>  (890) 
nan

>  <Num_Resolved_Atoms>  (890) 
nan

>  <Num_Not_Resolved_Atoms>  (890) 
nan

$$$$
CHEMBL232810
     RDKit          3D

  0  0  0  0  0  0  0  0  0  0999 V3000
M  V30 BEGIN CTAB
M  V30 COUNTS 68 73 0 0 0
M  V30 BEGIN ATOM
M  V30 1 C 5.611006 1.485777 -0.527683 0
M  V30 2 O 4.682862 1.739235 0.514359 0
M  V30 3 C 3.647743 0.856566 0.657696 0
M  V30 4 C 3.423021 -0.260799 -0.121114 0
M  V30 5 C 2.369027 -1.136660 0.045141 0
M  V30 6 C 1.457245 -0.881988 1.075864 0
M  V30 7 C 1.692530 0.237995 1.847462 0
M  V30 8 C 2.763115 1.123517 1.673969 0
M  V30 9 C 2.822929 2.269535 2.611421 0
M  V30 10 N 2.365290 3.526649 1.962917 0
M  V30 11 C 1.054850 3.357325 1.436441 0
M  V30 12 C 0.295388 4.516665 0.936673 0
M  V30 13 N 0.827966 5.327527 -0.097080 0
M  V30 14 C 1.883348 6.216802 0.238809 0
M  V30 15 C 1.207026 7.470237 0.821848 0
M  V30 16 C -0.112989 7.477177 0.110290 0
M  V30 17 C -0.178919 6.184308 -0.681416 0
M  V30 18 C 0.394360 -1.920538 1.107636 0
M  V30 19 C 0.776100 -2.824127 -0.028328 0
M  V30 20 C 0.380437 -3.975493 -0.695305 0
M  V30 21 C -0.804562 -4.775238 -0.358104 0
M  V30 22 C -1.580116 -5.137761 -1.441676 0
M  V30 23 C -2.739284 -5.905544 -1.269723 0
M  V30 24 C -3.076217 -6.283843 0.009701 0
M  V30 25 C -4.295222 -7.082842 0.128427 0
M  V30 26 C -5.032033 -6.947934 1.295228 0
M  V30 27 C -6.210755 -7.680775 1.475780 0
M  V30 28 C -6.642655 -8.541497 0.489524 0
M  V30 29 O -7.815037 -9.250906 0.702948 0
M  V30 30 C -5.890399 -8.642661 -0.636600 0
M  V30 31 C -4.712352 -7.944871 -0.878693 0
M  V30 32 C -2.301601 -5.921187 1.087408 0
M  V30 33 C -1.156390 -5.163561 0.925935 0
M  V30 34 N 1.287105 -4.168304 -1.670534 0
M  V30 35 N 2.215851 -3.217558 -1.653923 0
M  V30 36 C 1.933139 -2.353304 -0.638789 0
M  V30 37 H 6.510592 2.156459 -0.396826 0
M  V30 38 H 6.039136 0.452633 -0.473528 0
M  V30 39 H 5.140300 1.606696 -1.501915 0
M  V30 40 H 4.139813 -0.455675 -0.926794 0
M  V30 41 H 0.965015 0.416039 2.648073 0
M  V30 42 H 2.153944 2.126230 3.473788 0
M  V30 43 H 3.834768 2.482534 2.982770 0
M  V30 44 H 3.079981 3.708180 1.187669 0
M  V30 45 H 1.171539 2.631122 0.565982 0
M  V30 46 H 0.465744 2.823432 2.243937 0
M  V30 47 H -0.689428 4.108138 0.521023 0
M  V30 48 H -0.079109 5.168588 1.790644 0
M  V30 49 H 2.655431 5.874404 0.916942 0
M  V30 50 H 2.322392 6.589001 -0.727666 0
M  V30 51 H 1.088822 7.295240 1.923116 0
M  V30 52 H 1.829995 8.354358 0.675300 0
M  V30 53 H -0.919536 7.420294 0.898771 0
M  V30 54 H -0.288817 8.374522 -0.498379 0
M  V30 55 H -0.005523 6.363189 -1.765518 0
M  V30 56 H -1.171335 5.707541 -0.557521 0
M  V30 57 H 0.380644 -2.473955 2.067558 0
M  V30 58 H -0.602495 -1.465852 0.929802 0
M  V30 59 H -1.350788 -4.859099 -2.478745 0
M  V30 60 H -3.329806 -6.176155 -2.134868 0
M  V30 61 H -4.751855 -6.292626 2.107717 0
M  V30 62 H -6.801800 -7.582807 2.394927 0
M  V30 63 H -8.722983 -8.787543 0.859252 0
M  V30 64 H -6.246178 -9.328918 -1.408838 0
M  V30 65 H -4.129599 -8.045335 -1.790936 0
M  V30 66 H -2.586223 -6.229520 2.073948 0
M  V30 67 H -0.510093 -4.850581 1.734711 0
M  V30 68 H 3.048423 -3.063322 -2.256135 0
M  V30 END ATOM
M  V30 BEGIN BOND
M  V30 1 1 1 2
M  V30 2 1 2 3
M  V30 3 2 3 4
M  V30 4 1 4 5
M  V30 5 2 5 6
M  V30 6 1 6 7
M  V30 7 2 7 8
M  V30 8 1 8 9
M  V30 9 1 9 10
M  V30 10 1 10 11
M  V30 11 1 11 12
M  V30 12 1 12 13
M  V30 13 1 13 14
M  V30 14 1 14 15
M  V30 15 1 15 16
M  V30 16 1 16 17
M  V30 17 1 6 18
M  V30 18 1 18 19
M  V30 19 1 19 20
M  V30 20 1 20 21
M  V30 21 2 21 22
M  V30 22 1 22 23
M  V30 23 2 23 24
M  V30 24 1 24 25
M  V30 25 2 25 26
M  V30 26 1 26 27
M  V30 27 2 27 28
M  V30 28 1 28 29
M  V30 29 1 28 30
M  V30 30 2 30 31
M  V30 31 1 24 32
M  V30 32 2 32 33
M  V30 33 2 20 34
M  V30 34 1 34 35
M  V30 35 1 35 36
M  V30 36 1 8 3
M  V30 37 1 17 13
M  V30 38 2 36 19
M  V30 39 1 36 5
M  V30 40 1 33 21
M  V30 41 1 31 25
M  V30 42 1 1 37
M  V30 43 1 1 38
M  V30 44 1 1 39
M  V30 45 1 4 40
M  V30 46 1 7 41
M  V30 47 1 9 42
M  V30 48 1 9 43
M  V30 49 1 10 44
M  V30 50 1 11 45
M  V30 51 1 11 46
M  V30 52 1 12 47
M  V30 53 1 12 48
M  V30 54 1 14 49
M  V30 55 1 14 50
M  V30 56 1 15 51
M  V30 57 1 15 52
M  V30 58 1 16 53
M  V30 59 1 16 54
M  V30 60 1 17 55
M  V30 61 1 17 56
M  V30 62 1 18 57
M  V30 63 1 18 58
M  V30 64 1 22 59
M  V30 65 1 23 60
M  V30 66 1 26 61
M  V30 67 1 27 62
M  V30 68 1 29 63
M  V30 69 1 30 64
M  V30 70 1 31 65
M  V30 71 1 32 66
M  V30 72 1 33 67
M  V30 73 1 35 68
M  V30 END BOND
M  V30 END CTAB
M  END
>  <Dataset>  (891) 
ChEMBL_Kinases

>  <Ligand_Instance>  (891) 
nan

>  <PDB_ID>  (891) 
nan

>  <Standardized_SMILES>  (891) 
COc1cc2c(cc1CNCCN1CCCC1)Cc1c(-c3ccc(-c4ccc(O)cc4)cc3)n[nH]c1-2

>  <Name>  (891) 
nan

>  <Pocket>  (891) 
nan

>  <ATP_Site>  (891) 
nan

>  <Peripheral>  (891) 
nan

>  <Num_H_Atoms_ProtBoundConf>  (891) 
nan

>  <Num_Resolved_Atoms>  (891) 
nan

>  <Num_Not_Resolved_Atoms>  (891) 
nan

$$$$
CHEMBL2333117
     RDKit          3D

  0  0  0  0  0  0  0  0  0  0999 V3000
M  V30 BEGIN CTAB
M  V30 COUNTS 41 43 0 0 0
M  V30 BEGIN ATOM
M  V30 1 C -0.372377 -4.109160 -0.406160 0
M  V30 2 C 0.828299 -3.261573 0.004468 0
M  V30 3 C 0.811469 -3.062689 1.481197 0
M  V30 4 N 0.769391 -1.996639 -0.667425 0
M  V30 5 C 1.435599 -0.749928 -0.805899 0
M  V30 6 C 2.406660 -0.722809 -1.781888 0
M  V30 7 C 2.761339 -1.835720 -2.640802 0
M  V30 8 N 3.767210 -1.801172 -3.638564 0
M  V30 9 O 2.392717 -3.019230 -2.802788 0
M  V30 10 N 3.122775 0.407232 -2.013558 0
M  V30 11 N 2.893209 1.502536 -1.299013 0
M  V30 12 C 1.966508 1.554283 -0.334706 0
M  V30 13 C 1.686016 2.668846 0.430682 0
M  V30 14 C 0.693547 2.635716 1.414808 0
M  V30 15 C -0.029839 1.475426 1.639361 0
M  V30 16 C -1.055250 1.490160 2.678288 0
M  V30 17 C -1.752787 2.668985 2.942633 0
M  V30 18 N -2.642920 2.425677 3.942782 0
M  V30 19 N -2.525567 1.141587 4.310084 0
M  V30 20 C -3.272525 0.449621 5.334629 0
M  V30 21 C -1.568546 0.554139 3.556815 0
M  V30 22 C 0.272791 0.379107 0.859838 0
M  V30 23 C 1.238273 0.415058 -0.094885 0
M  V30 24 H -0.501496 -4.928233 0.316537 0
M  V30 25 H -1.269441 -3.444944 -0.246371 0
M  V30 26 H -0.302060 -4.467361 -1.445464 0
M  V30 27 H 1.777279 -3.787137 -0.250292 0
M  V30 28 H 1.385314 -2.177221 1.821424 0
M  V30 29 H -0.253566 -2.945406 1.834843 0
M  V30 30 H 1.206727 -3.928982 2.069499 0
M  V30 31 H -0.026375 -1.791915 -1.343183 0
M  V30 32 H 3.714130 -1.647804 -4.689429 0
M  V30 33 H 4.799120 -1.895315 -3.740291 0
M  V30 34 H 2.280910 3.558587 0.217713 0
M  V30 35 H 0.527241 3.548992 1.978233 0
M  V30 36 H -1.661183 3.648154 2.477585 0
M  V30 37 H -2.587393 -0.161458 5.964978 0
M  V30 38 H -3.755571 1.227480 5.962077 0
M  V30 39 H -4.112722 -0.160318 4.918790 0
M  V30 40 H -1.176902 -0.452806 3.539604 0
M  V30 41 H -0.317170 -0.499818 1.058932 0
M  V30 END ATOM
M  V30 BEGIN BOND
M  V30 1 1 1 2
M  V30 2 1 2 3
M  V30 3 1 2 4
M  V30 4 1 4 5
M  V30 5 2 5 6
M  V30 6 1 6 7
M  V30 7 1 7 8
M  V30 8 2 7 9
M  V30 9 1 6 10
M  V30 10 2 10 11
M  V30 11 1 11 12
M  V30 12 2 12 13
M  V30 13 1 13 14
M  V30 14 2 14 15
M  V30 15 1 15 16
M  V30 16 1 16 17
M  V30 17 2 17 18
M  V30 18 1 18 19
M  V30 19 1 19 20
M  V30 20 1 19 21
M  V30 21 1 15 22
M  V30 22 2 22 23
M  V30 23 1 23 5
M  V30 24 1 23 12
M  V30 25 2 21 16
M  V30 26 1 1 24
M  V30 27 1 1 25
M  V30 28 1 1 26
M  V30 29 1 2 27
M  V30 30 1 3 28
M  V30 31 1 3 29
M  V30 32 1 3 30
M  V30 33 1 4 31
M  V30 34 1 8 32
M  V30 35 1 8 33
M  V30 36 1 13 34
M  V30 37 1 14 35
M  V30 38 1 17 36
M  V30 39 1 20 37
M  V30 40 1 20 38
M  V30 41 1 20 39
M  V30 42 1 21 40
M  V30 43 1 22 41
M  V30 END BOND
M  V30 END CTAB
M  END
>  <Dataset>  (892) 
ChEMBL_Kinases

>  <Ligand_Instance>  (892) 
nan

>  <PDB_ID>  (892) 
nan

>  <Standardized_SMILES>  (892) 
CC(C)Nc1c(C(N)=O)nnc2ccc(-c3cnn(C)c3)cc12

>  <Name>  (892) 
nan

>  <Pocket>  (892) 
nan

>  <ATP_Site>  (892) 
nan

>  <Peripheral>  (892) 
nan

>  <Num_H_Atoms_ProtBoundConf>  (892) 
nan

>  <Num_Resolved_Atoms>  (892) 
nan

>  <Num_Not_Resolved_Atoms>  (892) 
nan

$$$$
CHEMBL2326716
     RDKit          3D

  0  0  0  0  0  0  0  0  0  0999 V3000
M  V30 BEGIN CTAB
M  V30 COUNTS 36 37 0 0 0
M  V30 BEGIN ATOM
M  V30 1 C -3.653899 -2.454114 2.362542 0
M  V30 2 C -2.976484 -1.169610 2.790558 0
M  V30 3 N -1.536419 -1.397922 2.789676 0
M  V30 4 C -0.706285 -1.202569 1.750723 0
M  V30 5 C 0.602275 -1.515092 2.084399 0
M  V30 6 N 1.746453 -1.421356 1.210675 0
M  V30 7 C 1.550295 -0.968495 -0.125948 0
M  V30 8 N 1.267306 -1.788105 -1.182800 0
M  V30 9 C 1.092782 -1.314800 -2.415728 0
M  V30 10 C 1.188397 0.031581 -2.693548 0
M  V30 11 C 1.013331 0.648718 -4.014591 0
M  V30 12 F 2.159204 1.315023 -4.394485 0
M  V30 13 F -0.056263 1.511987 -3.978279 0
M  V30 14 F 0.742122 -0.320415 -4.946944 0
M  V30 15 C 1.476994 0.884000 -1.625566 0
M  V30 16 N 1.605871 2.314265 -1.771963 0
M  V30 17 C 1.906871 3.157596 -0.630600 0
M  V30 18 N 1.640346 0.342973 -0.413436 0
M  V30 19 C 0.503204 -1.914012 3.401621 0
M  V30 20 C 1.678960 -2.353631 4.206162 0
M  V30 21 N -0.777705 -1.838296 3.806426 0
M  V30 22 H -3.446123 -2.686775 1.306972 0
M  V30 23 H -4.743773 -2.327941 2.561755 0
M  V30 24 H -3.334696 -3.259130 3.072409 0
M  V30 25 H -3.258133 -0.336001 2.139942 0
M  V30 26 H -3.289944 -0.966199 3.846115 0
M  V30 27 H -1.058962 -0.845160 0.793176 0
M  V30 28 H 2.639476 -1.706721 1.665959 0
M  V30 29 H 0.869326 -1.979196 -3.239598 0
M  V30 30 H 1.477361 2.732893 -2.720790 0
M  V30 31 H 1.515714 2.747229 0.323852 0
M  V30 32 H 3.002144 3.332714 -0.519320 0
M  V30 33 H 1.435589 4.162180 -0.838479 0
M  V30 34 H 2.036617 -3.333505 3.818736 0
M  V30 35 H 1.367300 -2.543351 5.259769 0
M  V30 36 H 2.534412 -1.665636 4.115590 0
M  V30 END ATOM
M  V30 BEGIN BOND
M  V30 1 1 1 2
M  V30 2 1 2 3
M  V30 3 1 3 4
M  V30 4 2 4 5
M  V30 5 1 5 6
M  V30 6 1 6 7
M  V30 7 2 7 8
M  V30 8 1 8 9
M  V30 9 2 9 10
M  V30 10 1 10 11
M  V30 11 1 11 12
M  V30 12 1 11 13
M  V30 13 1 11 14
M  V30 14 1 10 15
M  V30 15 1 15 16
M  V30 16 1 16 17
M  V30 17 2 15 18
M  V30 18 1 5 19
M  V30 19 1 19 20
M  V30 20 2 19 21
M  V30 21 1 21 3
M  V30 22 1 18 7
M  V30 23 1 1 22
M  V30 24 1 1 23
M  V30 25 1 1 24
M  V30 26 1 2 25
M  V30 27 1 2 26
M  V30 28 1 4 27
M  V30 29 1 6 28
M  V30 30 1 9 29
M  V30 31 1 16 30
M  V30 32 1 17 31
M  V30 33 1 17 32
M  V30 34 1 17 33
M  V30 35 1 20 34
M  V30 36 1 20 35
M  V30 37 1 20 36
M  V30 END BOND
M  V30 END CTAB
M  END
>  <Dataset>  (893) 
ChEMBL_Kinases

>  <Ligand_Instance>  (893) 
nan

>  <PDB_ID>  (893) 
nan

>  <Standardized_SMILES>  (893) 
CCn1cc(Nc2ncc(C(F)(F)F)c(NC)n2)c(C)n1

>  <Name>  (893) 
nan

>  <Pocket>  (893) 
nan

>  <ATP_Site>  (893) 
nan

>  <Peripheral>  (893) 
nan

>  <Num_H_Atoms_ProtBoundConf>  (893) 
nan

>  <Num_Resolved_Atoms>  (893) 
nan

>  <Num_Not_Resolved_Atoms>  (893) 
nan

$$$$
CHEMBL2326717
     RDKit          3D

  0  0  0  0  0  0  0  0  0  0999 V3000
M  V30 BEGIN CTAB
M  V30 COUNTS 36 37 0 0 0
M  V30 BEGIN ATOM
M  V30 1 C 0.062369 -4.982733 3.481182 0
M  V30 2 C -0.954022 -3.894972 3.464269 0
M  V30 3 N -0.655985 -2.843803 2.503245 0
M  V30 4 N -1.033532 -2.769470 1.217847 0
M  V30 5 C -0.525887 -1.621431 0.724744 0
M  V30 6 C 0.181576 -0.959255 1.706780 0
M  V30 7 N 0.870131 0.282228 1.598739 0
M  V30 8 C 0.954094 1.086399 0.427941 0
M  V30 9 N 1.620828 2.234238 0.412685 0
M  V30 10 C 1.716266 3.013401 -0.678391 0
M  V30 11 C 1.112855 2.652824 -1.865663 0
M  V30 12 C 1.173273 3.450740 -3.098004 0
M  V30 13 F 1.768145 2.738312 -4.142697 0
M  V30 14 F 1.921061 4.599539 -2.940955 0
M  V30 15 F -0.056733 3.846155 -3.574369 0
M  V30 16 C 0.416824 1.463876 -1.866096 0
M  V30 17 N -0.260058 0.971923 -3.040371 0
M  V30 18 C -0.995096 -0.289146 -3.031137 0
M  V30 19 N 0.370702 0.745385 -0.733351 0
M  V30 20 C 0.078679 -1.763687 2.824425 0
M  V30 21 C 0.687077 -1.453259 4.130247 0
M  V30 22 H 1.043704 -4.694145 3.061306 0
M  V30 23 H 0.252846 -5.264917 4.552733 0
M  V30 24 H -0.314199 -5.922262 3.003690 0
M  V30 25 H -1.942443 -4.355850 3.190185 0
M  V30 26 H -1.148029 -3.470118 4.485917 0
M  V30 27 H -0.689414 -1.328399 -0.296514 0
M  V30 28 H 1.361755 0.638376 2.461861 0
M  V30 29 H 2.270493 3.933384 -0.630696 0
M  V30 30 H -0.193968 1.575487 -3.906856 0
M  V30 31 H -1.729126 -0.262315 -2.177005 0
M  V30 32 H -1.609222 -0.293313 -3.967094 0
M  V30 33 H -0.288606 -1.114579 -2.945845 0
M  V30 34 H 1.166714 -2.348567 4.599235 0
M  V30 35 H 0.027552 -0.984024 4.858290 0
M  V30 36 H 1.553040 -0.742890 3.984708 0
M  V30 END ATOM
M  V30 BEGIN BOND
M  V30 1 1 1 2
M  V30 2 1 2 3
M  V30 3 1 3 4
M  V30 4 2 4 5
M  V30 5 1 5 6
M  V30 6 1 6 7
M  V30 7 1 7 8
M  V30 8 2 8 9
M  V30 9 1 9 10
M  V30 10 2 10 11
M  V30 11 1 11 12
M  V30 12 1 12 13
M  V30 13 1 12 14
M  V30 14 1 12 15
M  V30 15 1 11 16
M  V30 16 1 16 17
M  V30 17 1 17 18
M  V30 18 2 16 19
M  V30 19 2 6 20
M  V30 20 1 20 21
M  V30 21 1 20 3
M  V30 22 1 19 8
M  V30 23 1 1 22
M  V30 24 1 1 23
M  V30 25 1 1 24
M  V30 26 1 2 25
M  V30 27 1 2 26
M  V30 28 1 5 27
M  V30 29 1 7 28
M  V30 30 1 10 29
M  V30 31 1 17 30
M  V30 32 1 18 31
M  V30 33 1 18 32
M  V30 34 1 18 33
M  V30 35 1 21 34
M  V30 36 1 21 35
M  V30 37 1 21 36
M  V30 END BOND
M  V30 END CTAB
M  END
>  <Dataset>  (894) 
ChEMBL_Kinases

>  <Ligand_Instance>  (894) 
nan

>  <PDB_ID>  (894) 
nan

>  <Standardized_SMILES>  (894) 
CCn1ncc(Nc2ncc(C(F)(F)F)c(NC)n2)c1C

>  <Name>  (894) 
nan

>  <Pocket>  (894) 
nan

>  <ATP_Site>  (894) 
nan

>  <Peripheral>  (894) 
nan

>  <Num_H_Atoms_ProtBoundConf>  (894) 
nan

>  <Num_Resolved_Atoms>  (894) 
nan

>  <Num_Not_Resolved_Atoms>  (894) 
nan

$$$$
CHEMBL2326718
     RDKit          3D

  0  0  0  0  0  0  0  0  0  0999 V3000
M  V30 BEGIN CTAB
M  V30 COUNTS 39 40 0 0 0
M  V30 BEGIN ATOM
M  V30 1 C -3.779042 -1.976729 0.852263 0
M  V30 2 N -2.569721 -1.759252 1.557555 0
M  V30 3 C -1.384546 -1.546064 2.248603 0
M  V30 4 N -0.206189 -0.997355 1.920001 0
M  V30 5 C 0.811144 -0.899183 2.782638 0
M  V30 6 N 2.002017 -0.299259 2.310203 0
M  V30 7 C 2.214281 0.205428 1.006581 0
M  V30 8 C 1.400841 0.259374 -0.097477 0
M  V30 9 N 2.030848 0.832724 -1.135341 0
M  V30 10 C 1.498917 1.071647 -2.484869 0
M  V30 11 C 1.181579 -0.271732 -3.118000 0
M  V30 12 C 0.187356 1.843952 -2.349458 0
M  V30 13 N 3.240509 1.142702 -0.693889 0
M  V30 14 C 3.399576 0.784459 0.592150 0
M  V30 15 C 4.613642 0.980265 1.388732 0
M  V30 16 N 0.607276 -1.377321 4.009634 0
M  V30 17 C -0.508691 -1.945430 4.468866 0
M  V30 18 C -1.567289 -2.041187 3.550695 0
M  V30 19 C -2.812425 -2.688722 4.092819 0
M  V30 20 F -3.906809 -1.879059 4.054148 0
M  V30 21 F -2.643346 -3.065434 5.406121 0
M  V30 22 F -3.073280 -3.855445 3.397374 0
M  V30 23 H -4.344274 -1.063828 0.536604 0
M  V30 24 H -4.518769 -2.566989 1.521843 0
M  V30 25 H -3.728406 -2.634680 -0.050164 0
M  V30 26 H -2.215472 -1.322805 0.638624 0
M  V30 27 H 2.742883 -0.258578 3.034252 0
M  V30 28 H 0.404172 -0.091966 -0.165316 0
M  V30 29 H 2.245599 1.632123 -3.059864 0
M  V30 30 H 0.255663 -0.247629 -3.727980 0
M  V30 31 H 1.013736 -1.019794 -2.288811 0
M  V30 32 H 2.008289 -0.623473 -3.746244 0
M  V30 33 H 0.008237 2.156565 -1.316133 0
M  V30 34 H -0.662145 1.238283 -2.693854 0
M  V30 35 H 0.239730 2.736415 -3.026343 0
M  V30 36 H 4.373842 1.275444 2.430068 0
M  V30 37 H 5.273819 0.104597 1.441006 0
M  V30 38 H 5.253616 1.804112 0.969115 0
M  V30 39 H -0.500202 -2.276977 5.489962 0
M  V30 END ATOM
M  V30 BEGIN BOND
M  V30 1 1 1 2
M  V30 2 1 2 3
M  V30 3 2 3 4
M  V30 4 1 4 5
M  V30 5 1 5 6
M  V30 6 1 6 7
M  V30 7 2 7 8
M  V30 8 1 8 9
M  V30 9 1 9 10
M  V30 10 1 10 11
M  V30 11 1 10 12
M  V30 12 1 9 13
M  V30 13 2 13 14
M  V30 14 1 14 15
M  V30 15 2 5 16
M  V30 16 1 16 17
M  V30 17 2 17 18
M  V30 18 1 18 19
M  V30 19 1 19 20
M  V30 20 1 19 21
M  V30 21 1 19 22
M  V30 22 1 18 3
M  V30 23 1 14 7
M  V30 24 1 1 23
M  V30 25 1 1 24
M  V30 26 1 1 25
M  V30 27 1 2 26
M  V30 28 1 6 27
M  V30 29 1 8 28
M  V30 30 1 10 29
M  V30 31 1 11 30
M  V30 32 1 11 31
M  V30 33 1 11 32
M  V30 34 1 12 33
M  V30 35 1 12 34
M  V30 36 1 12 35
M  V30 37 1 15 36
M  V30 38 1 15 37
M  V30 39 1 15 38
M  V30 40 1 17 39
M  V30 END BOND
M  V30 END CTAB
M  END
>  <Dataset>  (895) 
ChEMBL_Kinases

>  <Ligand_Instance>  (895) 
nan

>  <PDB_ID>  (895) 
nan

>  <Standardized_SMILES>  (895) 
CNc1nc(Nc2cn(C(C)C)nc2C)ncc1C(F)(F)F

>  <Name>  (895) 
nan

>  <Pocket>  (895) 
nan

>  <ATP_Site>  (895) 
nan

>  <Peripheral>  (895) 
nan

>  <Num_H_Atoms_ProtBoundConf>  (895) 
nan

>  <Num_Resolved_Atoms>  (895) 
nan

>  <Num_Not_Resolved_Atoms>  (895) 
nan

$$$$
CHEMBL2326719
     RDKit          3D

  0  0  0  0  0  0  0  0  0  0999 V3000
M  V30 BEGIN CTAB
M  V30 COUNTS 39 40 0 0 0
M  V30 BEGIN ATOM
M  V30 1 C 0.878490 -5.540358 1.933128 0
M  V30 2 N -0.458531 -5.024143 2.080934 0
M  V30 3 C -1.029610 -3.722315 2.076082 0
M  V30 4 N -0.181439 -2.700714 1.899589 0
M  V30 5 C -0.615136 -1.410303 1.878997 0
M  V30 6 N 0.138527 -0.219127 1.703419 0
M  V30 7 C 0.420941 0.452407 0.480774 0
M  V30 8 C -0.003804 0.047075 -0.766772 0
M  V30 9 N 0.486357 0.966521 -1.610730 0
M  V30 10 N 1.182201 1.906914 -0.963046 0
M  V30 11 C 1.846596 3.051512 -1.565478 0
M  V30 12 C 0.986942 4.294814 -1.556871 0
M  V30 13 C 3.210781 3.323130 -1.025833 0
M  V30 14 C 1.157361 1.609779 0.345191 0
M  V30 15 C 1.774936 2.334701 1.473067 0
M  V30 16 N -1.936551 -1.195108 2.043298 0
M  V30 17 C -2.801772 -2.226339 2.222548 0
M  V30 18 C -2.384671 -3.538603 2.246877 0
M  V30 19 C -3.246847 -4.718926 2.435181 0
M  V30 20 F -3.189129 -5.574651 1.374907 0
M  V30 21 F -4.576090 -4.349173 2.641981 0
M  V30 22 F -2.831764 -5.338367 3.595768 0
M  V30 23 H 1.171891 -6.104969 2.861270 0
M  V30 24 H 1.586857 -4.702620 1.771797 0
M  V30 25 H 0.963288 -6.187339 1.023203 0
M  V30 26 H -1.070124 -5.845541 2.215175 0
M  V30 27 H 0.489997 0.140894 2.617037 0
M  V30 28 H -0.607055 -0.821044 -1.059500 0
M  V30 29 H 1.978830 2.805021 -2.651562 0
M  V30 30 H 0.408005 4.419393 -0.632742 0
M  V30 31 H 0.238421 4.297662 -2.386347 0
M  V30 32 H 1.690678 5.143822 -1.754904 0
M  V30 33 H 3.783636 3.872656 -1.830387 0
M  V30 34 H 3.243853 4.011908 -0.161567 0
M  V30 35 H 3.777925 2.391496 -0.878862 0
M  V30 36 H 2.902214 2.252204 1.430867 0
M  V30 37 H 1.512829 1.893558 2.450322 0
M  V30 38 H 1.557038 3.412528 1.434624 0
M  V30 39 H -3.869105 -2.049159 2.354680 0
M  V30 END ATOM
M  V30 BEGIN BOND
M  V30 1 1 1 2
M  V30 2 1 2 3
M  V30 3 2 3 4
M  V30 4 1 4 5
M  V30 5 1 5 6
M  V30 6 1 6 7
M  V30 7 1 7 8
M  V30 8 2 8 9
M  V30 9 1 9 10
M  V30 10 1 10 11
M  V30 11 1 11 12
M  V30 12 1 11 13
M  V30 13 1 10 14
M  V30 14 1 14 15
M  V30 15 2 5 16
M  V30 16 1 16 17
M  V30 17 2 17 18
M  V30 18 1 18 19
M  V30 19 1 19 20
M  V30 20 1 19 21
M  V30 21 1 19 22
M  V30 22 1 18 3
M  V30 23 2 14 7
M  V30 24 1 1 23
M  V30 25 1 1 24
M  V30 26 1 1 25
M  V30 27 1 2 26
M  V30 28 1 6 27
M  V30 29 1 8 28
M  V30 30 1 11 29
M  V30 31 1 12 30
M  V30 32 1 12 31
M  V30 33 1 12 32
M  V30 34 1 13 33
M  V30 35 1 13 34
M  V30 36 1 13 35
M  V30 37 1 15 36
M  V30 38 1 15 37
M  V30 39 1 15 38
M  V30 40 1 17 39
M  V30 END BOND
M  V30 END CTAB
M  END
>  <Dataset>  (896) 
ChEMBL_Kinases

>  <Ligand_Instance>  (896) 
nan

>  <PDB_ID>  (896) 
nan

>  <Standardized_SMILES>  (896) 
CNc1nc(Nc2cnn(C(C)C)c2C)ncc1C(F)(F)F

>  <Name>  (896) 
nan

>  <Pocket>  (896) 
nan

>  <ATP_Site>  (896) 
nan

>  <Peripheral>  (896) 
nan

>  <Num_H_Atoms_ProtBoundConf>  (896) 
nan

>  <Num_Resolved_Atoms>  (896) 
nan

>  <Num_Not_Resolved_Atoms>  (896) 
nan

$$$$
CHEMBL2326720
     RDKit          3D

  0  0  0  0  0  0  0  0  0  0999 V3000
M  V30 BEGIN CTAB
M  V30 COUNTS 40 41 0 0 0
M  V30 BEGIN ATOM
M  V30 1 C -1.890229 -4.936031 1.992705 0
M  V30 2 N -1.723095 -3.592172 2.411594 0
M  V30 3 C -1.325142 -2.251617 2.644822 0
M  V30 4 N -0.371759 -1.417395 2.250938 0
M  V30 5 C -0.232354 -0.156534 2.648789 0
M  V30 6 N 0.879000 0.501934 2.081880 0
M  V30 7 C 1.210107 1.063881 0.827980 0
M  V30 8 C 0.589991 1.142345 -0.392611 0
M  V30 9 N 1.392878 1.801235 -1.281428 0
M  V30 10 C 0.899661 2.001269 -2.617546 0
M  V30 11 C 1.163985 0.932117 -3.598895 0
M  V30 12 O 2.387194 0.564814 -3.963908 0
M  V30 13 C 3.327894 0.056899 -3.164604 0
M  V30 14 N 2.484636 2.114371 -0.594898 0
M  V30 15 C 2.419012 1.692444 0.672380 0
M  V30 16 C 3.533383 1.933163 1.638929 0
M  V30 17 N -1.152317 0.248876 3.513666 0
M  V30 18 C -2.159168 -0.461617 3.999471 0
M  V30 19 C -2.290818 -1.794695 3.566543 0
M  V30 20 C -3.439896 -2.550283 4.134424 0
M  V30 21 F -2.926291 -3.638402 4.815675 0
M  V30 22 F -4.255595 -3.032220 3.121120 0
M  V30 23 F -4.157962 -1.737461 4.965323 0
M  V30 24 H -2.872900 -5.307627 2.498631 0
M  V30 25 H -2.074013 -5.127761 0.926305 0
M  V30 26 H -1.146414 -5.631339 2.444966 0
M  V30 27 H -0.911879 -3.659526 1.734330 0
M  V30 28 H 1.456506 0.469222 2.919103 0
M  V30 29 H -0.388536 0.712609 -0.521474 0
M  V30 30 H 1.248254 3.012777 -2.993376 0
M  V30 31 H -0.228677 2.152064 -2.608656 0
M  V30 32 H 0.637607 1.281400 -4.563541 0
M  V30 33 H 0.492246 0.055064 -3.320397 0
M  V30 34 H 4.231139 -0.172877 -3.839375 0
M  V30 35 H 3.117308 -0.937779 -2.697546 0
M  V30 36 H 3.784095 0.707812 -2.393780 0
M  V30 37 H 3.137199 1.691586 2.665241 0
M  V30 38 H 4.422391 1.328700 1.434034 0
M  V30 39 H 3.750074 3.024171 1.636551 0
M  V30 40 H -2.814035 0.068141 4.712465 0
M  V30 END ATOM
M  V30 BEGIN BOND
M  V30 1 1 1 2
M  V30 2 1 2 3
M  V30 3 2 3 4
M  V30 4 1 4 5
M  V30 5 1 5 6
M  V30 6 1 6 7
M  V30 7 2 7 8
M  V30 8 1 8 9
M  V30 9 1 9 10
M  V30 10 1 10 11
M  V30 11 1 11 12
M  V30 12 1 12 13
M  V30 13 1 9 14
M  V30 14 2 14 15
M  V30 15 1 15 16
M  V30 16 2 5 17
M  V30 17 1 17 18
M  V30 18 2 18 19
M  V30 19 1 19 20
M  V30 20 1 20 21
M  V30 21 1 20 22
M  V30 22 1 20 23
M  V30 23 1 19 3
M  V30 24 1 15 7
M  V30 25 1 1 24
M  V30 26 1 1 25
M  V30 27 1 1 26
M  V30 28 1 2 27
M  V30 29 1 6 28
M  V30 30 1 8 29
M  V30 31 1 10 30
M  V30 32 1 10 31
M  V30 33 1 11 32
M  V30 34 1 11 33
M  V30 35 1 13 34
M  V30 36 1 13 35
M  V30 37 1 13 36
M  V30 38 1 16 37
M  V30 39 1 16 38
M  V30 40 1 16 39
M  V30 41 1 18 40
M  V30 END BOND
M  V30 END CTAB
M  END
>  <Dataset>  (897) 
ChEMBL_Kinases

>  <Ligand_Instance>  (897) 
nan

>  <PDB_ID>  (897) 
nan

>  <Standardized_SMILES>  (897) 
CNc1nc(Nc2cn(CCOC)nc2C)ncc1C(F)(F)F

>  <Name>  (897) 
nan

>  <Pocket>  (897) 
nan

>  <ATP_Site>  (897) 
nan

>  <Peripheral>  (897) 
nan

>  <Num_H_Atoms_ProtBoundConf>  (897) 
nan

>  <Num_Resolved_Atoms>  (897) 
nan

>  <Num_Not_Resolved_Atoms>  (897) 
nan

$$$$
CHEMBL2326721
     RDKit          3D

  0  0  0  0  0  0  0  0  0  0999 V3000
M  V30 BEGIN CTAB
M  V30 COUNTS 40 41 0 0 0
M  V30 BEGIN ATOM
M  V30 1 C -2.461095 -4.562724 3.571021 0
M  V30 2 N -2.264728 -4.708071 2.163569 0
M  V30 3 C -1.415990 -4.074854 1.228874 0
M  V30 4 N -0.597454 -3.127927 1.731328 0
M  V30 5 C 0.261060 -2.460565 0.939770 0
M  V30 6 N 1.204570 -1.423256 1.171660 0
M  V30 7 C 0.945160 -0.166766 0.542842 0
M  V30 8 C -0.109498 0.169030 -0.305833 0
M  V30 9 N -0.002429 1.448547 -0.714253 0
M  V30 10 N 1.099474 1.977207 -0.157958 0
M  V30 11 C 1.539632 3.340772 -0.381369 0
M  V30 12 C 0.973867 4.290764 0.624075 0
M  V30 13 O 1.414689 5.561003 0.350312 0
M  V30 14 C 2.765217 5.763458 0.377812 0
M  V30 15 C 1.674493 1.030338 0.593374 0
M  V30 16 C 2.918478 1.187834 1.397076 0
M  V30 17 N 0.292660 -2.755461 -0.381662 0
M  V30 18 C -0.519818 -3.707305 -0.932318 0
M  V30 19 C -1.402121 -4.394807 -0.126216 0
M  V30 20 C -2.316554 -5.438816 -0.647057 0
M  V30 21 F -2.112072 -5.563360 -2.029452 0
M  V30 22 F -3.651777 -5.129989 -0.476968 0
M  V30 23 F -2.101775 -6.682692 -0.130401 0
M  V30 24 H -3.561775 -4.460082 3.775978 0
M  V30 25 H -2.169074 -5.544724 4.034685 0
M  V30 26 H -1.864535 -3.742878 4.033023 0
M  V30 27 H -2.902284 -5.457927 1.764488 0
M  V30 28 H 2.093546 -1.431538 1.751931 0
M  V30 29 H -0.920433 -0.487789 -0.614682 0
M  V30 30 H 2.648295 3.332040 -0.396706 0
M  V30 31 H 1.151570 3.672789 -1.386387 0
M  V30 32 H -0.146113 4.303045 0.489469 0
M  V30 33 H 1.137082 3.980397 1.680106 0
M  V30 34 H 3.268164 5.551831 1.334749 0
M  V30 35 H 3.344954 5.227372 -0.416574 0
M  V30 36 H 2.914279 6.874784 0.222310 0
M  V30 37 H 2.648867 1.652089 2.390970 0
M  V30 38 H 3.634020 1.891899 0.945549 0
M  V30 39 H 3.333508 0.202363 1.660936 0
M  V30 40 H -0.540582 -3.984475 -1.972245 0
M  V30 END ATOM
M  V30 BEGIN BOND
M  V30 1 1 1 2
M  V30 2 1 2 3
M  V30 3 2 3 4
M  V30 4 1 4 5
M  V30 5 1 5 6
M  V30 6 1 6 7
M  V30 7 1 7 8
M  V30 8 2 8 9
M  V30 9 1 9 10
M  V30 10 1 10 11
M  V30 11 1 11 12
M  V30 12 1 12 13
M  V30 13 1 13 14
M  V30 14 1 10 15
M  V30 15 1 15 16
M  V30 16 2 5 17
M  V30 17 1 17 18
M  V30 18 2 18 19
M  V30 19 1 19 20
M  V30 20 1 20 21
M  V30 21 1 20 22
M  V30 22 1 20 23
M  V30 23 1 19 3
M  V30 24 2 15 7
M  V30 25 1 1 24
M  V30 26 1 1 25
M  V30 27 1 1 26
M  V30 28 1 2 27
M  V30 29 1 6 28
M  V30 30 1 8 29
M  V30 31 1 11 30
M  V30 32 1 11 31
M  V30 33 1 12 32
M  V30 34 1 12 33
M  V30 35 1 14 34
M  V30 36 1 14 35
M  V30 37 1 14 36
M  V30 38 1 16 37
M  V30 39 1 16 38
M  V30 40 1 16 39
M  V30 41 1 18 40
M  V30 END BOND
M  V30 END CTAB
M  END
>  <Dataset>  (898) 
ChEMBL_Kinases

>  <Ligand_Instance>  (898) 
nan

>  <PDB_ID>  (898) 
nan

>  <Standardized_SMILES>  (898) 
CNc1nc(Nc2cnn(CCOC)c2C)ncc1C(F)(F)F

>  <Name>  (898) 
nan

>  <Pocket>  (898) 
nan

>  <ATP_Site>  (898) 
nan

>  <Peripheral>  (898) 
nan

>  <Num_H_Atoms_ProtBoundConf>  (898) 
nan

>  <Num_Resolved_Atoms>  (898) 
nan

>  <Num_Not_Resolved_Atoms>  (898) 
nan

$$$$
CHEMBL2326722
     RDKit          3D

  0  0  0  0  0  0  0  0  0  0999 V3000
M  V30 BEGIN CTAB
M  V30 COUNTS 37 38 0 0 0
M  V30 BEGIN ATOM
M  V30 1 C -2.236255 -3.957934 -0.527129 0
M  V30 2 N -1.075945 -3.340746 0.105273 0
M  V30 3 C -1.151978 -2.977409 1.358650 0
M  V30 4 N 0.100704 -2.337387 1.057233 0
M  V30 5 C 0.844546 -1.615111 1.921684 0
M  V30 6 N 2.130842 -0.889697 1.850485 0
M  V30 7 C 2.091348 0.325530 1.059197 0
M  V30 8 C 1.046334 0.843020 0.321653 0
M  V30 9 N 1.410242 1.978627 -0.292249 0
M  V30 10 C 0.443023 2.696198 -1.142509 0
M  V30 11 C 0.534722 2.211519 -2.573965 0
M  V30 12 C -0.436518 2.917813 -3.401746 0
M  V30 13 N -1.219818 3.506801 -4.060478 0
M  V30 14 N 2.673080 2.212934 0.031455 0
M  V30 15 C 3.117670 1.240969 0.842507 0
M  V30 16 C 4.432797 1.015311 1.477299 0
M  V30 17 N 0.521215 -1.377424 3.233175 0
M  V30 18 C -0.652537 -1.923450 3.690784 0
M  V30 19 C -1.227868 -2.596018 2.669268 0
M  V30 20 C -2.538094 -3.338041 2.878144 0
M  V30 21 F -2.359572 -4.664313 2.650823 0
M  V30 22 F -3.577960 -2.810755 2.167467 0
M  V30 23 F -2.912506 -3.163103 4.214193 0
M  V30 24 H -2.984656 -4.348583 0.209832 0
M  V30 25 H -2.835197 -3.164467 -1.065383 0
M  V30 26 H -1.970197 -4.801230 -1.160334 0
M  V30 27 H -0.800381 -3.520984 -0.812459 0
M  V30 28 H 2.972422 -1.244126 2.329658 0
M  V30 29 H 0.070967 0.340775 0.281343 0
M  V30 30 H 0.667797 3.769808 -1.058174 0
M  V30 31 H -0.594517 2.516635 -0.802766 0
M  V30 32 H 0.336413 1.113044 -2.590734 0
M  V30 33 H 1.577034 2.392036 -2.912756 0
M  V30 34 H 4.850133 1.965767 1.921297 0
M  V30 35 H 5.141283 0.718927 0.657078 0
M  V30 36 H 4.412583 0.306232 2.316005 0
M  V30 37 H -1.203504 -1.957591 4.599149 0
M  V30 END ATOM
M  V30 BEGIN BOND
M  V30 1 1 1 2
M  V30 2 1 2 3
M  V30 3 2 3 4
M  V30 4 1 4 5
M  V30 5 1 5 6
M  V30 6 1 6 7
M  V30 7 2 7 8
M  V30 8 1 8 9
M  V30 9 1 9 10
M  V30 10 1 10 11
M  V30 11 1 11 12
M  V30 12 3 12 13
M  V30 13 1 9 14
M  V30 14 2 14 15
M  V30 15 1 15 16
M  V30 16 2 5 17
M  V30 17 1 17 18
M  V30 18 2 18 19
M  V30 19 1 19 20
M  V30 20 1 20 21
M  V30 21 1 20 22
M  V30 22 1 20 23
M  V30 23 1 19 3
M  V30 24 1 15 7
M  V30 25 1 1 24
M  V30 26 1 1 25
M  V30 27 1 1 26
M  V30 28 1 2 27
M  V30 29 1 6 28
M  V30 30 1 8 29
M  V30 31 1 10 30
M  V30 32 1 10 31
M  V30 33 1 11 32
M  V30 34 1 11 33
M  V30 35 1 16 34
M  V30 36 1 16 35
M  V30 37 1 16 36
M  V30 38 1 18 37
M  V30 END BOND
M  V30 END CTAB
M  END
>  <Dataset>  (899) 
ChEMBL_Kinases

>  <Ligand_Instance>  (899) 
nan

>  <PDB_ID>  (899) 
nan

>  <Standardized_SMILES>  (899) 
CNc1nc(Nc2cn(CCC#N)nc2C)ncc1C(F)(F)F

>  <Name>  (899) 
nan

>  <Pocket>  (899) 
nan

>  <ATP_Site>  (899) 
nan

>  <Peripheral>  (899) 
nan

>  <Num_H_Atoms_ProtBoundConf>  (899) 
nan

>  <Num_Resolved_Atoms>  (899) 
nan

>  <Num_Not_Resolved_Atoms>  (899) 
nan

$$$$
CHEMBL232809
     RDKit          3D

  0  0  0  0  0  0  0  0  0  0999 V3000
M  V30 BEGIN CTAB
M  V30 COUNTS 57 61 0 0 0
M  V30 BEGIN ATOM
M  V30 1 C 5.018656 2.185990 3.687776 0
M  V30 2 O 3.862346 2.862766 3.238773 0
M  V30 3 C 2.775241 2.253954 2.653164 0
M  V30 4 C 2.852205 0.877587 2.508667 0
M  V30 5 C 1.822775 0.154119 1.934992 0
M  V30 6 C 0.706199 0.842917 1.505685 0
M  V30 7 C 0.589106 2.212226 1.630569 0
M  V30 8 C 1.638696 2.946171 2.214988 0
M  V30 9 C 1.701553 4.392848 2.494584 0
M  V30 10 N 2.552586 5.234765 1.837219 0
M  V30 11 C 2.688624 5.507550 0.489723 0
M  V30 12 C 3.294914 4.471641 -0.407710 0
M  V30 13 O 2.575331 3.324359 -0.407938 0
M  V30 14 C -0.306705 -0.101389 0.910589 0
M  V30 15 C 0.366759 -1.417037 1.051854 0
M  V30 16 C 0.240443 -2.770427 0.815484 0
M  V30 17 C -0.870188 -3.491414 0.203905 0
M  V30 18 C -1.391051 -4.674164 0.713807 0
M  V30 19 C -2.444589 -5.279009 0.061194 0
M  V30 20 C -2.940881 -4.673784 -1.084539 0
M  V30 21 C -4.065419 -5.289411 -1.808615 0
M  V30 22 C -4.160358 -6.671941 -1.783737 0
M  V30 23 C -5.215077 -7.251955 -2.462309 0
M  V30 24 C -6.180440 -6.563551 -3.162140 0
M  V30 25 O -7.186344 -7.264416 -3.799664 0
M  V30 26 C -6.044002 -5.188163 -3.158382 0
M  V30 27 C -5.012406 -4.550315 -2.499277 0
M  V30 28 C -2.423356 -3.490015 -1.599181 0
M  V30 29 C -1.369524 -2.895864 -0.936412 0
M  V30 30 N 1.363352 -3.395640 1.255839 0
M  V30 31 N 2.198149 -2.487370 1.763416 0
M  V30 32 C 1.604300 -1.263445 1.647759 0
M  V30 33 H 5.608423 2.794303 4.394573 0
M  V30 34 H 5.604180 1.931485 2.784145 0
M  V30 35 H 4.722684 1.262898 4.263018 0
M  V30 36 H 3.688970 0.264560 2.817492 0
M  V30 37 H -0.234092 2.832375 1.328620 0
M  V30 38 H 0.639350 4.795156 2.401222 0
M  V30 39 H 1.876154 4.543573 3.625486 0
M  V30 40 H 3.407466 5.473078 2.384405 0
M  V30 41 H 3.313252 6.468696 0.397797 0
M  V30 42 H 1.692544 5.866228 0.034550 0
M  V30 43 H 3.390151 4.829592 -1.459290 0
M  V30 44 H 4.350295 4.275378 -0.047962 0
M  V30 45 H 1.696216 3.387532 -0.812040 0
M  V30 46 H -0.532752 0.143735 -0.145841 0
M  V30 47 H -1.204693 -0.059819 1.543760 0
M  V30 48 H -0.941917 -5.078700 1.615880 0
M  V30 49 H -2.853277 -6.196393 0.450635 0
M  V30 50 H -3.428522 -7.269376 -1.249113 0
M  V30 51 H -5.253719 -8.351117 -2.417437 0
M  V30 52 H -7.282747 -7.222152 -4.825939 0
M  V30 53 H -6.790774 -4.611497 -3.702798 0
M  V30 54 H -4.922777 -3.476234 -2.508099 0
M  V30 55 H -2.862675 -3.065130 -2.508521 0
M  V30 56 H -1.004879 -1.986223 -1.370815 0
M  V30 57 H 3.144256 -2.613285 2.187279 0
M  V30 END ATOM
M  V30 BEGIN BOND
M  V30 1 1 1 2
M  V30 2 1 2 3
M  V30 3 2 3 4
M  V30 4 1 4 5
M  V30 5 2 5 6
M  V30 6 1 6 7
M  V30 7 2 7 8
M  V30 8 1 8 9
M  V30 9 1 9 10
M  V30 10 1 10 11
M  V30 11 1 11 12
M  V30 12 1 12 13
M  V30 13 1 6 14
M  V30 14 1 14 15
M  V30 15 1 15 16
M  V30 16 1 16 17
M  V30 17 2 17 18
M  V30 18 1 18 19
M  V30 19 2 19 20
M  V30 20 1 20 21
M  V30 21 2 21 22
M  V30 22 1 22 23
M  V30 23 2 23 24
M  V30 24 1 24 25
M  V30 25 1 24 26
M  V30 26 2 26 27
M  V30 27 1 20 28
M  V30 28 2 28 29
M  V30 29 2 16 30
M  V30 30 1 30 31
M  V30 31 1 31 32
M  V30 32 1 8 3
M  V30 33 2 32 15
M  V30 34 1 32 5
M  V30 35 1 29 17
M  V30 36 1 27 21
M  V30 37 1 1 33
M  V30 38 1 1 34
M  V30 39 1 1 35
M  V30 40 1 4 36
M  V30 41 1 7 37
M  V30 42 1 9 38
M  V30 43 1 9 39
M  V30 44 1 10 40
M  V30 45 1 11 41
M  V30 46 1 11 42
M  V30 47 1 12 43
M  V30 48 1 12 44
M  V30 49 1 13 45
M  V30 50 1 14 46
M  V30 51 1 14 47
M  V30 52 1 18 48
M  V30 53 1 19 49
M  V30 54 1 22 50
M  V30 55 1 23 51
M  V30 56 1 25 52
M  V30 57 1 26 53
M  V30 58 1 27 54
M  V30 59 1 28 55
M  V30 60 1 29 56
M  V30 61 1 31 57
M  V30 END BOND
M  V30 END CTAB
M  END
>  <Dataset>  (900) 
ChEMBL_Kinases

>  <Ligand_Instance>  (900) 
nan

>  <PDB_ID>  (900) 
nan

>  <Standardized_SMILES>  (900) 
COc1cc2c(cc1CNCCO)Cc1c(-c3ccc(-c4ccc(O)cc4)cc3)n[nH]c1-2

>  <Name>  (900) 
nan

>  <Pocket>  (900) 
nan

>  <ATP_Site>  (900) 
nan

>  <Peripheral>  (900) 
nan

>  <Num_H_Atoms_ProtBoundConf>  (900) 
nan

>  <Num_Resolved_Atoms>  (900) 
nan

>  <Num_Not_Resolved_Atoms>  (900) 
nan

$$$$
CHEMBL2326724
     RDKit          3D

  0  0  0  0  0  0  0  0  0  0999 V3000
M  V30 BEGIN CTAB
M  V30 COUNTS 43 44 0 0 0
M  V30 BEGIN ATOM
M  V30 1 C 0.075630 -6.359862 2.563065 0
M  V30 2 N -1.128287 -5.605713 2.844909 0
M  V30 3 C -1.387064 -4.257611 2.473243 0
M  V30 4 N -0.428561 -3.606150 1.792599 0
M  V30 5 C -0.575541 -2.329201 1.395168 0
M  V30 6 N 0.450461 -1.657133 0.675778 0
M  V30 7 C 0.396953 -0.314317 0.211123 0
M  V30 8 C -0.641021 0.581487 0.364698 0
M  V30 9 N -0.293111 1.742472 -0.219347 0
M  V30 10 N 0.931650 1.606630 -0.736289 0
M  V30 11 C 1.586016 2.694744 -1.435547 0
M  V30 12 C 2.404638 3.563604 -0.491854 0
M  V30 13 C 3.016509 4.646198 -1.387622 0
M  V30 14 C 1.510822 4.287133 0.491696 0
M  V30 15 C 3.421009 2.815604 0.203650 0
M  V30 16 N 4.248992 2.195201 0.765146 0
M  V30 17 C 1.374364 0.363980 -0.488144 0
M  V30 18 C 2.677392 -0.188463 -0.889454 0
M  V30 19 N -1.740245 -1.742600 1.719938 0
M  V30 20 C -2.736409 -2.338995 2.397929 0
M  V30 21 C -2.579318 -3.647381 2.802141 0
M  V30 22 C -3.635718 -4.371711 3.554614 0
M  V30 23 F -4.048567 -5.495560 2.837448 0
M  V30 24 F -4.736004 -3.576218 3.695196 0
M  V30 25 F -3.156881 -4.850498 4.750771 0
M  V30 26 H -0.027401 -6.936326 1.619660 0
M  V30 27 H 0.890647 -5.629102 2.396362 0
M  V30 28 H 0.350602 -7.018781 3.413682 0
M  V30 29 H -1.835573 -6.166931 3.376507 0
M  V30 30 H 1.329228 -2.207562 0.470016 0
M  V30 31 H -1.589250 0.452746 0.850186 0
M  V30 32 H 0.836903 3.362059 -1.907183 0
M  V30 33 H 2.236205 2.247814 -2.209409 0
M  V30 34 H 3.739180 4.152256 -2.086675 0
M  V30 35 H 2.165843 5.036101 -2.001391 0
M  V30 36 H 3.454944 5.457768 -0.799647 0
M  V30 37 H 1.216474 3.597378 1.316547 0
M  V30 38 H 0.664406 4.783381 0.004276 0
M  V30 39 H 2.143451 5.085273 0.950293 0
M  V30 40 H 3.199346 0.516936 -1.563019 0
M  V30 41 H 3.281262 -0.335643 0.028975 0
M  V30 42 H 2.552729 -1.141553 -1.478014 0
M  V30 43 H -3.641739 -1.790835 2.616771 0
M  V30 END ATOM
M  V30 BEGIN BOND
M  V30 1 1 1 2
M  V30 2 1 2 3
M  V30 3 2 3 4
M  V30 4 1 4 5
M  V30 5 1 5 6
M  V30 6 1 6 7
M  V30 7 1 7 8
M  V30 8 2 8 9
M  V30 9 1 9 10
M  V30 10 1 10 11
M  V30 11 1 11 12
M  V30 12 1 12 13
M  V30 13 1 12 14
M  V30 14 1 12 15
M  V30 15 3 15 16
M  V30 16 1 10 17
M  V30 17 1 17 18
M  V30 18 2 5 19
M  V30 19 1 19 20
M  V30 20 2 20 21
M  V30 21 1 21 22
M  V30 22 1 22 23
M  V30 23 1 22 24
M  V30 24 1 22 25
M  V30 25 1 21 3
M  V30 26 2 17 7
M  V30 27 1 1 26
M  V30 28 1 1 27
M  V30 29 1 1 28
M  V30 30 1 2 29
M  V30 31 1 6 30
M  V30 32 1 8 31
M  V30 33 1 11 32
M  V30 34 1 11 33
M  V30 35 1 13 34
M  V30 36 1 13 35
M  V30 37 1 13 36
M  V30 38 1 14 37
M  V30 39 1 14 38
M  V30 40 1 14 39
M  V30 41 1 18 40
M  V30 42 1 18 41
M  V30 43 1 18 42
M  V30 44 1 20 43
M  V30 END BOND
M  V30 END CTAB
M  END
>  <Dataset>  (901) 
ChEMBL_Kinases

>  <Ligand_Instance>  (901) 
nan

>  <PDB_ID>  (901) 
nan

>  <Standardized_SMILES>  (901) 
CNc1nc(Nc2cnn(CC(C)(C)C#N)c2C)ncc1C(F)(F)F

>  <Name>  (901) 
nan

>  <Pocket>  (901) 
nan

>  <ATP_Site>  (901) 
nan

>  <Peripheral>  (901) 
nan

>  <Num_H_Atoms_ProtBoundConf>  (901) 
nan

>  <Num_Resolved_Atoms>  (901) 
nan

>  <Num_Not_Resolved_Atoms>  (901) 
nan

$$$$
CHEMBL2326725
     RDKit          3D

  0  0  0  0  0  0  0  0  0  0999 V3000
M  V30 BEGIN CTAB
M  V30 COUNTS 43 44 0 0 0
M  V30 BEGIN ATOM
M  V30 1 C -1.433531 -6.134879 0.711763 0
M  V30 2 N -1.775893 -5.304601 1.836680 0
M  V30 3 C -1.321157 -4.088877 2.405340 0
M  V30 4 N -0.290866 -3.509195 1.762333 0
M  V30 5 C 0.250252 -2.346641 2.183663 0
M  V30 6 N 1.302813 -1.480915 1.783929 0
M  V30 7 C 1.126355 -0.552510 0.708176 0
M  V30 8 C -0.018403 -0.466521 -0.103862 0
M  V30 9 N 0.145124 0.493981 -1.031723 0
M  V30 10 N 1.356199 1.046515 -0.862723 0
M  V30 11 C 1.878493 2.120942 -1.657002 0
M  V30 12 C 1.497600 3.496912 -1.217127 0
M  V30 13 C 2.156102 4.480810 -2.163258 0
M  V30 14 C 1.849132 3.862387 0.181318 0
M  V30 15 O 0.117927 3.697870 -1.371655 0
M  V30 16 C 1.959646 0.433268 0.175203 0
M  V30 17 C 3.298485 0.667841 0.768841 0
M  V30 18 N -0.302244 -1.785463 3.300401 0
M  V30 19 C -1.333905 -2.344619 3.963523 0
M  V30 20 C -1.899150 -3.530245 3.548079 0
M  V30 21 C -3.042355 -4.203258 4.212290 0
M  V30 22 F -4.126708 -4.312954 3.333444 0
M  V30 23 F -3.472476 -3.414587 5.259919 0
M  V30 24 F -2.760442 -5.491207 4.625129 0
M  V30 25 H -0.782185 -5.559428 0.052954 0
M  V30 26 H -0.922568 -7.035741 1.118464 0
M  V30 27 H -2.356469 -6.406752 0.120072 0
M  V30 28 H -2.582722 -5.753739 2.348819 0
M  V30 29 H 2.255458 -1.438074 2.216504 0
M  V30 30 H -0.897353 -1.082942 0.006684 0
M  V30 31 H 1.469936 1.996545 -2.704631 0
M  V30 32 H 2.995367 2.100972 -1.712606 0
M  V30 33 H 2.913655 5.113836 -1.617190 0
M  V30 34 H 1.449937 5.208782 -2.595007 0
M  V30 35 H 2.683442 3.978301 -3.001372 0
M  V30 36 H 1.259946 4.759304 0.530296 0
M  V30 37 H 2.918683 4.123511 0.282390 0
M  V30 38 H 1.630413 3.091580 0.946990 0
M  V30 39 H -0.358428 2.852129 -1.101736 0
M  V30 40 H 3.189381 0.707043 1.880001 0
M  V30 41 H 4.059256 -0.083076 0.436306 0
M  V30 42 H 3.705018 1.657272 0.468288 0
M  V30 43 H -1.816797 -1.942958 4.860884 0
M  V30 END ATOM
M  V30 BEGIN BOND
M  V30 1 1 1 2
M  V30 2 1 2 3
M  V30 3 2 3 4
M  V30 4 1 4 5
M  V30 5 1 5 6
M  V30 6 1 6 7
M  V30 7 1 7 8
M  V30 8 2 8 9
M  V30 9 1 9 10
M  V30 10 1 10 11
M  V30 11 1 11 12
M  V30 12 1 12 13
M  V30 13 1 12 14
M  V30 14 1 12 15
M  V30 15 1 10 16
M  V30 16 1 16 17
M  V30 17 2 5 18
M  V30 18 1 18 19
M  V30 19 2 19 20
M  V30 20 1 20 21
M  V30 21 1 21 22
M  V30 22 1 21 23
M  V30 23 1 21 24
M  V30 24 1 20 3
M  V30 25 2 16 7
M  V30 26 1 1 25
M  V30 27 1 1 26
M  V30 28 1 1 27
M  V30 29 1 2 28
M  V30 30 1 6 29
M  V30 31 1 8 30
M  V30 32 1 11 31
M  V30 33 1 11 32
M  V30 34 1 13 33
M  V30 35 1 13 34
M  V30 36 1 13 35
M  V30 37 1 14 36
M  V30 38 1 14 37
M  V30 39 1 14 38
M  V30 40 1 15 39
M  V30 41 1 17 40
M  V30 42 1 17 41
M  V30 43 1 17 42
M  V30 44 1 19 43
M  V30 END BOND
M  V30 END CTAB
M  END
>  <Dataset>  (902) 
ChEMBL_Kinases

>  <Ligand_Instance>  (902) 
nan

>  <PDB_ID>  (902) 
nan

>  <Standardized_SMILES>  (902) 
CNc1nc(Nc2cnn(CC(C)(C)O)c2C)ncc1C(F)(F)F

>  <Name>  (902) 
nan

>  <Pocket>  (902) 
nan

>  <ATP_Site>  (902) 
nan

>  <Peripheral>  (902) 
nan

>  <Num_H_Atoms_ProtBoundConf>  (902) 
nan

>  <Num_Resolved_Atoms>  (902) 
nan

>  <Num_Not_Resolved_Atoms>  (902) 
nan

$$$$
CHEMBL2326726
     RDKit          3D

  0  0  0  0  0  0  0  0  0  0999 V3000
M  V30 BEGIN CTAB
M  V30 COUNTS 40 41 0 0 0
M  V30 BEGIN ATOM
M  V30 1 C 0.298653 -5.946252 2.994755 0
M  V30 2 N -0.657599 -5.752260 1.925279 0
M  V30 3 C -0.787145 -4.568813 1.155781 0
M  V30 4 N 0.027152 -3.537146 1.420447 0
M  V30 5 C -0.045383 -2.387932 0.726947 0
M  V30 6 N 0.818563 -1.294940 1.008622 0
M  V30 7 C 0.833367 -0.037701 0.345046 0
M  V30 8 C 0.013806 0.355057 -0.693664 0
M  V30 9 N 0.331215 1.621696 -1.057042 0
M  V30 10 N 1.326011 2.017067 -0.266894 0
M  V30 11 C 1.900876 3.336964 -0.399306 0
M  V30 12 C 1.241641 4.382857 0.440509 0
M  V30 13 C 1.956149 5.695427 0.187757 0
M  V30 14 C 1.285455 4.099590 1.907576 0
M  V30 15 O -0.104377 4.540796 0.086988 0
M  V30 16 C 1.657677 1.039726 0.595126 0
M  V30 17 Cl 2.905821 1.112600 1.814888 0
M  V30 18 N -0.975441 -2.341737 -0.236317 0
M  V30 19 C -1.820058 -3.340040 -0.549584 0
M  V30 20 C -1.742649 -4.517296 0.163971 0
M  V30 21 C -2.624901 -5.684304 -0.096171 0
M  V30 22 F -3.369164 -6.004326 1.026861 0
M  V30 23 F -3.556060 -5.266514 -1.047680 0
M  V30 24 F -1.911746 -6.777068 -0.546376 0
M  V30 25 H -0.100213 -5.676704 3.987855 0
M  V30 26 H 0.628769 -7.007357 3.064725 0
M  V30 27 H 1.235332 -5.356272 2.809842 0
M  V30 28 H -1.271784 -6.585087 1.755163 0
M  V30 29 H 1.522188 -1.429786 1.791215 0
M  V30 30 H -0.773779 -0.185862 -1.196228 0
M  V30 31 H 2.991265 3.329411 -0.112145 0
M  V30 32 H 1.873418 3.693496 -1.456103 0
M  V30 33 H 1.543894 6.109415 -0.735107 0
M  V30 34 H 1.832714 6.383769 1.052248 0
M  V30 35 H 3.045149 5.450092 0.062703 0
M  V30 36 H 0.721133 4.941671 2.404193 0
M  V30 37 H 0.748703 3.165380 2.179518 0
M  V30 38 H 2.322469 4.157187 2.255941 0
M  V30 39 H -0.557984 3.679004 0.272235 0
M  V30 40 H -2.559658 -3.262253 -1.337749 0
M  V30 END ATOM
M  V30 BEGIN BOND
M  V30 1 1 1 2
M  V30 2 1 2 3
M  V30 3 2 3 4
M  V30 4 1 4 5
M  V30 5 1 5 6
M  V30 6 1 6 7
M  V30 7 1 7 8
M  V30 8 2 8 9
M  V30 9 1 9 10
M  V30 10 1 10 11
M  V30 11 1 11 12
M  V30 12 1 12 13
M  V30 13 1 12 14
M  V30 14 1 12 15
M  V30 15 1 10 16
M  V30 16 1 16 17
M  V30 17 2 5 18
M  V30 18 1 18 19
M  V30 19 2 19 20
M  V30 20 1 20 21
M  V30 21 1 21 22
M  V30 22 1 21 23
M  V30 23 1 21 24
M  V30 24 1 20 3
M  V30 25 2 16 7
M  V30 26 1 1 25
M  V30 27 1 1 26
M  V30 28 1 1 27
M  V30 29 1 2 28
M  V30 30 1 6 29
M  V30 31 1 8 30
M  V30 32 1 11 31
M  V30 33 1 11 32
M  V30 34 1 13 33
M  V30 35 1 13 34
M  V30 36 1 13 35
M  V30 37 1 14 36
M  V30 38 1 14 37
M  V30 39 1 14 38
M  V30 40 1 15 39
M  V30 41 1 19 40
M  V30 END BOND
M  V30 END CTAB
M  END
>  <Dataset>  (903) 
ChEMBL_Kinases

>  <Ligand_Instance>  (903) 
nan

>  <PDB_ID>  (903) 
nan

>  <Standardized_SMILES>  (903) 
CNc1nc(Nc2cnn(CC(C)(C)O)c2Cl)ncc1C(F)(F)F

>  <Name>  (903) 
nan

>  <Pocket>  (903) 
nan

>  <ATP_Site>  (903) 
nan

>  <Peripheral>  (903) 
nan

>  <Num_H_Atoms_ProtBoundConf>  (903) 
nan

>  <Num_Resolved_Atoms>  (903) 
nan

>  <Num_Not_Resolved_Atoms>  (903) 
nan

$$$$
CHEMBL232804
     RDKit          3D

  0  0  0  0  0  0  0  0  0  0999 V3000
M  V30 BEGIN CTAB
M  V30 COUNTS 45 49 0 0 0
M  V30 BEGIN ATOM
M  V30 1 O 2.973960 -7.044607 -3.537479 0
M  V30 2 C 2.173729 -6.083404 -4.184577 0
M  V30 3 C 1.609663 -5.113876 -3.215390 0
M  V30 4 C 0.390076 -5.352680 -2.614315 0
M  V30 5 C -0.228725 -4.518803 -1.698361 0
M  V30 6 C 0.455072 -3.361497 -1.380589 0
M  V30 7 C 1.683920 -3.048289 -1.939824 0
M  V30 8 C 2.244945 -3.941423 -2.858038 0
M  V30 9 C 2.096343 -1.765536 -1.374406 0
M  V30 10 N 3.100325 -0.854353 -1.412172 0
M  V30 11 N 2.800495 0.142055 -0.589485 0
M  V30 12 C 1.595152 -0.100627 0.000407 0
M  V30 13 C 0.844795 0.696281 0.973736 0
M  V30 14 C 1.578009 1.210209 2.025534 0
M  V30 15 C 0.861191 1.971696 2.954722 0
M  V30 16 C -0.498442 2.209914 2.849099 0
M  V30 17 C -1.203521 3.011277 3.843878 0
M  V30 18 C -2.544448 2.797883 4.183239 0
M  V30 19 C -3.086014 3.622327 5.134238 0
M  V30 20 C -2.436113 4.645394 5.791822 0
M  V30 21 O -3.053749 5.439924 6.746130 0
M  V30 22 C -1.099551 4.827784 5.426523 0
M  V30 23 C -0.498741 4.016644 4.463970 0
M  V30 24 C -1.144610 1.650695 1.757577 0
M  V30 25 C -0.511460 0.884363 0.791770 0
M  V30 26 C 1.133226 -1.313017 -0.489580 0
M  V30 27 C 0.019662 -2.302040 -0.433809 0
M  V30 28 H 2.676377 -7.227850 -2.623865 0
M  V30 29 H 1.357176 -6.679165 -4.651543 0
M  V30 30 H 2.766646 -5.631084 -4.990255 0
M  V30 31 H -0.107454 -6.273470 -2.895725 0
M  V30 32 H -1.190248 -4.780297 -1.271380 0
M  V30 33 H 3.204365 -3.703881 -3.298920 0
M  V30 34 H 3.984303 -0.871532 -1.969401 0
M  V30 35 H 2.640610 1.036607 2.127087 0
M  V30 36 H 1.382096 2.397283 3.795937 0
M  V30 37 H -3.080076 2.012471 3.693004 0
M  V30 38 H -4.131699 3.485384 5.425112 0
M  V30 39 H -3.592599 4.939833 7.458940 0
M  V30 40 H -0.569775 5.622516 5.927345 0
M  V30 41 H 0.537994 4.258174 4.270097 0
M  V30 42 H -2.223163 1.812653 1.632449 0
M  V30 43 H -1.042874 0.463161 -0.045934 0
M  V30 44 H -0.953066 -1.858145 -0.684156 0
M  V30 45 H -0.084967 -2.701957 0.606732 0
M  V30 END ATOM
M  V30 BEGIN BOND
M  V30 1 1 1 2
M  V30 2 1 2 3
M  V30 3 2 3 4
M  V30 4 1 4 5
M  V30 5 2 5 6
M  V30 6 1 6 7
M  V30 7 2 7 8
M  V30 8 1 7 9
M  V30 9 1 9 10
M  V30 10 1 10 11
M  V30 11 2 11 12
M  V30 12 1 12 13
M  V30 13 2 13 14
M  V30 14 1 14 15
M  V30 15 2 15 16
M  V30 16 1 16 17
M  V30 17 2 17 18
M  V30 18 1 18 19
M  V30 19 2 19 20
M  V30 20 1 20 21
M  V30 21 1 20 22
M  V30 22 2 22 23
M  V30 23 1 16 24
M  V30 24 2 24 25
M  V30 25 1 12 26
M  V30 26 1 26 27
M  V30 27 1 8 3
M  V30 28 2 26 9
M  V30 29 1 27 6
M  V30 30 1 25 13
M  V30 31 1 23 17
M  V30 32 1 1 28
M  V30 33 1 2 29
M  V30 34 1 2 30
M  V30 35 1 4 31
M  V30 36 1 5 32
M  V30 37 1 8 33
M  V30 38 1 10 34
M  V30 39 1 14 35
M  V30 40 1 15 36
M  V30 41 1 18 37
M  V30 42 1 19 38
M  V30 43 1 21 39
M  V30 44 1 22 40
M  V30 45 1 23 41
M  V30 46 1 24 42
M  V30 47 1 25 43
M  V30 48 1 27 44
M  V30 49 1 27 45
M  V30 END BOND
M  V30 END CTAB
M  END
>  <Dataset>  (904) 
ChEMBL_Kinases

>  <Ligand_Instance>  (904) 
nan

>  <PDB_ID>  (904) 
nan

>  <Standardized_SMILES>  (904) 
OCc1ccc2c(c1)-c1[nH]nc(-c3ccc(-c4ccc(O)cc4)cc3)c1C2

>  <Name>  (904) 
nan

>  <Pocket>  (904) 
nan

>  <ATP_Site>  (904) 
nan

>  <Peripheral>  (904) 
nan

>  <Num_H_Atoms_ProtBoundConf>  (904) 
nan

>  <Num_Resolved_Atoms>  (904) 
nan

>  <Num_Not_Resolved_Atoms>  (904) 
nan

$$$$
CHEMBL232805
     RDKit          3D

  0  0  0  0  0  0  0  0  0  0999 V3000
M  V30 BEGIN CTAB
M  V30 COUNTS 52 56 0 0 0
M  V30 BEGIN ATOM
M  V30 1 O 5.166113 2.845557 2.989550 0
M  V30 2 C 4.941997 1.728845 3.473924 0
M  V30 3 N 5.790572 1.268536 4.516561 0
M  V30 4 C 6.900719 2.059441 5.026999 0
M  V30 5 C 6.443888 3.373604 5.599208 0
M  V30 6 O 5.565108 3.086361 6.638364 0
M  V30 7 C 3.828989 0.936167 2.962868 0
M  V30 8 C 3.471092 -0.314137 3.415865 0
M  V30 9 C 2.422573 -1.065379 2.935976 0
M  V30 10 C 1.667739 -0.505507 1.907508 0
M  V30 11 C 1.967790 0.741932 1.404119 0
M  V30 12 C 3.040650 1.431459 1.944232 0
M  V30 13 C 1.008956 1.055031 0.346342 0
M  V30 14 N 0.634490 1.977331 -0.560928 0
M  V30 15 N -0.417696 1.546397 -1.239991 0
M  V30 16 C -0.767819 0.306733 -0.787844 0
M  V30 17 C -1.874352 -0.540867 -1.256468 0
M  V30 18 C -1.542967 -1.880431 -1.460194 0
M  V30 19 C -2.556922 -2.727081 -1.904180 0
M  V30 20 C -3.839841 -2.274689 -2.137244 0
M  V30 21 C -4.823143 -3.254657 -2.601503 0
M  V30 22 C -4.760906 -4.576324 -2.214155 0
M  V30 23 C -5.704027 -5.476594 -2.671360 0
M  V30 24 C -6.702583 -5.038142 -3.515026 0
M  V30 25 O -7.673653 -5.917229 -3.998187 0
M  V30 26 C -6.801322 -3.710089 -3.930463 0
M  V30 27 C -5.834488 -2.816315 -3.454458 0
M  V30 28 C -4.145404 -0.945663 -1.929358 0
M  V30 29 C -3.163170 -0.079976 -1.489346 0
M  V30 30 C 0.133385 -0.000465 0.212249 0
M  V30 31 C 0.481267 -1.054042 1.176137 0
M  V30 32 H 5.603787 0.324158 4.926548 0
M  V30 33 H 7.400104 1.502928 5.844358 0
M  V30 34 H 7.687729 2.196507 4.251080 0
M  V30 35 H 6.011376 3.996051 4.815975 0
M  V30 36 H 7.345355 3.904683 5.975190 0
M  V30 37 H 4.615903 3.047461 6.352503 0
M  V30 38 H 4.046102 -0.757564 4.210690 0
M  V30 39 H 2.190637 -2.042687 3.333668 0
M  V30 40 H 3.264909 2.406010 1.541866 0
M  V30 41 H 1.089102 2.917330 -0.733913 0
M  V30 42 H -0.561758 -2.300120 -1.298105 0
M  V30 43 H -2.318805 -3.782753 -2.070683 0
M  V30 44 H -3.969419 -4.932124 -1.542562 0
M  V30 45 H -5.674691 -6.525969 -2.378700 0
M  V30 46 H -8.526824 -5.979865 -3.443852 0
M  V30 47 H -7.605909 -3.404980 -4.598047 0
M  V30 48 H -5.902248 -1.780511 -3.770591 0
M  V30 49 H -5.145694 -0.590786 -2.109778 0
M  V30 50 H -3.357743 0.969502 -1.313062 0
M  V30 51 H 0.701405 -2.039358 0.724975 0
M  V30 52 H -0.386011 -1.204262 1.866931 0
M  V30 END ATOM
M  V30 BEGIN BOND
M  V30 1 2 1 2
M  V30 2 1 2 3
M  V30 3 1 3 4
M  V30 4 1 4 5
M  V30 5 1 5 6
M  V30 6 1 2 7
M  V30 7 2 7 8
M  V30 8 1 8 9
M  V30 9 2 9 10
M  V30 10 1 10 11
M  V30 11 2 11 12
M  V30 12 1 11 13
M  V30 13 1 13 14
M  V30 14 1 14 15
M  V30 15 2 15 16
M  V30 16 1 16 17
M  V30 17 2 17 18
M  V30 18 1 18 19
M  V30 19 2 19 20
M  V30 20 1 20 21
M  V30 21 2 21 22
M  V30 22 1 22 23
M  V30 23 2 23 24
M  V30 24 1 24 25
M  V30 25 1 24 26
M  V30 26 2 26 27
M  V30 27 1 20 28
M  V30 28 2 28 29
M  V30 29 1 16 30
M  V30 30 1 30 31
M  V30 31 1 12 7
M  V30 32 2 30 13
M  V30 33 1 31 10
M  V30 34 1 29 17
M  V30 35 1 27 21
M  V30 36 1 3 32
M  V30 37 1 4 33
M  V30 38 1 4 34
M  V30 39 1 5 35
M  V30 40 1 5 36
M  V30 41 1 6 37
M  V30 42 1 8 38
M  V30 43 1 9 39
M  V30 44 1 12 40
M  V30 45 1 14 41
M  V30 46 1 18 42
M  V30 47 1 19 43
M  V30 48 1 22 44
M  V30 49 1 23 45
M  V30 50 1 25 46
M  V30 51 1 26 47
M  V30 52 1 27 48
M  V30 53 1 28 49
M  V30 54 1 29 50
M  V30 55 1 31 51
M  V30 56 1 31 52
M  V30 END BOND
M  V30 END CTAB
M  END
>  <Dataset>  (905) 
ChEMBL_Kinases

>  <Ligand_Instance>  (905) 
nan

>  <PDB_ID>  (905) 
nan

>  <Standardized_SMILES>  (905) 
O=C(NCCO)c1ccc2c(c1)-c1[nH]nc(-c3ccc(-c4ccc(O)cc4)cc3)c1C2

>  <Name>  (905) 
nan

>  <Pocket>  (905) 
nan

>  <ATP_Site>  (905) 
nan

>  <Peripheral>  (905) 
nan

>  <Num_H_Atoms_ProtBoundConf>  (905) 
nan

>  <Num_Resolved_Atoms>  (905) 
nan

>  <Num_Not_Resolved_Atoms>  (905) 
nan

$$$$
CHEMBL232806
     RDKit          3D

  0  0  0  0  0  0  0  0  0  0999 V3000
M  V30 BEGIN CTAB
M  V30 COUNTS 48 52 0 0 0
M  V30 BEGIN ATOM
M  V30 1 C 8.493595 -1.225127 4.577984 0
M  V30 2 N 7.179836 -1.316549 3.974877 0
M  V30 3 C 6.276412 -0.314108 3.587275 0
M  V30 4 O 6.701041 0.852352 3.811120 0
M  V30 5 C 4.991032 -0.641678 2.991119 0
M  V30 6 C 4.559786 -1.930734 2.761793 0
M  V30 7 C 3.336368 -2.203112 2.195220 0
M  V30 8 C 2.550372 -1.114137 1.862596 0
M  V30 9 C 2.962080 0.186454 2.083282 0
M  V30 10 C 4.207382 0.445187 2.659551 0
M  V30 11 C 1.919658 1.099196 1.628902 0
M  V30 12 N 1.484764 2.361177 1.461071 0
M  V30 13 N 0.274204 2.384743 0.907624 0
M  V30 14 C -0.167403 1.129145 0.674459 0
M  V30 15 C -1.424870 0.674328 0.087858 0
M  V30 16 C -2.652839 1.195681 0.437144 0
M  V30 17 C -3.854727 0.780450 -0.104949 0
M  V30 18 C -3.802645 -0.234113 -1.067652 0
M  V30 19 C -5.088303 -0.676386 -1.646550 0
M  V30 20 C -5.163703 -1.999719 -2.031919 0
M  V30 21 C -6.373231 -2.428236 -2.580471 0
M  V30 22 C -7.403203 -1.518630 -2.702389 0
M  V30 23 O -8.599367 -1.980636 -3.255194 0
M  V30 24 C -7.302371 -0.192705 -2.307221 0
M  V30 25 C -6.105691 0.246200 -1.760465 0
M  V30 26 C -2.579093 -0.791082 -1.451468 0
M  V30 27 C -1.407255 -0.324893 -0.864345 0
M  V30 28 C 0.880061 0.340771 1.134374 0
M  V30 29 C 1.204852 -1.124575 1.246829 0
M  V30 30 H 8.419428 -1.663877 5.602308 0
M  V30 31 H 9.277597 -1.770742 4.016714 0
M  V30 32 H 8.745950 -0.155537 4.728153 0
M  V30 33 H 6.994020 -2.333564 3.863832 0
M  V30 34 H 5.188815 -2.759592 3.029178 0
M  V30 35 H 3.031415 -3.223258 2.030243 0
M  V30 36 H 4.486818 1.469175 2.812705 0
M  V30 37 H 2.036735 3.218986 1.734802 0
M  V30 38 H -2.665398 1.978118 1.182995 0
M  V30 39 H -4.802358 1.187368 0.169140 0
M  V30 40 H -4.361670 -2.696236 -1.933751 0
M  V30 41 H -6.459440 -3.463303 -2.891622 0
M  V30 42 H -8.622576 -2.687992 -3.995133 0
M  V30 43 H -8.193868 0.426153 -2.458417 0
M  V30 44 H -6.037344 1.264595 -1.460245 0
M  V30 45 H -2.676264 -1.557923 -2.195768 0
M  V30 46 H -0.489383 -0.792803 -1.200180 0
M  V30 47 H 1.299782 -1.622386 0.278482 0
M  V30 48 H 0.475024 -1.663657 1.870832 0
M  V30 END ATOM
M  V30 BEGIN BOND
M  V30 1 1 1 2
M  V30 2 1 2 3
M  V30 3 2 3 4
M  V30 4 1 3 5
M  V30 5 2 5 6
M  V30 6 1 6 7
M  V30 7 2 7 8
M  V30 8 1 8 9
M  V30 9 2 9 10
M  V30 10 1 9 11
M  V30 11 1 11 12
M  V30 12 1 12 13
M  V30 13 2 13 14
M  V30 14 1 14 15
M  V30 15 2 15 16
M  V30 16 1 16 17
M  V30 17 2 17 18
M  V30 18 1 18 19
M  V30 19 2 19 20
M  V30 20 1 20 21
M  V30 21 2 21 22
M  V30 22 1 22 23
M  V30 23 1 22 24
M  V30 24 2 24 25
M  V30 25 1 18 26
M  V30 26 2 26 27
M  V30 27 1 14 28
M  V30 28 1 28 29
M  V30 29 1 10 5
M  V30 30 2 28 11
M  V30 31 1 29 8
M  V30 32 1 27 15
M  V30 33 1 25 19
M  V30 34 1 1 30
M  V30 35 1 1 31
M  V30 36 1 1 32
M  V30 37 1 2 33
M  V30 38 1 6 34
M  V30 39 1 7 35
M  V30 40 1 10 36
M  V30 41 1 12 37
M  V30 42 1 16 38
M  V30 43 1 17 39
M  V30 44 1 20 40
M  V30 45 1 21 41
M  V30 46 1 23 42
M  V30 47 1 24 43
M  V30 48 1 25 44
M  V30 49 1 26 45
M  V30 50 1 27 46
M  V30 51 1 29 47
M  V30 52 1 29 48
M  V30 END BOND
M  V30 END CTAB
M  END
>  <Dataset>  (906) 
ChEMBL_Kinases

>  <Ligand_Instance>  (906) 
nan

>  <PDB_ID>  (906) 
nan

>  <Standardized_SMILES>  (906) 
CNC(=O)c1ccc2c(c1)-c1[nH]nc(-c3ccc(-c4ccc(O)cc4)cc3)c1C2

>  <Name>  (906) 
nan

>  <Pocket>  (906) 
nan

>  <ATP_Site>  (906) 
nan

>  <Peripheral>  (906) 
nan

>  <Num_H_Atoms_ProtBoundConf>  (906) 
nan

>  <Num_Resolved_Atoms>  (906) 
nan

>  <Num_Not_Resolved_Atoms>  (906) 
nan

$$$$
CHEMBL232807
     RDKit          3D

  0  0  0  0  0  0  0  0  0  0999 V3000
M  V30 BEGIN CTAB
M  V30 COUNTS 56 61 0 0 0
M  V30 BEGIN ATOM
M  V30 1 O 5.014506 -4.774957 -1.916560 0
M  V30 2 C 3.763802 -4.546329 -1.955966 0
M  V30 3 C 2.982108 -3.681201 -1.056840 0
M  V30 4 C 2.806951 -4.190139 0.222620 0
M  V30 5 C 2.082530 -3.423492 1.099383 0
M  V30 6 C 1.553714 -2.205222 0.726832 0
M  V30 7 C 1.752814 -1.727462 -0.572950 0
M  V30 8 C 2.485436 -2.478766 -1.495929 0
M  V30 9 C 1.074355 -0.416934 -0.671814 0
M  V30 10 N 0.842853 0.586302 -1.562412 0
M  V30 11 N 0.122532 1.491091 -0.919013 0
M  V30 12 C -0.113779 1.109184 0.337010 0
M  V30 13 C -0.858626 1.789026 1.392606 0
M  V30 14 C -0.488694 1.942299 2.713650 0
M  V30 15 C -1.327290 2.619748 3.578099 0
M  V30 16 C -2.522469 3.137694 3.123987 0
M  V30 17 C -3.454896 3.859638 3.982129 0
M  V30 18 C -3.569957 3.534980 5.339944 0
M  V30 19 C -4.455135 4.223664 6.139475 0
M  V30 20 C -5.257580 5.238705 5.682227 0
M  V30 21 O -6.176707 5.992238 6.395802 0
M  V30 22 C -5.149242 5.569690 4.329273 0
M  V30 23 C -4.256015 4.878440 3.509954 0
M  V30 24 C -2.915158 2.992439 1.788162 0
M  V30 25 C -2.069728 2.310372 0.919906 0
M  V30 26 C 0.480573 -0.117270 0.545745 0
M  V30 27 C 0.744704 -1.225688 1.511467 0
M  V30 28 N 3.040927 -5.215440 -3.004047 0
M  V30 29 C 1.610898 -5.046171 -3.169045 0
M  V30 30 C 1.106120 -6.178849 -4.023748 0
M  V30 31 O 1.641047 -5.982007 -5.294027 0
M  V30 32 C 3.011186 -6.075550 -5.322432 0
M  V30 33 C 3.645523 -6.087991 -3.955679 0
M  V30 34 H 3.213985 -5.141854 0.531772 0
M  V30 35 H 1.906740 -3.771465 2.127237 0
M  V30 36 H 2.637986 -2.117522 -2.486075 0
M  V30 37 H 1.170869 0.629025 -2.555654 0
M  V30 38 H 0.454014 1.508586 2.986049 0
M  V30 39 H -1.038491 2.739596 4.612548 0
M  V30 40 H -2.973963 2.744661 5.786720 0
M  V30 41 H -4.606510 4.030559 7.209784 0
M  V30 42 H -7.162207 5.732667 6.504010 0
M  V30 43 H -5.744695 6.364043 3.867593 0
M  V30 44 H -4.194439 5.156435 2.466593 0
M  V30 45 H -3.850699 3.402300 1.442547 0
M  V30 46 H -2.427873 2.231634 -0.100456 0
M  V30 47 H -0.194983 -1.680116 1.870368 0
M  V30 48 H 1.281604 -0.858707 2.394097 0
M  V30 49 H 1.094115 -5.042164 -2.184285 0
M  V30 50 H 1.433536 -4.078131 -3.703045 0
M  V30 51 H -0.002643 -6.145404 -4.128543 0
M  V30 52 H 1.466294 -7.138265 -3.628610 0
M  V30 53 H 3.283510 -7.027424 -5.837317 0
M  V30 54 H 3.425059 -5.233353 -5.916277 0
M  V30 55 H 4.738329 -5.887688 -4.036884 0
M  V30 56 H 3.566665 -7.125319 -3.517133 0
M  V30 END ATOM
M  V30 BEGIN BOND
M  V30 1 2 1 2
M  V30 2 1 2 3
M  V30 3 2 3 4
M  V30 4 1 4 5
M  V30 5 2 5 6
M  V30 6 1 6 7
M  V30 7 2 7 8
M  V30 8 1 7 9
M  V30 9 1 9 10
M  V30 10 1 10 11
M  V30 11 2 11 12
M  V30 12 1 12 13
M  V30 13 2 13 14
M  V30 14 1 14 15
M  V30 15 2 15 16
M  V30 16 1 16 17
M  V30 17 2 17 18
M  V30 18 1 18 19
M  V30 19 2 19 20
M  V30 20 1 20 21
M  V30 21 1 20 22
M  V30 22 2 22 23
M  V30 23 1 16 24
M  V30 24 2 24 25
M  V30 25 1 12 26
M  V30 26 1 26 27
M  V30 27 1 2 28
M  V30 28 1 28 29
M  V30 29 1 29 30
M  V30 30 1 30 31
M  V30 31 1 31 32
M  V30 32 1 32 33
M  V30 33 1 8 3
M  V30 34 2 26 9
M  V30 35 1 33 28
M  V30 36 1 27 6
M  V30 37 1 25 13
M  V30 38 1 23 17
M  V30 39 1 4 34
M  V30 40 1 5 35
M  V30 41 1 8 36
M  V30 42 1 10 37
M  V30 43 1 14 38
M  V30 44 1 15 39
M  V30 45 1 18 40
M  V30 46 1 19 41
M  V30 47 1 21 42
M  V30 48 1 22 43
M  V30 49 1 23 44
M  V30 50 1 24 45
M  V30 51 1 25 46
M  V30 52 1 27 47
M  V30 53 1 27 48
M  V30 54 1 29 49
M  V30 55 1 29 50
M  V30 56 1 30 51
M  V30 57 1 30 52
M  V30 58 1 32 53
M  V30 59 1 32 54
M  V30 60 1 33 55
M  V30 61 1 33 56
M  V30 END BOND
M  V30 END CTAB
M  END
>  <Dataset>  (907) 
ChEMBL_Kinases

>  <Ligand_Instance>  (907) 
nan

>  <PDB_ID>  (907) 
nan

>  <Standardized_SMILES>  (907) 
O=C(c1ccc2c(c1)-c1[nH]nc(-c3ccc(-c4ccc(O)cc4)cc3)c1C2)N1CCOCC1

>  <Name>  (907) 
nan

>  <Pocket>  (907) 
nan

>  <ATP_Site>  (907) 
nan

>  <Peripheral>  (907) 
nan

>  <Num_H_Atoms_ProtBoundConf>  (907) 
nan

>  <Num_Resolved_Atoms>  (907) 
nan

>  <Num_Not_Resolved_Atoms>  (907) 
nan

$$$$
CHEMBL232808
     RDKit          3D

  0  0  0  0  0  0  0  0  0  0999 V3000
M  V30 BEGIN CTAB
M  V30 COUNTS 60 65 0 0 0
M  V30 BEGIN ATOM
M  V30 1 C 1.805889 2.812004 5.322722 0
M  V30 2 O 2.312292 2.923006 4.009945 0
M  V30 3 C 1.933878 2.033630 3.019066 0
M  V30 4 C 1.034015 1.009906 3.331396 0
M  V30 5 C 0.671087 0.139382 2.338362 0
M  V30 6 C 1.143250 0.206510 1.025261 0
M  V30 7 C 2.030384 1.221674 0.731850 0
M  V30 8 C 2.404280 2.104982 1.721859 0
M  V30 9 C 3.341128 3.206122 1.483564 0
M  V30 10 O 4.563717 3.429681 1.527900 0
M  V30 11 N 2.762480 4.439163 1.070509 0
M  V30 12 C 3.644688 5.559932 0.821246 0
M  V30 13 C 2.966838 6.618634 -0.027500 0
M  V30 14 O 1.800427 7.091188 0.539394 0
M  V30 15 C 1.218331 6.203181 1.414746 0
M  V30 16 C 1.372605 4.792958 0.842521 0
M  V30 17 C 0.514304 -0.917727 0.243970 0
M  V30 18 C -0.326637 -1.586973 1.239341 0
M  V30 19 C -1.191979 -2.652911 1.341895 0
M  V30 20 C -1.676927 -3.658285 0.402333 0
M  V30 21 C -3.019922 -3.979506 0.361506 0
M  V30 22 C -3.422714 -4.939362 -0.548559 0
M  V30 23 C -2.515120 -5.559457 -1.391432 0
M  V30 24 C -3.003541 -6.564213 -2.329345 0
M  V30 25 C -4.246098 -6.596386 -2.945052 0
M  V30 26 C -4.565306 -7.618944 -3.814831 0
M  V30 27 C -3.681503 -8.636898 -4.106979 0
M  V30 28 O -4.037051 -9.653325 -4.989620 0
M  V30 29 C -2.433283 -8.647166 -3.518264 0
M  V30 30 C -2.148160 -7.610504 -2.654940 0
M  V30 31 C -1.176275 -5.255256 -1.367346 0
M  V30 32 C -0.777186 -4.282698 -0.443229 0
M  V30 33 N -1.628521 -2.687185 2.624431 0
M  V30 34 N -1.063158 -1.688011 3.297796 0
M  V30 35 C -0.255929 -0.988819 2.480582 0
M  V30 36 H 1.901315 1.804327 5.732729 0
M  V30 37 H 0.712767 3.033138 5.273049 0
M  V30 38 H 2.299616 3.589103 5.959873 0
M  V30 39 H 0.667988 0.952614 4.335927 0
M  V30 40 H 2.420850 1.316492 -0.258164 0
M  V30 41 H 3.935500 5.972439 1.811197 0
M  V30 42 H 4.502279 5.161853 0.255404 0
M  V30 43 H 2.803826 6.175513 -1.041950 0
M  V30 44 H 3.654220 7.471364 -0.180933 0
M  V30 45 H 1.741599 6.205228 2.400336 0
M  V30 46 H 0.146589 6.446644 1.548227 0
M  V30 47 H 0.689118 4.065307 1.336774 0
M  V30 48 H 1.096130 4.794702 -0.230693 0
M  V30 49 H -0.064075 -0.456267 -0.585300 0
M  V30 50 H 1.332808 -1.529153 -0.159441 0
M  V30 51 H -3.714259 -3.496661 1.014921 0
M  V30 52 H -4.488721 -5.188166 -0.574343 0
M  V30 53 H -4.903917 -5.778482 -2.685366 0
M  V30 54 H -5.546101 -7.614290 -4.280045 0
M  V30 55 H -3.315417 -10.227211 -5.428834 0
M  V30 56 H -1.702108 -9.419950 -3.711422 0
M  V30 57 H -1.157612 -7.636266 -2.199524 0
M  V30 58 H -0.456666 -5.727907 -2.015530 0
M  V30 59 H 0.286673 -4.031185 -0.413987 0
M  V30 60 H -1.236008 -1.496479 4.306867 0
M  V30 END ATOM
M  V30 BEGIN BOND
M  V30 1 1 1 2
M  V30 2 1 2 3
M  V30 3 2 3 4
M  V30 4 1 4 5
M  V30 5 2 5 6
M  V30 6 1 6 7
M  V30 7 2 7 8
M  V30 8 1 8 9
M  V30 9 2 9 10
M  V30 10 1 9 11
M  V30 11 1 11 12
M  V30 12 1 12 13
M  V30 13 1 13 14
M  V30 14 1 14 15
M  V30 15 1 15 16
M  V30 16 1 6 17
M  V30 17 1 17 18
M  V30 18 1 18 19
M  V30 19 1 19 20
M  V30 20 2 20 21
M  V30 21 1 21 22
M  V30 22 2 22 23
M  V30 23 1 23 24
M  V30 24 2 24 25
M  V30 25 1 25 26
M  V30 26 2 26 27
M  V30 27 1 27 28
M  V30 28 1 27 29
M  V30 29 2 29 30
M  V30 30 1 23 31
M  V30 31 2 31 32
M  V30 32 2 19 33
M  V30 33 1 33 34
M  V30 34 1 34 35
M  V30 35 1 8 3
M  V30 36 1 16 11
M  V30 37 2 35 18
M  V30 38 1 35 5
M  V30 39 1 32 20
M  V30 40 1 30 24
M  V30 41 1 1 36
M  V30 42 1 1 37
M  V30 43 1 1 38
M  V30 44 1 4 39
M  V30 45 1 7 40
M  V30 46 1 12 41
M  V30 47 1 12 42
M  V30 48 1 13 43
M  V30 49 1 13 44
M  V30 50 1 15 45
M  V30 51 1 15 46
M  V30 52 1 16 47
M  V30 53 1 16 48
M  V30 54 1 17 49
M  V30 55 1 17 50
M  V30 56 1 21 51
M  V30 57 1 22 52
M  V30 58 1 25 53
M  V30 59 1 26 54
M  V30 60 1 28 55
M  V30 61 1 29 56
M  V30 62 1 30 57
M  V30 63 1 31 58
M  V30 64 1 32 59
M  V30 65 1 34 60
M  V30 END BOND
M  V30 END CTAB
M  END
>  <Dataset>  (908) 
ChEMBL_Kinases

>  <Ligand_Instance>  (908) 
nan

>  <PDB_ID>  (908) 
nan

>  <Standardized_SMILES>  (908) 
COc1cc2c(cc1C(=O)N1CCOCC1)Cc1c(-c3ccc(-c4ccc(O)cc4)cc3)n[nH]c1-2

>  <Name>  (908) 
nan

>  <Pocket>  (908) 
nan

>  <ATP_Site>  (908) 
nan

>  <Peripheral>  (908) 
nan

>  <Num_H_Atoms_ProtBoundConf>  (908) 
nan

>  <Num_Resolved_Atoms>  (908) 
nan

>  <Num_Not_Resolved_Atoms>  (908) 
nan

$$$$
CHEMBL2326723
     RDKit          3D

  0  0  0  0  0  0  0  0  0  0999 V3000
M  V30 BEGIN CTAB
M  V30 COUNTS 37 38 0 0 0
M  V30 BEGIN ATOM
M  V30 1 C -2.038234 -5.231133 0.947526 0
M  V30 2 N -2.537761 -4.222643 1.893577 0
M  V30 3 C -2.013541 -2.912143 2.002401 0
M  V30 4 N -0.998302 -2.595281 1.180208 0
M  V30 5 C -0.420098 -1.378958 1.193698 0
M  V30 6 N 0.655291 -1.064691 0.312904 0
M  V30 7 C 1.333074 0.186078 0.247235 0
M  V30 8 C 1.093508 1.317383 1.001953 0
M  V30 9 N 1.954918 2.298204 0.635486 0
M  V30 10 N 2.723569 1.793391 -0.333136 0
M  V30 11 C 3.778726 2.550851 -0.988431 0
M  V30 12 C 3.175297 3.244469 -2.174086 0
M  V30 13 C 2.120911 4.129677 -1.710298 0
M  V30 14 N 1.269833 4.823599 -1.337337 0
M  V30 15 C 2.375974 0.521028 -0.592813 0
M  V30 16 C 2.985346 -0.371965 -1.589857 0
M  V30 17 N -0.920416 -0.500373 2.080100 0
M  V30 18 C -1.932500 -0.751217 2.929981 0
M  V30 19 C -2.517160 -2.000699 2.907244 0
M  V30 20 C -3.640627 -2.388154 3.800011 0
M  V30 21 F -3.216872 -3.459430 4.559719 0
M  V30 22 F -4.734131 -2.845907 3.088549 0
M  V30 23 F -4.028223 -1.322630 4.572472 0
M  V30 24 H -2.047140 -6.244551 1.420367 0
M  V30 25 H -2.660144 -5.307530 0.050870 0
M  V30 26 H -0.975033 -4.979154 0.745379 0
M  V30 27 H -3.323590 -4.554318 2.489829 0
M  V30 28 H 0.972633 -1.824451 -0.343401 0
M  V30 29 H 0.356160 1.467984 1.776006 0
M  V30 30 H 4.244314 3.251002 -0.272239 0
M  V30 31 H 4.559577 1.853410 -1.403583 0
M  V30 32 H 3.920813 3.885564 -2.698310 0
M  V30 33 H 2.834732 2.486079 -2.887039 0
M  V30 34 H 3.540293 0.216470 -2.376934 0
M  V30 35 H 3.762270 -1.058482 -1.169233 0
M  V30 36 H 2.239944 -0.967218 -2.141787 0
M  V30 37 H -2.295764 -0.000687 3.625942 0
M  V30 END ATOM
M  V30 BEGIN BOND
M  V30 1 1 1 2
M  V30 2 1 2 3
M  V30 3 2 3 4
M  V30 4 1 4 5
M  V30 5 1 5 6
M  V30 6 1 6 7
M  V30 7 1 7 8
M  V30 8 2 8 9
M  V30 9 1 9 10
M  V30 10 1 10 11
M  V30 11 1 11 12
M  V30 12 1 12 13
M  V30 13 3 13 14
M  V30 14 1 10 15
M  V30 15 1 15 16
M  V30 16 2 5 17
M  V30 17 1 17 18
M  V30 18 2 18 19
M  V30 19 1 19 20
M  V30 20 1 20 21
M  V30 21 1 20 22
M  V30 22 1 20 23
M  V30 23 1 19 3
M  V30 24 2 15 7
M  V30 25 1 1 24
M  V30 26 1 1 25
M  V30 27 1 1 26
M  V30 28 1 2 27
M  V30 29 1 6 28
M  V30 30 1 8 29
M  V30 31 1 11 30
M  V30 32 1 11 31
M  V30 33 1 12 32
M  V30 34 1 12 33
M  V30 35 1 16 34
M  V30 36 1 16 35
M  V30 37 1 16 36
M  V30 38 1 18 37
M  V30 END BOND
M  V30 END CTAB
M  END
>  <Dataset>  (909) 
ChEMBL_Kinases

>  <Ligand_Instance>  (909) 
nan

>  <PDB_ID>  (909) 
nan

>  <Standardized_SMILES>  (909) 
CNc1nc(Nc2cnn(CCC#N)c2C)ncc1C(F)(F)F

>  <Name>  (909) 
nan

>  <Pocket>  (909) 
nan

>  <ATP_Site>  (909) 
nan

>  <Peripheral>  (909) 
nan

>  <Num_H_Atoms_ProtBoundConf>  (909) 
nan

>  <Num_Resolved_Atoms>  (909) 
nan

>  <Num_Not_Resolved_Atoms>  (909) 
nan

$$$$
CHEMBL2333116
     RDKit          3D

  0  0  0  0  0  0  0  0  0  0999 V3000
M  V30 BEGIN CTAB
M  V30 COUNTS 38 40 0 0 0
M  V30 BEGIN ATOM
M  V30 1 C -1.745567 -3.145348 1.260504 0
M  V30 2 C -0.722210 -3.615426 0.257418 0
M  V30 3 C -0.062931 -4.863036 0.820157 0
M  V30 4 N 0.275644 -2.635518 -0.019780 0
M  V30 5 C 0.444626 -1.313910 -0.498212 0
M  V30 6 C 0.595776 -1.134126 -1.853755 0
M  V30 7 C 0.603540 -2.209477 -2.832809 0
M  V30 8 N 0.755248 -1.987045 -4.225445 0
M  V30 9 O 0.487035 -3.446461 -2.655121 0
M  V30 10 N 0.754089 0.111118 -2.336980 0
M  V30 11 N 0.773347 1.180681 -1.578658 0
M  V30 12 C 0.633779 1.101180 -0.242816 0
M  V30 13 C 0.655230 2.204464 0.584829 0
M  V30 14 C 0.511550 2.042596 1.954750 0
M  V30 15 C 0.532010 3.206316 2.852471 0
M  V30 16 C 0.096058 4.491509 2.601023 0
M  V30 17 N 0.338569 5.167702 3.747350 0
M  V30 18 N 0.883095 4.369505 4.645420 0
M  V30 19 C 1.033370 3.132405 4.157541 0
M  V30 20 C 0.345973 0.770860 2.496785 0
M  V30 21 C 0.332862 -0.292371 1.617623 0
M  V30 22 C 0.470613 -0.168423 0.268066 0
M  V30 23 H -2.188164 -2.175738 0.964164 0
M  V30 24 H -1.306177 -3.142368 2.272417 0
M  V30 25 H -2.569044 -3.903502 1.274078 0
M  V30 26 H -1.305367 -3.923834 -0.642327 0
M  V30 27 H -0.478060 -5.778041 0.351717 0
M  V30 28 H 1.050401 -4.800616 0.698412 0
M  V30 29 H -0.243233 -4.918096 1.912591 0
M  V30 30 H 1.302966 -2.845896 0.151104 0
M  V30 31 H 0.051123 -1.802688 -4.985110 0
M  V30 32 H 1.692769 -1.981779 -4.702875 0
M  V30 33 H 0.784737 3.187593 0.151589 0
M  V30 34 H -0.338473 4.829912 1.668682 0
M  V30 35 H 1.127743 4.755954 5.587909 0
M  V30 36 H 1.456272 2.293050 4.696085 0
M  V30 37 H 0.235649 0.670835 3.573722 0
M  V30 38 H 0.209872 -1.253117 2.089658 0
M  V30 END ATOM
M  V30 BEGIN BOND
M  V30 1 1 1 2
M  V30 2 1 2 3
M  V30 3 1 2 4
M  V30 4 1 4 5
M  V30 5 2 5 6
M  V30 6 1 6 7
M  V30 7 1 7 8
M  V30 8 2 7 9
M  V30 9 1 6 10
M  V30 10 2 10 11
M  V30 11 1 11 12
M  V30 12 2 12 13
M  V30 13 1 13 14
M  V30 14 1 14 15
M  V30 15 1 15 16
M  V30 16 2 16 17
M  V30 17 1 17 18
M  V30 18 1 18 19
M  V30 19 2 14 20
M  V30 20 1 20 21
M  V30 21 2 21 22
M  V30 22 1 22 5
M  V30 23 1 22 12
M  V30 24 2 19 15
M  V30 25 1 1 23
M  V30 26 1 1 24
M  V30 27 1 1 25
M  V30 28 1 2 26
M  V30 29 1 3 27
M  V30 30 1 3 28
M  V30 31 1 3 29
M  V30 32 1 4 30
M  V30 33 1 8 31
M  V30 34 1 8 32
M  V30 35 1 13 33
M  V30 36 1 16 34
M  V30 37 1 18 35
M  V30 38 1 19 36
M  V30 39 1 20 37
M  V30 40 1 21 38
M  V30 END BOND
M  V30 END CTAB
M  END
>  <Dataset>  (910) 
ChEMBL_Kinases

>  <Ligand_Instance>  (910) 
nan

>  <PDB_ID>  (910) 
nan

>  <Standardized_SMILES>  (910) 
CC(C)Nc1c(C(N)=O)nnc2cc(-c3cn[nH]c3)ccc12

>  <Name>  (910) 
nan

>  <Pocket>  (910) 
nan

>  <ATP_Site>  (910) 
nan

>  <Peripheral>  (910) 
nan

>  <Num_H_Atoms_ProtBoundConf>  (910) 
nan

>  <Num_Resolved_Atoms>  (910) 
nan

>  <Num_Not_Resolved_Atoms>  (910) 
nan

$$$$
CHEMBL2333115
     RDKit          3D

  0  0  0  0  0  0  0  0  0  0999 V3000
M  V30 BEGIN CTAB
M  V30 COUNTS 38 40 0 0 0
M  V30 BEGIN ATOM
M  V30 1 C 1.125458 -3.645901 -1.208378 0
M  V30 2 C 1.403321 -2.153259 -1.169094 0
M  V30 3 C 2.525063 -1.973731 -0.159590 0
M  V30 4 N 0.211052 -1.436632 -0.856819 0
M  V30 5 C -0.352141 -0.153767 -0.656948 0
M  V30 6 C -0.862235 0.491072 -1.760605 0
M  V30 7 C -0.866246 -0.057605 -3.104414 0
M  V30 8 N -1.426080 0.600082 -4.228142 0
M  V30 9 O -0.407478 -1.151207 -3.517547 0
M  V30 10 N -1.416326 1.733615 -1.649979 0
M  V30 11 N -1.462210 2.323086 -0.463806 0
M  V30 12 C -0.994152 1.780492 0.671464 0
M  V30 13 C -1.070026 2.429972 1.881487 0
M  V30 14 C -0.587420 1.846480 3.037651 0
M  V30 15 C -0.034477 0.576473 2.861848 0
M  V30 16 C 0.497224 -0.096433 4.066472 0
M  V30 17 C 1.522334 -0.993570 4.303733 0
M  V30 18 N 1.569474 -1.283870 5.616269 0
M  V30 19 N 0.625829 -0.624894 6.267956 0
M  V30 20 C -0.032698 0.098605 5.348724 0
M  V30 21 C 0.051377 -0.091818 1.655627 0
M  V30 22 C -0.440281 0.527640 0.536393 0
M  V30 23 H 1.291813 -4.062062 -2.231067 0
M  V30 24 H 1.683867 -4.218573 -0.448981 0
M  V30 25 H 0.044397 -3.783779 -1.011337 0
M  V30 26 H 1.857442 -1.841980 -2.141978 0
M  V30 27 H 3.450797 -2.356502 -0.639310 0
M  V30 28 H 2.721643 -0.904277 0.042250 0
M  V30 29 H 2.328952 -2.543913 0.781487 0
M  V30 30 H -0.690700 -1.972927 -0.677576 0
M  V30 31 H -2.404755 0.855303 -4.503917 0
M  V30 32 H -2.411845 0.843881 -4.480954 0
M  V30 33 H -1.507238 3.411146 1.964324 0
M  V30 34 H -0.605132 2.281280 4.029624 0
M  V30 35 H 2.128167 -1.335909 3.460954 0
M  V30 36 H 0.388095 -0.621138 7.285178 0
M  V30 37 H -0.867918 0.752091 5.561503 0
M  V30 38 H 0.487770 -1.068605 1.619680 0
M  V30 END ATOM
M  V30 BEGIN BOND
M  V30 1 1 1 2
M  V30 2 1 2 3
M  V30 3 1 2 4
M  V30 4 1 4 5
M  V30 5 2 5 6
M  V30 6 1 6 7
M  V30 7 1 7 8
M  V30 8 2 7 9
M  V30 9 1 6 10
M  V30 10 2 10 11
M  V30 11 1 11 12
M  V30 12 2 12 13
M  V30 13 1 13 14
M  V30 14 2 14 15
M  V30 15 1 15 16
M  V30 16 1 16 17
M  V30 17 2 17 18
M  V30 18 1 18 19
M  V30 19 1 19 20
M  V30 20 1 15 21
M  V30 21 2 21 22
M  V30 22 1 22 5
M  V30 23 1 22 12
M  V30 24 2 20 16
M  V30 25 1 1 23
M  V30 26 1 1 24
M  V30 27 1 1 25
M  V30 28 1 2 26
M  V30 29 1 3 27
M  V30 30 1 3 28
M  V30 31 1 3 29
M  V30 32 1 4 30
M  V30 33 1 8 31
M  V30 34 1 8 32
M  V30 35 1 13 33
M  V30 36 1 14 34
M  V30 37 1 17 35
M  V30 38 1 19 36
M  V30 39 1 20 37
M  V30 40 1 21 38
M  V30 END BOND
M  V30 END CTAB
M  END
>  <Dataset>  (911) 
ChEMBL_Kinases

>  <Ligand_Instance>  (911) 
nan

>  <PDB_ID>  (911) 
nan

>  <Standardized_SMILES>  (911) 
CC(C)Nc1c(C(N)=O)nnc2ccc(-c3cn[nH]c3)cc12

>  <Name>  (911) 
nan

>  <Pocket>  (911) 
nan

>  <ATP_Site>  (911) 
nan

>  <Peripheral>  (911) 
nan

>  <Num_H_Atoms_ProtBoundConf>  (911) 
nan

>  <Num_Resolved_Atoms>  (911) 
nan

>  <Num_Not_Resolved_Atoms>  (911) 
nan

$$$$
CHEMBL2333114
     RDKit          3D

  0  0  0  0  0  0  0  0  0  0999 V3000
M  V30 BEGIN CTAB
M  V30 COUNTS 40 42 0 0 0
M  V30 BEGIN ATOM
M  V30 1 C -0.142339 -4.155014 -0.347856 0
M  V30 2 C 0.943609 -3.071733 -0.355118 0
M  V30 3 C 1.453647 -2.915658 1.052786 0
M  V30 4 N 0.326597 -1.845256 -0.776849 0
M  V30 5 C 0.595871 -0.486313 -0.998442 0
M  V30 6 C 1.057577 -0.144103 -2.251622 0
M  V30 7 C 1.266602 -1.088659 -3.334922 0
M  V30 8 N 1.746881 -0.735337 -4.620759 0
M  V30 9 O 1.115462 -2.311381 -3.459952 0
M  V30 10 N 1.352503 1.152230 -2.565574 0
M  V30 11 N 1.200138 2.112316 -1.669135 0
M  V30 12 C 0.755701 1.880544 -0.422310 0
M  V30 13 C 0.582154 2.869868 0.523054 0
M  V30 14 C 0.112123 2.562544 1.783194 0
M  V30 15 C -0.188777 1.236497 2.097371 0
M  V30 16 C -0.681245 1.010659 3.456344 0
M  V30 17 C -0.390417 -0.198296 4.059975 0
M  V30 18 C -0.878119 -0.362686 5.343826 0
M  V30 19 N -1.607957 0.548993 6.052245 0
M  V30 20 C -1.847839 1.709643 5.382975 0
M  V30 21 C -1.413988 1.987352 4.103140 0
M  V30 22 C -0.001458 0.280352 1.126534 0
M  V30 23 C 0.463091 0.569048 -0.122418 0
M  V30 24 H 0.051659 -4.936522 0.387732 0
M  V30 25 H -1.112412 -3.681508 -0.088402 0
M  V30 26 H -0.249045 -4.575977 -1.372035 0
M  V30 27 H 1.778772 -3.377278 -1.029340 0
M  V30 28 H 1.880375 -1.922911 1.221584 0
M  V30 29 H 0.542372 -3.005328 1.710222 0
M  V30 30 H 2.164520 -3.715853 1.320336 0
M  V30 31 H -0.683466 -1.797680 -1.045975 0
M  V30 32 H 2.697641 -0.603992 -5.075212 0
M  V30 33 H 1.327046 -0.486264 -5.549897 0
M  V30 34 H 0.836940 3.880232 0.207192 0
M  V30 35 H -0.010693 3.370201 2.499573 0
M  V30 36 H 0.174762 -0.994405 3.605916 0
M  V30 37 H -0.687188 -1.298743 5.888822 0
M  V30 38 H -2.420810 2.453124 5.910349 0
M  V30 39 H -1.652263 2.943407 3.644736 0
M  V30 40 H -0.254548 -0.704562 1.413741 0
M  V30 END ATOM
M  V30 BEGIN BOND
M  V30 1 1 1 2
M  V30 2 1 2 3
M  V30 3 1 2 4
M  V30 4 1 4 5
M  V30 5 2 5 6
M  V30 6 1 6 7
M  V30 7 1 7 8
M  V30 8 2 7 9
M  V30 9 1 6 10
M  V30 10 2 10 11
M  V30 11 1 11 12
M  V30 12 2 12 13
M  V30 13 1 13 14
M  V30 14 2 14 15
M  V30 15 1 15 16
M  V30 16 2 16 17
M  V30 17 1 17 18
M  V30 18 2 18 19
M  V30 19 1 19 20
M  V30 20 2 20 21
M  V30 21 1 15 22
M  V30 22 2 22 23
M  V30 23 1 23 5
M  V30 24 1 23 12
M  V30 25 1 21 16
M  V30 26 1 1 24
M  V30 27 1 1 25
M  V30 28 1 1 26
M  V30 29 1 2 27
M  V30 30 1 3 28
M  V30 31 1 3 29
M  V30 32 1 3 30
M  V30 33 1 4 31
M  V30 34 1 8 32
M  V30 35 1 8 33
M  V30 36 1 13 34
M  V30 37 1 14 35
M  V30 38 1 17 36
M  V30 39 1 18 37
M  V30 40 1 20 38
M  V30 41 1 21 39
M  V30 42 1 22 40
M  V30 END BOND
M  V30 END CTAB
M  END
>  <Dataset>  (912) 
ChEMBL_Kinases

>  <Ligand_Instance>  (912) 
nan

>  <PDB_ID>  (912) 
nan

>  <Standardized_SMILES>  (912) 
CC(C)Nc1c(C(N)=O)nnc2ccc(-c3ccncc3)cc12

>  <Name>  (912) 
nan

>  <Pocket>  (912) 
nan

>  <ATP_Site>  (912) 
nan

>  <Peripheral>  (912) 
nan

>  <Num_H_Atoms_ProtBoundConf>  (912) 
nan

>  <Num_Resolved_Atoms>  (912) 
nan

>  <Num_Not_Resolved_Atoms>  (912) 
nan

$$$$
CHEMBL2333113
     RDKit          3D

  0  0  0  0  0  0  0  0  0  0999 V3000
M  V30 BEGIN CTAB
M  V30 COUNTS 44 47 0 0 0
M  V30 BEGIN ATOM
M  V30 1 C -1.563264 -4.033411 0.032682 0
M  V30 2 C -0.773484 -2.833310 -0.460509 0 CFG=1
M  V30 3 N 0.181582 -2.459477 0.508836 0
M  V30 4 C 1.205640 -1.505907 0.723882 0
M  V30 5 C 2.538999 -1.640173 0.437641 0
M  V30 6 C 3.044825 -2.894159 -0.059368 0
M  V30 7 N 4.394915 -3.117548 -0.433013 0
M  V30 8 O 2.769918 -4.069340 -0.356160 0
M  V30 9 N 3.457783 -0.679161 0.628264 0
M  V30 10 N 3.088529 0.512215 1.134483 0
M  V30 11 C 1.799292 0.739267 1.449368 0
M  V30 12 C 1.500269 1.983023 1.966946 0
M  V30 13 C 0.191372 2.259684 2.307682 0
M  V30 14 C -0.180044 3.559770 2.859812 0
M  V30 15 C 0.458549 4.757113 2.527005 0
M  V30 16 C 0.006716 5.930872 3.125200 0
M  V30 17 N -1.012968 5.942486 4.001843 0
M  V30 18 C -1.619004 4.775910 4.312356 0
M  V30 19 C -1.239095 3.586358 3.772985 0
M  V30 20 C -0.795873 1.306923 2.132107 0
M  V30 21 C -0.410375 0.089067 1.608450 0
M  V30 22 C 0.871964 -0.264136 1.243677 0
M  V30 23 C -0.393634 -2.886825 -1.887560 0
M  V30 24 C 0.409108 -3.926402 -2.535112 0
M  V30 25 C -1.057348 -3.872587 -2.786321 0
M  V30 26 H -2.601132 -4.053591 -0.352258 0
M  V30 27 H -1.094060 -4.999125 -0.240733 0
M  V30 28 H -1.627277 -4.025742 1.139420 0
M  V30 29 H -1.571572 -1.993773 -0.410771 0
M  V30 30 H 0.310421 -2.943325 1.435324 0
M  V30 31 H 4.885851 -2.994423 -1.332497 0
M  V30 32 H 4.850377 -2.972012 -1.384292 0
M  V30 33 H 2.254800 2.749101 2.115381 0
M  V30 34 H 1.276353 4.705613 1.816132 0
M  V30 35 H 0.536837 6.837958 2.833169 0
M  V30 36 H -2.454757 4.787478 5.031044 0
M  V30 37 H -1.780890 2.685308 4.075945 0
M  V30 38 H -1.819067 1.518131 2.396526 0
M  V30 39 H -1.213479 -0.624203 1.492201 0
M  V30 40 H -0.301829 -1.866064 -2.351250 0
M  V30 41 H 0.801362 -4.835539 -2.031837 0
M  V30 42 H 1.079170 -3.633839 -3.384317 0
M  V30 43 H -1.641781 -4.707586 -2.402532 0
M  V30 44 H -1.365811 -3.565439 -3.822243 0
M  V30 END ATOM
M  V30 BEGIN BOND
M  V30 1 1 1 2
M  V30 2 1 2 3
M  V30 3 1 3 4
M  V30 4 2 4 5
M  V30 5 1 5 6
M  V30 6 1 6 7
M  V30 7 2 6 8
M  V30 8 1 5 9
M  V30 9 2 9 10
M  V30 10 1 10 11
M  V30 11 2 11 12
M  V30 12 1 12 13
M  V30 13 1 13 14
M  V30 14 2 14 15
M  V30 15 1 15 16
M  V30 16 2 16 17
M  V30 17 1 17 18
M  V30 18 2 18 19
M  V30 19 2 13 20
M  V30 20 1 20 21
M  V30 21 2 21 22
M  V30 22 1 2 23
M  V30 23 1 23 24
M  V30 24 1 24 25
M  V30 25 1 22 4
M  V30 26 1 25 23
M  V30 27 1 22 11
M  V30 28 1 19 14
M  V30 29 1 1 26
M  V30 30 1 1 27
M  V30 31 1 1 28
M  V30 32 1 2 29 CFG=3
M  V30 33 1 3 30
M  V30 34 1 7 31
M  V30 35 1 7 32
M  V30 36 1 12 33
M  V30 37 1 15 34
M  V30 38 1 16 35
M  V30 39 1 18 36
M  V30 40 1 19 37
M  V30 41 1 20 38
M  V30 42 1 21 39
M  V30 43 1 23 40
M  V30 44 1 24 41
M  V30 45 1 24 42
M  V30 46 1 25 43
M  V30 47 1 25 44
M  V30 END BOND
M  V30 END CTAB
M  END
>  <Dataset>  (913) 
ChEMBL_Kinases

>  <Ligand_Instance>  (913) 
nan

>  <PDB_ID>  (913) 
nan

>  <Standardized_SMILES>  (913) 
C[C@@H](Nc1c(C(N)=O)nnc2cc(-c3ccncc3)ccc12)C1CC1

>  <Name>  (913) 
nan

>  <Pocket>  (913) 
nan

>  <ATP_Site>  (913) 
nan

>  <Peripheral>  (913) 
nan

>  <Num_H_Atoms_ProtBoundConf>  (913) 
nan

>  <Num_Resolved_Atoms>  (913) 
nan

>  <Num_Not_Resolved_Atoms>  (913) 
nan

$$$$
CHEMBL2333112
     RDKit          3D

  0  0  0  0  0  0  0  0  0  0999 V3000
M  V30 BEGIN CTAB
M  V30 COUNTS 40 42 0 0 0
M  V30 BEGIN ATOM
M  V30 1 C 1.754084 -4.951678 0.200933 0
M  V30 2 C 2.124997 -3.493702 -0.063064 0
M  V30 3 C 2.838057 -2.965749 1.157456 0
M  V30 4 N 0.990380 -2.705966 -0.414618 0
M  V30 5 C 0.544667 -1.399566 -0.749161 0
M  V30 6 C 0.573733 -1.039271 -2.076818 0
M  V30 7 C 1.011293 -1.880869 -3.176279 0
M  V30 8 N 1.031700 -1.467994 -4.521072 0
M  V30 9 O 1.434971 -3.044728 -3.242991 0
M  V30 10 N 0.160491 0.194776 -2.414477 0
M  V30 11 N -0.269590 1.065258 -1.517836 0
M  V30 12 C -0.334849 0.804300 -0.199831 0
M  V30 13 C -0.788055 1.706128 0.741852 0
M  V30 14 C -0.833349 1.360300 2.097223 0
M  V30 15 C -1.328531 2.388893 3.004181 0
M  V30 16 C -2.008345 2.092578 4.160309 0
M  V30 17 C -2.464367 3.114955 4.999777 0
M  V30 18 N -2.249644 4.409827 4.697450 0
M  V30 19 C -1.585959 4.704207 3.568983 0
M  V30 20 C -1.115289 3.725338 2.706585 0
M  V30 21 C -0.409178 0.092729 2.439462 0
M  V30 22 C 0.040663 -0.794876 1.484252 0
M  V30 23 C 0.088078 -0.460029 0.149863 0
M  V30 24 H 2.631677 -5.378463 0.726308 0
M  V30 25 H 0.881178 -5.033897 0.871981 0
M  V30 26 H 1.613752 -5.519750 -0.731129 0
M  V30 27 H 2.829784 -3.524511 -0.941097 0
M  V30 28 H 2.771831 -1.864325 1.162337 0
M  V30 29 H 2.467985 -3.451584 2.081624 0
M  V30 30 H 3.938590 -3.192169 1.106850 0
M  V30 31 H 0.066471 -3.195293 -0.477838 0
M  V30 32 H 1.853114 -0.952965 -4.943930 0
M  V30 33 H 0.345807 -1.558225 -5.301462 0
M  V30 34 H -1.081220 2.650729 0.305347 0
M  V30 35 H -2.169596 1.049415 4.383404 0
M  V30 36 H -2.992492 2.748675 5.890827 0
M  V30 37 H -1.445596 5.776091 3.383119 0
M  V30 38 H -0.594061 4.027644 1.824032 0
M  V30 39 H -0.466741 -0.117729 3.497588 0
M  V30 40 H 0.347036 -1.766952 1.835689 0
M  V30 END ATOM
M  V30 BEGIN BOND
M  V30 1 1 1 2
M  V30 2 1 2 3
M  V30 3 1 2 4
M  V30 4 1 4 5
M  V30 5 2 5 6
M  V30 6 1 6 7
M  V30 7 1 7 8
M  V30 8 2 7 9
M  V30 9 1 6 10
M  V30 10 2 10 11
M  V30 11 1 11 12
M  V30 12 2 12 13
M  V30 13 1 13 14
M  V30 14 1 14 15
M  V30 15 2 15 16
M  V30 16 1 16 17
M  V30 17 2 17 18
M  V30 18 1 18 19
M  V30 19 2 19 20
M  V30 20 2 14 21
M  V30 21 1 21 22
M  V30 22 2 22 23
M  V30 23 1 23 5
M  V30 24 1 23 12
M  V30 25 1 20 15
M  V30 26 1 1 24
M  V30 27 1 1 25
M  V30 28 1 1 26
M  V30 29 1 2 27
M  V30 30 1 3 28
M  V30 31 1 3 29
M  V30 32 1 3 30
M  V30 33 1 4 31
M  V30 34 1 8 32
M  V30 35 1 8 33
M  V30 36 1 13 34
M  V30 37 1 16 35
M  V30 38 1 17 36
M  V30 39 1 19 37
M  V30 40 1 20 38
M  V30 41 1 21 39
M  V30 42 1 22 40
M  V30 END BOND
M  V30 END CTAB
M  END
>  <Dataset>  (914) 
ChEMBL_Kinases

>  <Ligand_Instance>  (914) 
nan

>  <PDB_ID>  (914) 
nan

>  <Standardized_SMILES>  (914) 
CC(C)Nc1c(C(N)=O)nnc2cc(-c3ccncc3)ccc12

>  <Name>  (914) 
nan

>  <Pocket>  (914) 
nan

>  <ATP_Site>  (914) 
nan

>  <Peripheral>  (914) 
nan

>  <Num_H_Atoms_ProtBoundConf>  (914) 
nan

>  <Num_Resolved_Atoms>  (914) 
nan

>  <Num_Not_Resolved_Atoms>  (914) 
nan

$$$$
CHEMBL2332840
     RDKit          3D

  0  0  0  0  0  0  0  0  0  0999 V3000
M  V30 BEGIN CTAB
M  V30 COUNTS 43 46 0 0 0
M  V30 BEGIN ATOM
M  V30 1 O -0.243781 -2.545126 0.402292 0
M  V30 2 C -1.234916 -2.252550 -0.342077 0
M  V30 3 N -1.220709 -0.905586 -0.851964 0
M  V30 4 C -0.092315 -0.099179 -0.443522 0
M  V30 5 C 1.120936 0.026083 -1.090122 0
M  V30 6 C 2.071474 0.851006 -0.532928 0
M  V30 7 C 1.814367 1.531123 0.638424 0
M  V30 8 O 2.799452 2.354522 1.169757 0
M  V30 9 C 2.818992 3.673165 0.776529 0
M  V30 10 N 1.977155 4.292347 -0.087678 0
M  V30 11 C 2.156701 5.614551 -0.354241 0
M  V30 12 N 3.138760 6.331512 0.207682 0
M  V30 13 C 3.981382 5.752549 1.060047 0
M  V30 14 N 5.024103 6.276322 1.730306 0
M  V30 15 N 5.543278 5.289297 2.450905 0
M  V30 16 C 4.856533 4.156957 2.253585 0
M  V30 17 C 3.833692 4.416907 1.356214 0
M  V30 18 C 0.588576 1.404099 1.291022 0
M  V30 19 C -0.353242 0.579771 0.728736 0
M  V30 20 N -2.199097 -3.269162 -0.564876 0
M  V30 21 C -1.965324 -4.539232 0.073431 0
M  V30 22 C -1.297224 -5.639015 -0.355174 0
M  V30 23 C -1.215890 -6.740904 0.454556 0
M  V30 24 C -1.799264 -6.747632 1.689862 0
M  V30 25 Cl -1.677352 -8.169455 2.698946 0
M  V30 26 C -2.490930 -5.644226 2.164902 0
M  V30 27 C -3.106194 -5.705975 3.516381 0
M  V30 28 F -4.024307 -6.738862 3.542782 0
M  V30 29 F -3.733201 -4.489991 3.753312 0
M  V30 30 F -2.129392 -5.866143 4.479563 0
M  V30 31 C -2.569528 -4.525298 1.334234 0
M  V30 32 H -2.060935 -0.697190 -1.467718 0
M  V30 33 H 1.206285 -0.552121 -1.994807 0
M  V30 34 H 3.013631 0.927918 -1.064855 0
M  V30 35 H 1.494582 6.112378 -1.037315 0
M  V30 36 H 5.428364 7.238265 1.754882 0
M  V30 37 H 5.046642 3.182227 2.707595 0
M  V30 38 H 0.429394 1.964148 2.219650 0
M  V30 39 H -1.274895 0.536917 1.296475 0
M  V30 40 H -2.991551 -2.962760 -1.187949 0
M  V30 41 H -0.884298 -5.503344 -1.346109 0
M  V30 42 H -0.668685 -7.584199 0.052338 0
M  V30 43 H -3.136300 -3.713492 1.805719 0
M  V30 END ATOM
M  V30 BEGIN BOND
M  V30 1 2 1 2
M  V30 2 1 2 3
M  V30 3 1 3 4
M  V30 4 2 4 5
M  V30 5 1 5 6
M  V30 6 2 6 7
M  V30 7 1 7 8
M  V30 8 1 8 9
M  V30 9 2 9 10
M  V30 10 1 10 11
M  V30 11 2 11 12
M  V30 12 1 12 13
M  V30 13 1 13 14
M  V30 14 1 14 15
M  V30 15 2 15 16
M  V30 16 1 16 17
M  V30 17 1 7 18
M  V30 18 2 18 19
M  V30 19 1 2 20
M  V30 20 1 20 21
M  V30 21 2 21 22
M  V30 22 1 22 23
M  V30 23 2 23 24
M  V30 24 1 24 25
M  V30 25 1 24 26
M  V30 26 1 26 27
M  V30 27 1 27 28
M  V30 28 1 27 29
M  V30 29 1 27 30
M  V30 30 2 26 31
M  V30 31 1 19 4
M  V30 32 1 31 21
M  V30 33 1 17 9
M  V30 34 2 17 13
M  V30 35 1 3 32
M  V30 36 1 5 33
M  V30 37 1 6 34
M  V30 38 1 11 35
M  V30 39 1 14 36
M  V30 40 1 16 37
M  V30 41 1 18 38
M  V30 42 1 19 39
M  V30 43 1 20 40
M  V30 44 1 22 41
M  V30 45 1 23 42
M  V30 46 1 31 43
M  V30 END BOND
M  V30 END CTAB
M  END
>  <Dataset>  (915) 
ChEMBL_Kinases

>  <Ligand_Instance>  (915) 
nan

>  <PDB_ID>  (915) 
nan

>  <Standardized_SMILES>  (915) 
O=C(Nc1ccc(Oc2ncnc3[nH]ncc23)cc1)Nc1ccc(Cl)c(C(F)(F)F)c1

>  <Name>  (915) 
nan

>  <Pocket>  (915) 
nan

>  <ATP_Site>  (915) 
nan

>  <Peripheral>  (915) 
nan

>  <Num_H_Atoms_ProtBoundConf>  (915) 
nan

>  <Num_Resolved_Atoms>  (915) 
nan

>  <Num_Not_Resolved_Atoms>  (915) 
nan

$$$$
CHEMBL2332099
     RDKit          3D

  0  0  0  0  0  0  0  0  0  0999 V3000
M  V30 BEGIN CTAB
M  V30 COUNTS 49 52 0 0 0
M  V30 BEGIN ATOM
M  V30 1 C 4.133681 -4.647946 1.637917 0
M  V30 2 O 3.525477 -3.476149 1.181821 0
M  V30 3 C 2.980730 -3.335766 -0.086922 0
M  V30 4 C 3.016286 -4.381619 -0.985065 0
M  V30 5 C 2.470855 -4.226819 -2.241950 0
M  V30 6 C 1.905855 -3.005398 -2.539786 0
M  V30 7 C 1.827161 -1.894483 -1.690452 0
M  V30 8 C 1.196559 -0.634895 -2.114180 0
M  V30 9 N -0.195256 -0.499465 -1.798207 0
M  V30 10 C -0.762008 0.107008 -0.618749 0
M  V30 11 O -1.874480 0.351117 -0.075045 0
M  V30 12 N 0.170311 0.650029 0.319156 0
M  V30 13 C -0.473665 1.232210 1.462433 0
M  V30 14 C -0.647150 0.286779 2.474670 0
M  V30 15 C -1.252313 0.629997 3.679583 0
M  V30 16 C -1.675591 1.940074 3.838678 0
M  V30 17 C -2.314409 2.324460 5.095927 0
M  V30 18 C -1.960797 1.724521 6.298137 0
M  V30 19 N -2.705584 2.271935 7.276873 0
M  V30 20 N -3.518905 3.192968 6.760911 0
M  V30 21 C -3.301105 3.247368 5.423321 0
M  V30 22 C -1.500396 2.872468 2.830662 0
M  V30 23 C -0.900067 2.534193 1.634058 0
M  V30 24 C -1.427600 -0.852052 -2.467423 0
M  V30 25 C -1.625368 -2.151474 -3.156867 0
M  V30 26 C -1.526445 -0.852574 -3.934631 0
M  V30 27 C 2.397638 -2.146491 -0.461535 0
M  V30 28 H 4.792052 -4.419300 2.513406 0
M  V30 29 H 4.723155 -5.145738 0.840988 0
M  V30 30 H 3.299228 -5.341608 1.930904 0
M  V30 31 H 3.458342 -5.332842 -0.747740 0
M  V30 32 H 2.482564 -5.026036 -2.967793 0
M  V30 33 H 1.491309 -2.924125 -3.541186 0
M  V30 34 H 1.783125 0.181728 -1.604127 0
M  V30 35 H 1.389463 -0.451239 -3.195816 0
M  V30 36 H 1.232454 0.680932 0.277519 0
M  V30 37 H -0.350107 -0.752370 2.439322 0
M  V30 38 H -1.406950 -0.063117 4.486362 0
M  V30 39 H -1.224929 0.943950 6.505769 0
M  V30 40 H -4.241348 3.834560 7.168344 0
M  V30 41 H -3.753441 3.862002 4.635210 0
M  V30 42 H -1.818191 3.892077 2.927270 0
M  V30 43 H -0.712072 3.164985 0.788436 0
M  V30 44 H -2.344814 -0.541220 -1.875181 0
M  V30 45 H -2.663449 -2.576049 -3.217847 0
M  V30 46 H -0.871439 -2.928784 -3.248541 0
M  V30 47 H -2.428135 -0.388792 -4.367894 0
M  V30 48 H -0.606991 -0.669656 -4.522177 0
M  V30 49 H 2.399661 -1.366805 0.277039 0
M  V30 END ATOM
M  V30 BEGIN BOND
M  V30 1 1 1 2
M  V30 2 1 2 3
M  V30 3 2 3 4
M  V30 4 1 4 5
M  V30 5 2 5 6
M  V30 6 1 6 7
M  V30 7 1 7 8
M  V30 8 1 8 9
M  V30 9 1 9 10
M  V30 10 2 10 11
M  V30 11 1 10 12
M  V30 12 1 12 13
M  V30 13 2 13 14
M  V30 14 1 14 15
M  V30 15 2 15 16
M  V30 16 1 16 17
M  V30 17 1 17 18
M  V30 18 2 18 19
M  V30 19 1 19 20
M  V30 20 1 20 21
M  V30 21 1 16 22
M  V30 22 2 22 23
M  V30 23 1 9 24
M  V30 24 1 24 25
M  V30 25 1 25 26
M  V30 26 2 7 27
M  V30 27 1 27 3
M  V30 28 1 23 13
M  V30 29 1 26 24
M  V30 30 2 21 17
M  V30 31 1 1 28
M  V30 32 1 1 29
M  V30 33 1 1 30
M  V30 34 1 4 31
M  V30 35 1 5 32
M  V30 36 1 6 33
M  V30 37 1 8 34
M  V30 38 1 8 35
M  V30 39 1 12 36
M  V30 40 1 14 37
M  V30 41 1 15 38
M  V30 42 1 18 39
M  V30 43 1 20 40
M  V30 44 1 21 41
M  V30 45 1 22 42
M  V30 46 1 23 43
M  V30 47 1 24 44
M  V30 48 1 25 45
M  V30 49 1 25 46
M  V30 50 1 26 47
M  V30 51 1 26 48
M  V30 52 1 27 49
M  V30 END BOND
M  V30 END CTAB
M  END
>  <Dataset>  (916) 
ChEMBL_Kinases

>  <Ligand_Instance>  (916) 
nan

>  <PDB_ID>  (916) 
nan

>  <Standardized_SMILES>  (916) 
COc1cccc(CN(C(=O)Nc2ccc(-c3cn[nH]c3)cc2)C2CC2)c1

>  <Name>  (916) 
nan

>  <Pocket>  (916) 
nan

>  <ATP_Site>  (916) 
nan

>  <Peripheral>  (916) 
nan

>  <Num_H_Atoms_ProtBoundConf>  (916) 
nan

>  <Num_Resolved_Atoms>  (916) 
nan

>  <Num_Not_Resolved_Atoms>  (916) 
nan

$$$$
CHEMBL2332098
     RDKit          3D

  0  0  0  0  0  0  0  0  0  0999 V3000
M  V30 BEGIN CTAB
M  V30 COUNTS 48 50 0 0 0
M  V30 BEGIN ATOM
M  V30 1 C 2.766562 -3.038728 0.158376 0
M  V30 2 C 1.867816 -2.810036 -1.025057 0
M  V30 3 N 1.136005 -1.556636 -0.948129 0
M  V30 4 C 1.697212 -0.342249 -1.506705 0
M  V30 5 C 2.517435 0.441272 -0.587381 0
M  V30 6 C 2.070977 1.439211 0.246080 0
M  V30 7 C 2.855995 2.171588 1.108357 0
M  V30 8 C 4.212117 1.897837 1.157585 0
M  V30 9 C 4.758045 0.898512 0.345154 0
M  V30 10 O 6.105616 0.567154 0.338492 0
M  V30 11 C 6.989676 1.270835 1.196207 0
M  V30 12 C 3.894524 0.214661 -0.489413 0
M  V30 13 C -0.157059 -1.393945 -0.342104 0
M  V30 14 O -0.823608 -0.305135 -0.259508 0
M  V30 15 N -0.882618 -2.480377 0.267186 0
M  V30 16 C -2.125719 -1.928529 0.759500 0
M  V30 17 C -2.182283 -1.426769 2.060263 0
M  V30 18 C -3.400356 -0.903755 2.491847 0
M  V30 19 C -4.501832 -0.893863 1.640188 0
M  V30 20 C -5.792666 -0.346061 2.080610 0
M  V30 21 C -6.736733 0.274349 1.282566 0
M  V30 22 N -7.782959 0.639625 2.039269 0
M  V30 23 N -7.553993 0.277288 3.311943 0
M  V30 24 C -6.341373 -0.326565 3.353952 0
M  V30 25 C -4.405547 -1.400290 0.358735 0
M  V30 26 C -3.217158 -1.930802 -0.116721 0
M  V30 27 H 3.777426 -2.665345 -0.110124 0
M  V30 28 H 2.450883 -2.426937 1.046781 0
M  V30 29 H 2.883087 -4.113756 0.406966 0
M  V30 30 H 1.107277 -3.620332 -1.033140 0
M  V30 31 H 2.412021 -2.916858 -1.983242 0
M  V30 32 H 2.312569 -0.621787 -2.408093 0
M  V30 33 H 0.892977 0.311348 -1.938273 0
M  V30 34 H 1.015979 1.676286 0.229898 0
M  V30 35 H 2.409348 2.940426 1.727303 0
M  V30 36 H 4.858164 2.439238 1.809683 0
M  V30 37 H 6.823120 0.914995 2.233262 0
M  V30 38 H 6.805434 2.371310 1.203712 0
M  V30 39 H 8.052260 1.054689 0.947736 0
M  V30 40 H 4.323589 -0.561759 -1.119897 0
M  V30 41 H -0.449484 -3.429310 0.268500 0
M  V30 42 H -1.303557 -1.460744 2.669552 0
M  V30 43 H -3.489234 -0.507787 3.483276 0
M  V30 44 H -6.691201 0.463518 0.207075 0
M  V30 45 H -8.207025 0.441754 4.107594 0
M  V30 46 H -5.850914 -0.738820 4.227172 0
M  V30 47 H -5.269405 -1.385676 -0.291140 0
M  V30 48 H -3.087366 -2.340256 -1.111166 0
M  V30 END ATOM
M  V30 BEGIN BOND
M  V30 1 1 1 2
M  V30 2 1 2 3
M  V30 3 1 3 4
M  V30 4 1 4 5
M  V30 5 2 5 6
M  V30 6 1 6 7
M  V30 7 2 7 8
M  V30 8 1 8 9
M  V30 9 1 9 10
M  V30 10 1 10 11
M  V30 11 2 9 12
M  V30 12 1 3 13
M  V30 13 2 13 14
M  V30 14 1 13 15
M  V30 15 1 15 16
M  V30 16 2 16 17
M  V30 17 1 17 18
M  V30 18 2 18 19
M  V30 19 1 19 20
M  V30 20 1 20 21
M  V30 21 2 21 22
M  V30 22 1 22 23
M  V30 23 1 23 24
M  V30 24 1 19 25
M  V30 25 2 25 26
M  V30 26 1 12 5
M  V30 27 1 26 16
M  V30 28 2 24 20
M  V30 29 1 1 27
M  V30 30 1 1 28
M  V30 31 1 1 29
M  V30 32 1 2 30
M  V30 33 1 2 31
M  V30 34 1 4 32
M  V30 35 1 4 33
M  V30 36 1 6 34
M  V30 37 1 7 35
M  V30 38 1 8 36
M  V30 39 1 11 37
M  V30 40 1 11 38
M  V30 41 1 11 39
M  V30 42 1 12 40
M  V30 43 1 15 41
M  V30 44 1 17 42
M  V30 45 1 18 43
M  V30 46 1 21 44
M  V30 47 1 23 45
M  V30 48 1 24 46
M  V30 49 1 25 47
M  V30 50 1 26 48
M  V30 END BOND
M  V30 END CTAB
M  END
>  <Dataset>  (917) 
ChEMBL_Kinases

>  <Ligand_Instance>  (917) 
nan

>  <PDB_ID>  (917) 
nan

>  <Standardized_SMILES>  (917) 
CCN(Cc1cccc(OC)c1)C(=O)Nc1ccc(-c2cn[nH]c2)cc1

>  <Name>  (917) 
nan

>  <Pocket>  (917) 
nan

>  <ATP_Site>  (917) 
nan

>  <Peripheral>  (917) 
nan

>  <Num_H_Atoms_ProtBoundConf>  (917) 
nan

>  <Num_Resolved_Atoms>  (917) 
nan

>  <Num_Not_Resolved_Atoms>  (917) 
nan

$$$$
CHEMBL2332096
     RDKit          3D

  0  0  0  0  0  0  0  0  0  0999 V3000
M  V30 BEGIN CTAB
M  V30 COUNTS 59 61 0 0 0
M  V30 BEGIN ATOM
M  V30 1 C 2.049870 -1.596387 7.203929 0
M  V30 2 O 2.590558 -1.004249 6.040408 0
M  V30 3 C 2.428489 -1.590868 4.781437 0
M  V30 4 C 1.739500 -2.771413 4.611309 0
M  V30 5 C 1.632301 -3.271718 3.338726 0
M  V30 6 C 2.181319 -2.639008 2.256635 0
M  V30 7 C 2.878662 -1.456890 2.372612 0
M  V30 8 C 3.517986 -0.664340 1.290122 0
M  V30 9 N 2.541904 0.298003 0.820417 0
M  V30 10 C 1.499436 -0.046328 -0.043100 0
M  V30 11 O 1.264197 -1.180057 -0.520284 0
M  V30 12 N 0.418926 0.694039 -0.644490 0
M  V30 13 C 0.496269 2.055357 -0.263299 0
M  V30 14 C -0.181910 2.519491 0.953016 0
M  V30 15 C -1.634589 2.576814 1.095128 0
M  V30 16 N -2.454851 1.430605 0.883235 0
M  V30 17 C -3.754656 1.742308 1.537145 0
M  V30 18 C -2.854044 1.335294 -0.538301 0
M  V30 19 C -0.101870 -0.444655 -1.315036 0
M  V30 20 C 0.388114 -0.499076 -2.628274 0
M  V30 21 C 0.013227 -1.525137 -3.509857 0
M  V30 22 C -0.850544 -2.426032 -2.955486 0
M  V30 23 C -1.300288 -3.519815 -3.807772 0
M  V30 24 C -1.646942 -4.816717 -3.467843 0
M  V30 25 N -2.005353 -5.458329 -4.589765 0
M  V30 26 N -1.923390 -4.686334 -5.648495 0
M  V30 27 C -1.489893 -3.488572 -5.179327 0
M  V30 28 C -1.349404 -2.409212 -1.683451 0
M  V30 29 C -0.969882 -1.394662 -0.833577 0
M  V30 30 C 2.971470 -0.974031 3.675687 0
M  V30 31 H 0.959703 -1.383489 7.303879 0
M  V30 32 H 2.210745 -2.691504 7.176299 0
M  V30 33 H 2.607856 -1.174304 8.071404 0
M  V30 34 H 1.306225 -3.274634 5.446483 0
M  V30 35 H 1.095695 -4.202307 3.168411 0
M  V30 36 H 2.093992 -3.043621 1.271977 0
M  V30 37 H 3.867879 -1.325718 0.462718 0
M  V30 38 H 4.349576 -0.088117 1.733131 0
M  V30 39 H 2.518896 1.305963 1.074063 0
M  V30 40 H 1.579657 2.390230 -0.304020 0
M  V30 41 H 0.069754 2.660650 -1.137596 0
M  V30 42 H 0.228128 3.580918 1.142443 0
M  V30 43 H 0.240720 1.997726 1.884049 0
M  V30 44 H -1.829297 2.853995 2.194869 0
M  V30 45 H -2.077186 3.496713 0.583342 0
M  V30 46 H -4.290989 0.812461 1.793516 0
M  V30 47 H -4.347519 2.330657 0.821076 0
M  V30 48 H -3.594941 2.350590 2.451152 0
M  V30 49 H -3.735205 2.026234 -0.708035 0
M  V30 50 H -2.083234 1.615380 -1.235988 0
M  V30 51 H -3.233655 0.341931 -0.723023 0
M  V30 52 H 1.082659 0.223219 -3.074276 0
M  V30 53 H 0.368357 -1.593928 -4.514468 0
M  V30 54 H -1.629490 -5.233151 -2.475547 0
M  V30 55 H -2.107656 -4.804763 -6.663676 0
M  V30 56 H -1.294057 -2.578292 -5.736900 0
M  V30 57 H -2.034226 -3.129688 -1.252448 0
M  V30 58 H -1.254199 -1.214022 0.191120 0
M  V30 59 H 3.506066 -0.052144 3.834147 0
M  V30 END ATOM
M  V30 BEGIN BOND
M  V30 1 1 1 2
M  V30 2 1 2 3
M  V30 3 2 3 4
M  V30 4 1 4 5
M  V30 5 2 5 6
M  V30 6 1 6 7
M  V30 7 1 7 8
M  V30 8 1 8 9
M  V30 9 1 9 10
M  V30 10 2 10 11
M  V30 11 1 10 12
M  V30 12 1 12 13
M  V30 13 1 13 14
M  V30 14 1 14 15
M  V30 15 1 15 16
M  V30 16 1 16 17
M  V30 17 1 16 18
M  V30 18 1 12 19
M  V30 19 2 19 20
M  V30 20 1 20 21
M  V30 21 2 21 22
M  V30 22 1 22 23
M  V30 23 1 23 24
M  V30 24 2 24 25
M  V30 25 1 25 26
M  V30 26 1 26 27
M  V30 27 1 22 28
M  V30 28 2 28 29
M  V30 29 2 7 30
M  V30 30 1 30 3
M  V30 31 1 29 19
M  V30 32 2 27 23
M  V30 33 1 1 31
M  V30 34 1 1 32
M  V30 35 1 1 33
M  V30 36 1 4 34
M  V30 37 1 5 35
M  V30 38 1 6 36
M  V30 39 1 8 37
M  V30 40 1 8 38
M  V30 41 1 9 39
M  V30 42 1 13 40
M  V30 43 1 13 41
M  V30 44 1 14 42
M  V30 45 1 14 43
M  V30 46 1 15 44
M  V30 47 1 15 45
M  V30 48 1 17 46
M  V30 49 1 17 47
M  V30 50 1 17 48
M  V30 51 1 18 49
M  V30 52 1 18 50
M  V30 53 1 18 51
M  V30 54 1 20 52
M  V30 55 1 21 53
M  V30 56 1 24 54
M  V30 57 1 26 55
M  V30 58 1 27 56
M  V30 59 1 28 57
M  V30 60 1 29 58
M  V30 61 1 30 59
M  V30 END BOND
M  V30 END CTAB
M  END
>  <Dataset>  (918) 
ChEMBL_Kinases

>  <Ligand_Instance>  (918) 
nan

>  <PDB_ID>  (918) 
nan

>  <Standardized_SMILES>  (918) 
COc1cccc(CNC(=O)N(CCCN(C)C)c2ccc(-c3cn[nH]c3)cc2)c1

>  <Name>  (918) 
nan

>  <Pocket>  (918) 
nan

>  <ATP_Site>  (918) 
nan

>  <Peripheral>  (918) 
nan

>  <Num_H_Atoms_ProtBoundConf>  (918) 
nan

>  <Num_Resolved_Atoms>  (918) 
nan

>  <Num_Not_Resolved_Atoms>  (918) 
nan

$$$$
CHEMBL2332094
     RDKit          3D

  0  0  0  0  0  0  0  0  0  0999 V3000
M  V30 BEGIN CTAB
M  V30 COUNTS 56 58 0 0 0
M  V30 BEGIN ATOM
M  V30 1 C 1.356423 -4.941189 4.423800 0
M  V30 2 O 1.694574 -4.283130 3.240931 0
M  V30 3 C 2.501184 -3.158817 3.172237 0
M  V30 4 C 3.084602 -2.525718 4.250788 0
M  V30 5 C 3.866966 -1.411096 4.031132 0
M  V30 6 C 4.078964 -0.914821 2.751974 0
M  V30 7 C 3.491324 -1.551078 1.656238 0
M  V30 8 C 3.787791 -0.948808 0.331493 0
M  V30 9 N 2.829588 0.072112 0.001627 0
M  V30 10 C 1.522209 -0.138522 -0.449408 0
M  V30 11 O 1.053132 -1.314262 -0.609792 0
M  V30 12 N 0.516952 0.801078 -0.797183 0
M  V30 13 C 0.605820 2.260546 -0.755136 0
M  V30 14 C 0.167699 2.820398 0.587186 0
M  V30 15 N -1.190849 2.487779 0.890292 0
M  V30 16 C -2.180501 3.119653 0.070207 0
M  V30 17 C -1.536225 2.689827 2.279850 0
M  V30 18 C -0.563638 -0.034968 -1.185653 0
M  V30 19 C -0.653706 -0.382781 -2.518433 0
M  V30 20 C -1.684379 -1.195980 -2.949261 0
M  V30 21 C -2.662944 -1.698703 -2.096881 0
M  V30 22 C -3.755669 -2.555804 -2.537621 0
M  V30 23 C -4.998636 -2.540436 -1.917997 0
M  V30 24 N -5.827852 -3.419213 -2.511830 0
M  V30 25 N -5.141306 -3.992845 -3.494560 0
M  V30 26 C -3.887128 -3.494280 -3.537420 0
M  V30 27 C -2.552221 -1.338446 -0.772560 0
M  V30 28 C -1.536799 -0.537830 -0.351086 0
M  V30 29 C 2.711259 -2.664460 1.890377 0
M  V30 30 H 2.206221 -4.884016 5.128072 0
M  V30 31 H 0.457357 -4.518159 4.917417 0
M  V30 32 H 1.205371 -6.029752 4.165621 0
M  V30 33 H 2.898972 -2.939767 5.232420 0
M  V30 34 H 4.280629 -0.985472 4.938160 0
M  V30 35 H 4.711823 -0.041166 2.748431 0
M  V30 36 H 3.813956 -1.764526 -0.428662 0
M  V30 37 H 4.824046 -0.559071 0.357339 0
M  V30 38 H 3.082653 1.099526 0.088938 0
M  V30 39 H -0.126954 2.655758 -1.498120 0
M  V30 40 H 1.623096 2.602991 -1.017002 0
M  V30 41 H 0.801338 2.457729 1.425087 0
M  V30 42 H 0.246158 3.935874 0.483276 0
M  V30 43 H -1.687529 3.709982 -0.721440 0
M  V30 44 H -2.924003 3.736944 0.643538 0
M  V30 45 H -2.824498 2.357879 -0.452081 0
M  V30 46 H -0.884322 2.102938 2.961865 0
M  V30 47 H -1.502666 3.740409 2.604221 0
M  V30 48 H -2.582675 2.320648 2.468671 0
M  V30 49 H 0.040401 -0.055014 -3.260341 0
M  V30 50 H -1.751690 -1.469117 -4.008568 0
M  V30 51 H -5.306651 -1.918083 -1.064123 0
M  V30 52 H -5.512391 -4.730767 -4.150898 0
M  V30 53 H -3.059397 -3.725476 -4.200343 0
M  V30 54 H -3.298231 -1.706483 -0.057161 0
M  V30 55 H -1.480556 -0.277857 0.694221 0
M  V30 56 H 2.276412 -3.130022 1.030996 0
M  V30 END ATOM
M  V30 BEGIN BOND
M  V30 1 1 1 2
M  V30 2 1 2 3
M  V30 3 2 3 4
M  V30 4 1 4 5
M  V30 5 2 5 6
M  V30 6 1 6 7
M  V30 7 1 7 8
M  V30 8 1 8 9
M  V30 9 1 9 10
M  V30 10 2 10 11
M  V30 11 1 10 12
M  V30 12 1 12 13
M  V30 13 1 13 14
M  V30 14 1 14 15
M  V30 15 1 15 16
M  V30 16 1 15 17
M  V30 17 1 12 18
M  V30 18 2 18 19
M  V30 19 1 19 20
M  V30 20 2 20 21
M  V30 21 1 21 22
M  V30 22 1 22 23
M  V30 23 2 23 24
M  V30 24 1 24 25
M  V30 25 1 25 26
M  V30 26 1 21 27
M  V30 27 2 27 28
M  V30 28 2 7 29
M  V30 29 1 29 3
M  V30 30 1 28 18
M  V30 31 2 26 22
M  V30 32 1 1 30
M  V30 33 1 1 31
M  V30 34 1 1 32
M  V30 35 1 4 33
M  V30 36 1 5 34
M  V30 37 1 6 35
M  V30 38 1 8 36
M  V30 39 1 8 37
M  V30 40 1 9 38
M  V30 41 1 13 39
M  V30 42 1 13 40
M  V30 43 1 14 41
M  V30 44 1 14 42
M  V30 45 1 16 43
M  V30 46 1 16 44
M  V30 47 1 16 45
M  V30 48 1 17 46
M  V30 49 1 17 47
M  V30 50 1 17 48
M  V30 51 1 19 49
M  V30 52 1 20 50
M  V30 53 1 23 51
M  V30 54 1 25 52
M  V30 55 1 26 53
M  V30 56 1 27 54
M  V30 57 1 28 55
M  V30 58 1 29 56
M  V30 END BOND
M  V30 END CTAB
M  END
>  <Dataset>  (919) 
ChEMBL_Kinases

>  <Ligand_Instance>  (919) 
nan

>  <PDB_ID>  (919) 
nan

>  <Standardized_SMILES>  (919) 
COc1cccc(CNC(=O)N(CCN(C)C)c2ccc(-c3cn[nH]c3)cc2)c1

>  <Name>  (919) 
nan

>  <Pocket>  (919) 
nan

>  <ATP_Site>  (919) 
nan

>  <Peripheral>  (919) 
nan

>  <Num_H_Atoms_ProtBoundConf>  (919) 
nan

>  <Num_Resolved_Atoms>  (919) 
nan

>  <Num_Not_Resolved_Atoms>  (919) 
nan

$$$$
CHEMBL2332093
     RDKit          3D

  0  0  0  0  0  0  0  0  0  0999 V3000
M  V30 BEGIN CTAB
M  V30 COUNTS 49 51 0 0 0
M  V30 BEGIN ATOM
M  V30 1 C 5.520593 -3.879258 3.415673 0
M  V30 2 O 5.110687 -3.077957 2.311677 0
M  V30 3 C 3.877561 -3.316144 1.708539 0
M  V30 4 C 3.042678 -4.313014 2.157166 0
M  V30 5 C 1.841170 -4.481997 1.505220 0
M  V30 6 C 1.496661 -3.662002 0.427777 0
M  V30 7 C 2.356145 -2.662165 -0.006991 0
M  V30 8 C 1.803796 -1.909587 -1.158653 0
M  V30 9 N 1.010523 -0.776084 -0.746796 0
M  V30 10 C 1.454184 0.481762 -0.264019 0
M  V30 11 O 2.724548 0.586396 -0.201980 0
M  V30 12 N 0.482996 1.486189 0.098323 0
M  V30 13 C 1.114217 2.709486 0.556681 0
M  V30 14 C 1.364006 2.737167 2.039842 0
M  V30 15 O 0.189473 2.619261 2.742306 0
M  V30 16 C -0.900910 1.201579 -0.026048 0
M  V30 17 C -1.600755 0.624915 1.014986 0
M  V30 18 C -2.948314 0.334078 0.940365 0
M  V30 19 C -3.666919 0.622226 -0.224115 0
M  V30 20 C -5.090097 0.306680 -0.280641 0
M  V30 21 C -6.174089 0.879559 -0.934704 0
M  V30 22 N -7.286123 0.179263 -0.637876 0
M  V30 23 N -6.971162 -0.816782 0.175467 0
M  V30 24 C -5.643017 -0.772349 0.416060 0
M  V30 25 C -2.973768 1.203174 -1.279962 0
M  V30 26 C -1.611437 1.487845 -1.180773 0
M  V30 27 C 3.555993 -2.501807 0.652522 0
M  V30 28 H 6.356497 -3.347163 3.931619 0
M  V30 29 H 5.844432 -4.879288 3.107536 0
M  V30 30 H 4.706475 -3.969133 4.170856 0
M  V30 31 H 3.310173 -4.942442 2.985873 0
M  V30 32 H 1.170274 -5.263674 1.845843 0
M  V30 33 H 0.516289 -3.889731 -0.012876 0
M  V30 34 H 2.672825 -1.536942 -1.750760 0
M  V30 35 H 1.250039 -2.567062 -1.855289 0
M  V30 36 H -0.041548 -0.908317 -0.816968 0
M  V30 37 H 2.036891 2.937397 -0.005905 0
M  V30 38 H 0.440247 3.589367 0.351802 0
M  V30 39 H 1.841182 3.720818 2.254381 0
M  V30 40 H 2.120389 1.985075 2.356130 0
M  V30 41 H 0.216196 3.038342 3.641459 0
M  V30 42 H -1.143822 0.358705 1.958275 0
M  V30 43 H -3.500740 -0.117066 1.752627 0
M  V30 44 H -6.033628 1.750776 -1.560161 0
M  V30 45 H -7.618840 -1.542248 0.587395 0
M  V30 46 H -5.117274 -1.474234 1.052048 0
M  V30 47 H -3.555738 1.419672 -2.178989 0
M  V30 48 H -1.117072 1.943720 -2.038566 0
M  V30 49 H 4.161016 -1.704455 0.249225 0
M  V30 END ATOM
M  V30 BEGIN BOND
M  V30 1 1 1 2
M  V30 2 1 2 3
M  V30 3 2 3 4
M  V30 4 1 4 5
M  V30 5 2 5 6
M  V30 6 1 6 7
M  V30 7 1 7 8
M  V30 8 1 8 9
M  V30 9 1 9 10
M  V30 10 2 10 11
M  V30 11 1 10 12
M  V30 12 1 12 13
M  V30 13 1 13 14
M  V30 14 1 14 15
M  V30 15 1 12 16
M  V30 16 2 16 17
M  V30 17 1 17 18
M  V30 18 2 18 19
M  V30 19 1 19 20
M  V30 20 1 20 21
M  V30 21 2 21 22
M  V30 22 1 22 23
M  V30 23 1 23 24
M  V30 24 1 19 25
M  V30 25 2 25 26
M  V30 26 2 7 27
M  V30 27 1 27 3
M  V30 28 1 26 16
M  V30 29 2 24 20
M  V30 30 1 1 28
M  V30 31 1 1 29
M  V30 32 1 1 30
M  V30 33 1 4 31
M  V30 34 1 5 32
M  V30 35 1 6 33
M  V30 36 1 8 34
M  V30 37 1 8 35
M  V30 38 1 9 36
M  V30 39 1 13 37
M  V30 40 1 13 38
M  V30 41 1 14 39
M  V30 42 1 14 40
M  V30 43 1 15 41
M  V30 44 1 17 42
M  V30 45 1 18 43
M  V30 46 1 21 44
M  V30 47 1 23 45
M  V30 48 1 24 46
M  V30 49 1 25 47
M  V30 50 1 26 48
M  V30 51 1 27 49
M  V30 END BOND
M  V30 END CTAB
M  END
>  <Dataset>  (920) 
ChEMBL_Kinases

>  <Ligand_Instance>  (920) 
nan

>  <PDB_ID>  (920) 
nan

>  <Standardized_SMILES>  (920) 
COc1cccc(CNC(=O)N(CCO)c2ccc(-c3cn[nH]c3)cc2)c1

>  <Name>  (920) 
nan

>  <Pocket>  (920) 
nan

>  <ATP_Site>  (920) 
nan

>  <Peripheral>  (920) 
nan

>  <Num_H_Atoms_ProtBoundConf>  (920) 
nan

>  <Num_Resolved_Atoms>  (920) 
nan

>  <Num_Not_Resolved_Atoms>  (920) 
nan

$$$$
CHEMBL2332092
     RDKit          3D

  0  0  0  0  0  0  0  0  0  0999 V3000
M  V30 BEGIN CTAB
M  V30 COUNTS 45 47 0 0 0
M  V30 BEGIN ATOM
M  V30 1 C 1.421001 -6.427654 0.579998 0
M  V30 2 O 0.752281 -5.268549 0.143703 0
M  V30 3 C 1.382997 -4.324224 -0.643932 0
M  V30 4 C 2.712269 -4.472454 -1.045837 0
M  V30 5 C 3.245366 -3.475478 -1.828783 0
M  V30 6 C 2.551377 -2.357976 -2.231233 0
M  V30 7 C 1.236960 -2.192001 -1.845095 0
M  V30 8 C 0.338931 -1.045572 -2.185231 0
M  V30 9 N 0.424487 -0.006719 -1.181543 0
M  V30 10 C 1.454311 0.927688 -1.007294 0
M  V30 11 O 2.454134 0.911795 -1.789906 0
M  V30 12 N 1.432727 1.910510 0.022987 0
M  V30 13 C 2.512826 2.863962 0.179675 0
M  V30 14 C 0.320867 1.943377 0.908972 0
M  V30 15 C 0.493772 1.144155 2.031152 0
M  V30 16 C -0.507366 1.072665 2.989315 0
M  V30 17 C -1.675553 1.798358 2.823823 0
M  V30 18 C -2.703855 1.694890 3.856801 0
M  V30 19 C -4.069326 1.795975 3.660144 0
M  V30 20 N -4.728004 1.653790 4.823464 0
M  V30 21 N -3.777268 1.465115 5.739379 0
M  V30 22 C -2.530933 1.479182 5.218399 0
M  V30 23 C -1.849741 2.594698 1.707448 0
M  V30 24 C -0.847967 2.664393 0.751424 0
M  V30 25 C 0.690069 -3.195069 -1.053535 0
M  V30 26 H 0.689980 -7.209216 0.884196 0
M  V30 27 H 2.049048 -6.903535 -0.199192 0
M  V30 28 H 2.051643 -6.166799 1.468505 0
M  V30 29 H 3.261805 -5.347610 -0.733091 0
M  V30 30 H 4.285456 -3.584400 -2.147480 0
M  V30 31 H 2.956052 -1.567734 -2.846234 0
M  V30 32 H 0.547491 -0.660856 -3.204728 0
M  V30 33 H -0.705616 -1.414451 -2.221392 0
M  V30 34 H -0.362538 0.092991 -0.476221 0
M  V30 35 H 2.643024 3.227541 1.198574 0
M  V30 36 H 2.313738 3.684849 -0.563664 0
M  V30 37 H 3.481406 2.365567 -0.101415 0
M  V30 38 H 1.368365 0.547307 2.240569 0
M  V30 39 H -0.401112 0.465141 3.863308 0
M  V30 40 H -4.563148 1.963019 2.728859 0
M  V30 41 H -3.922695 1.314902 6.778951 0
M  V30 42 H -1.604101 1.352301 5.734941 0
M  V30 43 H -2.753101 3.167727 1.560357 0
M  V30 44 H -0.904488 3.260573 -0.146429 0
M  V30 45 H -0.336737 -3.115175 -0.722559 0
M  V30 END ATOM
M  V30 BEGIN BOND
M  V30 1 1 1 2
M  V30 2 1 2 3
M  V30 3 2 3 4
M  V30 4 1 4 5
M  V30 5 2 5 6
M  V30 6 1 6 7
M  V30 7 1 7 8
M  V30 8 1 8 9
M  V30 9 1 9 10
M  V30 10 2 10 11
M  V30 11 1 10 12
M  V30 12 1 12 13
M  V30 13 1 12 14
M  V30 14 2 14 15
M  V30 15 1 15 16
M  V30 16 2 16 17
M  V30 17 1 17 18
M  V30 18 1 18 19
M  V30 19 2 19 20
M  V30 20 1 20 21
M  V30 21 1 21 22
M  V30 22 1 17 23
M  V30 23 2 23 24
M  V30 24 2 7 25
M  V30 25 1 25 3
M  V30 26 1 24 14
M  V30 27 2 22 18
M  V30 28 1 1 26
M  V30 29 1 1 27
M  V30 30 1 1 28
M  V30 31 1 4 29
M  V30 32 1 5 30
M  V30 33 1 6 31
M  V30 34 1 8 32
M  V30 35 1 8 33
M  V30 36 1 9 34
M  V30 37 1 13 35
M  V30 38 1 13 36
M  V30 39 1 13 37
M  V30 40 1 15 38
M  V30 41 1 16 39
M  V30 42 1 19 40
M  V30 43 1 21 41
M  V30 44 1 22 42
M  V30 45 1 23 43
M  V30 46 1 24 44
M  V30 47 1 25 45
M  V30 END BOND
M  V30 END CTAB
M  END
>  <Dataset>  (921) 
ChEMBL_Kinases

>  <Ligand_Instance>  (921) 
nan

>  <PDB_ID>  (921) 
nan

>  <Standardized_SMILES>  (921) 
COc1cccc(CNC(=O)N(C)c2ccc(-c3cn[nH]c3)cc2)c1

>  <Name>  (921) 
nan

>  <Pocket>  (921) 
nan

>  <ATP_Site>  (921) 
nan

>  <Peripheral>  (921) 
nan

>  <Num_H_Atoms_ProtBoundConf>  (921) 
nan

>  <Num_Resolved_Atoms>  (921) 
nan

>  <Num_Not_Resolved_Atoms>  (921) 
nan

$$$$
CHEMBL2332091
     RDKit          3D

  0  0  0  0  0  0  0  0  0  0999 V3000
M  V30 BEGIN CTAB
M  V30 COUNTS 42 44 0 0 0
M  V30 BEGIN ATOM
M  V30 1 C -3.812224 -5.365206 0.698395 0
M  V30 2 O -3.636096 -4.826590 -0.577964 0
M  V30 3 C -2.472375 -4.298110 -1.079404 0
M  V30 4 C -1.377528 -4.310412 -0.212069 0
M  V30 5 C -0.165915 -3.799159 -0.629406 0
M  V30 6 C -0.023676 -3.274761 -1.896449 0
M  V30 7 C 1.221005 -2.680901 -2.486826 0
M  V30 8 N 1.264847 -1.246728 -2.239671 0
M  V30 9 C 1.586538 -0.614886 -1.009671 0
M  V30 10 O 1.874892 -1.284062 0.015980 0
M  V30 11 N 1.602651 0.786254 -0.862968 0
M  V30 12 C 1.926556 1.406481 0.378132 0
M  V30 13 C 3.156603 1.806187 0.860207 0
M  V30 14 C 3.236429 2.393819 2.106407 0
M  V30 15 C 2.121478 2.599824 2.898472 0
M  V30 16 C 2.221768 3.221798 4.210739 0
M  V30 17 C 3.203003 3.227850 5.192554 0
M  V30 18 N 2.758803 3.973412 6.210972 0
M  V30 19 N 1.555102 4.464982 5.981993 0
M  V30 20 C 1.212613 4.013061 4.760100 0
M  V30 21 C 0.883731 2.203701 2.426743 0
M  V30 22 C 0.790471 1.607049 1.165371 0
M  V30 23 C -1.137461 -3.288850 -2.709457 0
M  V30 24 C -2.374375 -3.783347 -2.355408 0
M  V30 25 F -3.446084 -3.779445 -3.182961 0
M  V30 26 H -4.780172 -5.926967 0.690083 0
M  V30 27 H -2.965573 -6.023732 0.989301 0
M  V30 28 H -3.908532 -4.548962 1.455431 0
M  V30 29 H -1.408416 -4.704041 0.797481 0
M  V30 30 H 0.722651 -3.775434 -0.015001 0
M  V30 31 H 2.144912 -3.100190 -2.041380 0
M  V30 32 H 1.224523 -2.840228 -3.562881 0
M  V30 33 H 1.041660 -0.566693 -3.026060 0
M  V30 34 H 1.367846 1.395942 -1.695152 0
M  V30 35 H 3.963794 1.609578 0.184051 0
M  V30 36 H 4.237985 2.693396 2.443313 0
M  V30 37 H 4.129575 2.689105 5.054769 0
M  V30 38 H 0.950233 5.076767 6.579345 0
M  V30 39 H 0.257145 4.253134 4.284122 0
M  V30 40 H 0.031504 2.376863 3.066989 0
M  V30 41 H -0.233645 1.332362 0.889562 0
M  V30 42 H -1.081352 -2.885408 -3.726071 0
M  V30 END ATOM
M  V30 BEGIN BOND
M  V30 1 1 1 2
M  V30 2 1 2 3
M  V30 3 2 3 4
M  V30 4 1 4 5
M  V30 5 2 5 6
M  V30 6 1 6 7
M  V30 7 1 7 8
M  V30 8 1 8 9
M  V30 9 2 9 10
M  V30 10 1 9 11
M  V30 11 1 11 12
M  V30 12 2 12 13
M  V30 13 1 13 14
M  V30 14 2 14 15
M  V30 15 1 15 16
M  V30 16 1 16 17
M  V30 17 2 17 18
M  V30 18 1 18 19
M  V30 19 1 19 20
M  V30 20 1 15 21
M  V30 21 2 21 22
M  V30 22 1 6 23
M  V30 23 2 23 24
M  V30 24 1 24 25
M  V30 25 1 24 3
M  V30 26 1 22 12
M  V30 27 2 20 16
M  V30 28 1 1 26
M  V30 29 1 1 27
M  V30 30 1 1 28
M  V30 31 1 4 29
M  V30 32 1 5 30
M  V30 33 1 7 31
M  V30 34 1 7 32
M  V30 35 1 8 33
M  V30 36 1 11 34
M  V30 37 1 13 35
M  V30 38 1 14 36
M  V30 39 1 17 37
M  V30 40 1 19 38
M  V30 41 1 20 39
M  V30 42 1 21 40
M  V30 43 1 22 41
M  V30 44 1 23 42
M  V30 END BOND
M  V30 END CTAB
M  END
>  <Dataset>  (922) 
ChEMBL_Kinases

>  <Ligand_Instance>  (922) 
nan

>  <PDB_ID>  (922) 
nan

>  <Standardized_SMILES>  (922) 
COc1ccc(CNC(=O)Nc2ccc(-c3cn[nH]c3)cc2)cc1F

>  <Name>  (922) 
nan

>  <Pocket>  (922) 
nan

>  <ATP_Site>  (922) 
nan

>  <Peripheral>  (922) 
nan

>  <Num_H_Atoms_ProtBoundConf>  (922) 
nan

>  <Num_Resolved_Atoms>  (922) 
nan

>  <Num_Not_Resolved_Atoms>  (922) 
nan

$$$$
CHEMBL2332090
     RDKit          3D

  0  0  0  0  0  0  0  0  0  0999 V3000
M  V30 BEGIN CTAB
M  V30 COUNTS 46 48 0 0 0
M  V30 BEGIN ATOM
M  V30 1 C 0.305469 -5.010214 1.810138 0
M  V30 2 O 0.927148 -4.413212 0.689520 0
M  V30 3 C 0.256932 -3.572872 -0.188128 0
M  V30 4 C 1.040487 -3.091235 -1.219961 0
M  V30 5 C 0.445962 -2.244845 -2.140335 0
M  V30 6 C 1.085683 -1.606418 -3.326480 0
M  V30 7 N 1.640119 -0.305536 -2.920703 0
M  V30 8 C 1.519044 0.167607 -1.574848 0
M  V30 9 O 0.969035 -0.398968 -0.606728 0
M  V30 10 N 2.062255 1.437274 -1.186207 0
M  V30 11 C 1.796987 1.657920 0.217053 0
M  V30 12 C 2.607831 1.292830 1.273212 0
M  V30 13 C 2.216542 1.572575 2.552984 0
M  V30 14 C 1.010440 2.218399 2.758034 0
M  V30 15 C 0.613392 2.507490 4.138501 0
M  V30 16 C 1.419644 2.795104 5.234415 0
M  V30 17 N 0.613636 2.994877 6.310789 0
M  V30 18 N -0.651649 2.847196 5.944644 0
M  V30 19 C -0.689865 2.548796 4.623501 0
M  V30 20 C 0.180862 2.593015 1.697816 0
M  V30 21 C 0.587288 2.304049 0.395800 0
M  V30 22 C -0.902597 -1.903370 -2.009475 0
M  V30 23 C -1.651949 -2.409396 -0.958930 0
M  V30 24 O -2.991627 -2.069313 -0.830436 0
M  V30 25 C -3.830124 -2.538386 0.208200 0
M  V30 26 C -1.076124 -3.253774 -0.032998 0
M  V30 27 H 1.140799 -5.222248 2.538278 0
M  V30 28 H -0.208506 -5.953137 1.600716 0
M  V30 29 H -0.430350 -4.311700 2.296778 0
M  V30 30 H 2.067029 -3.292852 -1.401320 0
M  V30 31 H 0.402905 -1.544177 -4.170964 0
M  V30 32 H 1.962280 -2.239916 -3.614394 0
M  V30 33 H 2.128572 0.272411 -3.639578 0
M  V30 34 H 2.565190 2.049470 -1.893328 0
M  V30 35 H 3.525246 0.794256 0.993383 0
M  V30 36 H 2.864273 1.279681 3.368555 0
M  V30 37 H 2.487818 2.820021 5.098702 0
M  V30 38 H -1.474377 2.950820 6.596572 0
M  V30 39 H -1.613658 2.381674 4.091672 0
M  V30 40 H -0.743950 3.093785 1.954386 0
M  V30 41 H -0.101999 2.623290 -0.355242 0
M  V30 42 H -1.437692 -1.239913 -2.699551 0
M  V30 43 H -3.314743 -2.472475 1.206597 0
M  V30 44 H -4.057622 -3.607686 0.028182 0
M  V30 45 H -4.727268 -1.887936 0.232019 0
M  V30 46 H -1.650477 -3.659428 0.797061 0
M  V30 END ATOM
M  V30 BEGIN BOND
M  V30 1 1 1 2
M  V30 2 1 2 3
M  V30 3 2 3 4
M  V30 4 1 4 5
M  V30 5 1 5 6
M  V30 6 1 6 7
M  V30 7 1 7 8
M  V30 8 2 8 9
M  V30 9 1 8 10
M  V30 10 1 10 11
M  V30 11 2 11 12
M  V30 12 1 12 13
M  V30 13 2 13 14
M  V30 14 1 14 15
M  V30 15 1 15 16
M  V30 16 2 16 17
M  V30 17 1 17 18
M  V30 18 1 18 19
M  V30 19 1 14 20
M  V30 20 2 20 21
M  V30 21 2 5 22
M  V30 22 1 22 23
M  V30 23 1 23 24
M  V30 24 1 24 25
M  V30 25 2 23 26
M  V30 26 1 26 3
M  V30 27 1 21 11
M  V30 28 2 19 15
M  V30 29 1 1 27
M  V30 30 1 1 28
M  V30 31 1 1 29
M  V30 32 1 4 30
M  V30 33 1 6 31
M  V30 34 1 6 32
M  V30 35 1 7 33
M  V30 36 1 10 34
M  V30 37 1 12 35
M  V30 38 1 13 36
M  V30 39 1 16 37
M  V30 40 1 18 38
M  V30 41 1 19 39
M  V30 42 1 20 40
M  V30 43 1 21 41
M  V30 44 1 22 42
M  V30 45 1 25 43
M  V30 46 1 25 44
M  V30 47 1 25 45
M  V30 48 1 26 46
M  V30 END BOND
M  V30 END CTAB
M  END
>  <Dataset>  (923) 
ChEMBL_Kinases

>  <Ligand_Instance>  (923) 
nan

>  <PDB_ID>  (923) 
nan

>  <Standardized_SMILES>  (923) 
COc1cc(CNC(=O)Nc2ccc(-c3cn[nH]c3)cc2)cc(OC)c1

>  <Name>  (923) 
nan

>  <Pocket>  (923) 
nan

>  <ATP_Site>  (923) 
nan

>  <Peripheral>  (923) 
nan

>  <Num_H_Atoms_ProtBoundConf>  (923) 
nan

>  <Num_Resolved_Atoms>  (923) 
nan

>  <Num_Not_Resolved_Atoms>  (923) 
nan

$$$$
CHEMBL2332089
     RDKit          3D

  0  0  0  0  0  0  0  0  0  0999 V3000
M  V30 BEGIN CTAB
M  V30 COUNTS 46 48 0 0 0
M  V30 BEGIN ATOM
M  V30 1 C 3.672571 -6.329925 -0.346333 0
M  V30 2 O 2.402775 -5.734550 -0.276748 0
M  V30 3 C 2.105449 -4.520794 -0.880836 0
M  V30 4 C 3.071441 -3.816740 -1.603528 0
M  V30 5 C 2.804681 -2.592087 -2.223984 0
M  V30 6 C 1.523385 -2.086746 -2.097022 0
M  V30 7 C 1.207544 -0.782373 -2.749023 0
M  V30 8 N 1.467104 0.353247 -1.886772 0
M  V30 9 C 0.668324 0.792502 -0.801198 0
M  V30 10 O -0.375928 0.212784 -0.480895 0
M  V30 11 N 0.989919 1.916989 0.001145 0
M  V30 12 C 0.134881 2.291270 1.072947 0
M  V30 13 C 0.356664 1.756147 2.336753 0
M  V30 14 C -0.459541 2.097053 3.414579 0
M  V30 15 C -1.492577 2.983408 3.178431 0
M  V30 16 C -2.316803 3.303345 4.353806 0
M  V30 17 C -2.928488 4.525406 4.520657 0
M  V30 18 N -3.567157 4.426731 5.679327 0
M  V30 19 N -3.389572 3.237930 6.228075 0
M  V30 20 C -2.596882 2.460139 5.434826 0
M  V30 21 C -1.763393 3.547703 1.948243 0
M  V30 22 C -0.921385 3.174029 0.913808 0
M  V30 23 C 0.563064 -2.774858 -1.385373 0
M  V30 24 C 0.834492 -4.000286 -0.765976 0
M  V30 25 O -0.106557 -4.702991 -0.052056 0
M  V30 26 C -1.440728 -4.259995 0.128534 0
M  V30 27 H 3.905962 -6.751051 -1.339260 0
M  V30 28 H 3.693359 -7.155014 0.378839 0
M  V30 29 H 4.456381 -5.602733 -0.027312 0
M  V30 30 H 4.089214 -4.216379 -1.705361 0
M  V30 31 H 3.592623 -2.101229 -2.764893 0
M  V30 32 H 0.120743 -0.752957 -3.010532 0
M  V30 33 H 1.838787 -0.687372 -3.636568 0
M  V30 34 H 2.313442 0.947064 -2.030641 0
M  V30 35 H 1.864117 2.472889 -0.199840 0
M  V30 36 H 1.167913 1.049534 2.560051 0
M  V30 37 H -0.263942 1.665485 4.386623 0
M  V30 38 H -2.882094 5.364895 3.840585 0
M  V30 39 H -3.730975 2.795549 7.126434 0
M  V30 40 H -2.239206 1.447699 5.549983 0
M  V30 41 H -2.587003 4.240510 1.808642 0
M  V30 42 H -1.099032 3.592158 -0.062502 0
M  V30 43 H -0.447331 -2.410382 -1.266928 0
M  V30 44 H -2.062113 -4.461089 -0.770277 0
M  V30 45 H -1.402057 -3.177396 0.386704 0
M  V30 46 H -1.883773 -4.783986 1.002766 0
M  V30 END ATOM
M  V30 BEGIN BOND
M  V30 1 1 1 2
M  V30 2 1 2 3
M  V30 3 2 3 4
M  V30 4 1 4 5
M  V30 5 2 5 6
M  V30 6 1 6 7
M  V30 7 1 7 8
M  V30 8 1 8 9
M  V30 9 2 9 10
M  V30 10 1 9 11
M  V30 11 1 11 12
M  V30 12 2 12 13
M  V30 13 1 13 14
M  V30 14 2 14 15
M  V30 15 1 15 16
M  V30 16 1 16 17
M  V30 17 2 17 18
M  V30 18 1 18 19
M  V30 19 1 19 20
M  V30 20 1 15 21
M  V30 21 2 21 22
M  V30 22 1 6 23
M  V30 23 2 23 24
M  V30 24 1 24 25
M  V30 25 1 25 26
M  V30 26 1 24 3
M  V30 27 1 22 12
M  V30 28 2 20 16
M  V30 29 1 1 27
M  V30 30 1 1 28
M  V30 31 1 1 29
M  V30 32 1 4 30
M  V30 33 1 5 31
M  V30 34 1 7 32
M  V30 35 1 7 33
M  V30 36 1 8 34
M  V30 37 1 11 35
M  V30 38 1 13 36
M  V30 39 1 14 37
M  V30 40 1 17 38
M  V30 41 1 19 39
M  V30 42 1 20 40
M  V30 43 1 21 41
M  V30 44 1 22 42
M  V30 45 1 23 43
M  V30 46 1 26 44
M  V30 47 1 26 45
M  V30 48 1 26 46
M  V30 END BOND
M  V30 END CTAB
M  END
>  <Dataset>  (924) 
ChEMBL_Kinases

>  <Ligand_Instance>  (924) 
nan

>  <PDB_ID>  (924) 
nan

>  <Standardized_SMILES>  (924) 
COc1ccc(CNC(=O)Nc2ccc(-c3cn[nH]c3)cc2)cc1OC

>  <Name>  (924) 
nan

>  <Pocket>  (924) 
nan

>  <ATP_Site>  (924) 
nan

>  <Peripheral>  (924) 
nan

>  <Num_H_Atoms_ProtBoundConf>  (924) 
nan

>  <Num_Resolved_Atoms>  (924) 
nan

>  <Num_Not_Resolved_Atoms>  (924) 
nan

$$$$
CHEMBL2332064
     RDKit          3D

  0  0  0  0  0  0  0  0  0  0999 V3000
M  V30 BEGIN CTAB
M  V30 COUNTS 51 53 0 0 0
M  V30 BEGIN ATOM
M  V30 1 C 4.856862 -3.966785 2.851408 0
M  V30 2 O 4.169178 -2.914615 2.211387 0
M  V30 3 C 3.736343 -3.033078 0.900833 0
M  V30 4 C 3.920976 -4.140803 0.114987 0
M  V30 5 C 3.456776 -4.166982 -1.173576 0
M  V30 6 C 2.795819 -3.056326 -1.675532 0
M  V30 7 C 2.585138 -1.903596 -0.907916 0
M  V30 8 C 1.864318 -0.797691 -1.577880 0
M  V30 9 N 0.450006 -0.803225 -1.427671 0
M  V30 10 C -0.296704 -0.131632 -0.388131 0
M  V30 11 O -1.553465 -0.069711 -0.147163 0
M  V30 12 N 0.347373 0.647740 0.632814 0
M  V30 13 C -0.708638 1.154560 1.479838 0
M  V30 14 C -1.112877 0.387670 2.580875 0
M  V30 15 C -2.137206 0.906220 3.379099 0
M  V30 16 C -2.728710 2.123243 3.097650 0
M  V30 17 C -3.799313 2.622687 3.965406 0
M  V30 18 C -4.023626 2.464669 5.317365 0
M  V30 19 N -5.169790 3.142853 5.613012 0
M  V30 20 N -5.643707 3.698475 4.509938 0
M  V30 21 C -4.825102 3.400824 3.467875 0
M  V30 22 C -2.308468 2.857826 2.003806 0
M  V30 23 C -1.287965 2.376672 1.179856 0
M  V30 24 C -0.520336 -1.464405 -2.279653 0
M  V30 25 C -0.473731 -2.973957 -2.184148 0
M  V30 26 C -0.537489 -0.992119 -3.689103 0
M  V30 27 C 3.078295 -1.946721 0.378721 0
M  V30 28 H 5.944651 -3.977618 2.571263 0
M  V30 29 H 4.746818 -3.781794 3.951584 0
M  V30 30 H 4.443332 -4.958394 2.589434 0
M  V30 31 H 4.440688 -4.989202 0.538432 0
M  V30 32 H 3.631675 -5.065670 -1.742307 0
M  V30 33 H 2.478740 -3.192994 -2.701179 0
M  V30 34 H 2.347764 0.135662 -1.204774 0
M  V30 35 H 2.135124 -0.806704 -2.675094 0
M  V30 36 H 1.402038 0.745249 0.636715 0
M  V30 37 H -0.642300 -0.567996 2.795014 0
M  V30 38 H -2.441884 0.298347 4.233245 0
M  V30 39 H -3.340310 1.880732 5.941060 0
M  V30 40 H -6.528099 4.241211 4.652373 0
M  V30 41 H -5.072487 3.782676 2.486625 0
M  V30 42 H -2.751039 3.811471 1.758337 0
M  V30 43 H -0.909090 2.889921 0.313959 0
M  V30 44 H -1.515225 -1.196553 -1.811383 0
M  V30 45 H -0.047753 -3.354726 -1.259960 0
M  V30 46 H 0.121653 -3.339829 -3.036357 0
M  V30 47 H -1.499063 -3.393935 -2.265145 0
M  V30 48 H -1.581066 -0.793820 -4.005930 0
M  V30 49 H -0.187756 -1.800515 -4.382388 0
M  V30 50 H 0.022469 -0.049324 -3.850547 0
M  V30 51 H 2.914867 -1.064696 0.957584 0
M  V30 END ATOM
M  V30 BEGIN BOND
M  V30 1 1 1 2
M  V30 2 1 2 3
M  V30 3 2 3 4
M  V30 4 1 4 5
M  V30 5 2 5 6
M  V30 6 1 6 7
M  V30 7 1 7 8
M  V30 8 1 8 9
M  V30 9 1 9 10
M  V30 10 2 10 11
M  V30 11 1 10 12
M  V30 12 1 12 13
M  V30 13 2 13 14
M  V30 14 1 14 15
M  V30 15 2 15 16
M  V30 16 1 16 17
M  V30 17 1 17 18
M  V30 18 2 18 19
M  V30 19 1 19 20
M  V30 20 1 20 21
M  V30 21 1 16 22
M  V30 22 2 22 23
M  V30 23 1 9 24
M  V30 24 1 24 25
M  V30 25 1 24 26
M  V30 26 2 7 27
M  V30 27 1 27 3
M  V30 28 1 23 13
M  V30 29 2 21 17
M  V30 30 1 1 28
M  V30 31 1 1 29
M  V30 32 1 1 30
M  V30 33 1 4 31
M  V30 34 1 5 32
M  V30 35 1 6 33
M  V30 36 1 8 34
M  V30 37 1 8 35
M  V30 38 1 12 36
M  V30 39 1 14 37
M  V30 40 1 15 38
M  V30 41 1 18 39
M  V30 42 1 20 40
M  V30 43 1 21 41
M  V30 44 1 22 42
M  V30 45 1 23 43
M  V30 46 1 24 44
M  V30 47 1 25 45
M  V30 48 1 25 46
M  V30 49 1 25 47
M  V30 50 1 26 48
M  V30 51 1 26 49
M  V30 52 1 26 50
M  V30 53 1 27 51
M  V30 END BOND
M  V30 END CTAB
M  END
>  <Dataset>  (925) 
ChEMBL_Kinases

>  <Ligand_Instance>  (925) 
nan

>  <PDB_ID>  (925) 
nan

>  <Standardized_SMILES>  (925) 
COc1cccc(CN(C(=O)Nc2ccc(-c3cn[nH]c3)cc2)C(C)C)c1

>  <Name>  (925) 
nan

>  <Pocket>  (925) 
nan

>  <ATP_Site>  (925) 
nan

>  <Peripheral>  (925) 
nan

>  <Num_H_Atoms_ProtBoundConf>  (925) 
nan

>  <Num_Resolved_Atoms>  (925) 
nan

>  <Num_Not_Resolved_Atoms>  (925) 
nan

$$$$
CHEMBL2332066
     RDKit          3D

  0  0  0  0  0  0  0  0  0  0999 V3000
M  V30 BEGIN CTAB
M  V30 COUNTS 52 54 0 0 0
M  V30 BEGIN ATOM
M  V30 1 C -4.011405 2.066901 -2.809294 0
M  V30 2 O -4.041846 1.479900 -1.550754 0
M  V30 3 C -4.611909 0.232608 -1.554920 0
M  V30 4 C -3.896963 -0.844062 -2.269079 0
M  V30 5 N -2.552710 -1.162029 -1.764143 0
M  V30 6 C -2.485672 -2.222194 -0.766144 0
M  V30 7 C -2.600829 -1.821040 0.628995 0
M  V30 8 C -3.822644 -1.769454 1.313287 0
M  V30 9 C -4.057859 -1.419737 2.622722 0
M  V30 10 C -2.951797 -1.073083 3.366945 0
M  V30 11 C -1.696905 -1.087686 2.797884 0
M  V30 12 O -0.618145 -0.730497 3.590561 0
M  V30 13 C 0.709914 -0.708593 3.117385 0
M  V30 14 C -1.576093 -1.454732 1.476029 0
M  V30 15 C -1.193696 -0.728397 -2.008852 0
M  V30 16 O -0.083348 -1.099440 -1.469699 0
M  V30 17 N -0.692477 0.231932 -2.917924 0
M  V30 18 C 0.723807 0.301476 -2.777674 0
M  V30 19 C 1.484178 -0.551041 -3.573353 0
M  V30 20 C 2.876203 -0.535896 -3.488420 0
M  V30 21 C 3.412998 0.368678 -2.576425 0
M  V30 22 C 4.878585 0.386224 -2.485444 0
M  V30 23 C 5.748151 -0.687807 -2.671030 0
M  V30 24 N 6.963242 -0.143463 -2.479266 0
M  V30 25 N 6.887560 1.128238 -2.203165 0
M  V30 26 C 5.601158 1.529703 -2.190541 0
M  V30 27 C 2.675199 1.221204 -1.779622 0
M  V30 28 C 1.298791 1.185563 -1.883818 0
M  V30 29 H -3.509716 3.044824 -2.727960 0
M  V30 30 H -5.056333 2.284270 -3.170335 0
M  V30 31 H -3.516094 1.464648 -3.572722 0
M  V30 32 H -4.953676 -0.016409 -0.538880 0
M  V30 33 H -5.590222 0.367314 -2.126459 0
M  V30 34 H -4.494934 -1.764987 -2.211064 0
M  V30 35 H -3.820637 -0.527018 -3.349697 0
M  V30 36 H -3.311998 -2.937650 -1.018240 0
M  V30 37 H -1.570152 -2.851749 -0.848424 0
M  V30 38 H -4.715958 -2.043051 0.732878 0
M  V30 39 H -5.063478 -1.426347 3.015830 0
M  V30 40 H -3.098936 -0.794431 4.392449 0
M  V30 41 H 0.738129 -0.223123 2.125831 0
M  V30 42 H 1.368329 -0.123971 3.793035 0
M  V30 43 H 1.066443 -1.762707 3.087649 0
M  V30 44 H -0.556152 -1.441255 1.129498 0
M  V30 45 H -1.364103 0.728733 -3.535222 0
M  V30 46 H 1.006423 -1.241814 -4.273393 0
M  V30 47 H 3.512989 -1.175830 -4.082321 0
M  V30 48 H 5.463466 -1.710118 -2.913226 0
M  V30 49 H 7.768423 1.664418 -2.032984 0
M  V30 50 H 5.284321 2.536813 -1.986982 0
M  V30 51 H 3.210272 1.880697 -1.107436 0
M  V30 52 H 0.715794 1.843156 -1.270175 0
M  V30 END ATOM
M  V30 BEGIN BOND
M  V30 1 1 1 2
M  V30 2 1 2 3
M  V30 3 1 3 4
M  V30 4 1 4 5
M  V30 5 1 5 6
M  V30 6 1 6 7
M  V30 7 2 7 8
M  V30 8 1 8 9
M  V30 9 2 9 10
M  V30 10 1 10 11
M  V30 11 1 11 12
M  V30 12 1 12 13
M  V30 13 2 11 14
M  V30 14 1 5 15
M  V30 15 2 15 16
M  V30 16 1 15 17
M  V30 17 1 17 18
M  V30 18 2 18 19
M  V30 19 1 19 20
M  V30 20 2 20 21
M  V30 21 1 21 22
M  V30 22 1 22 23
M  V30 23 2 23 24
M  V30 24 1 24 25
M  V30 25 1 25 26
M  V30 26 1 21 27
M  V30 27 2 27 28
M  V30 28 1 14 7
M  V30 29 1 28 18
M  V30 30 2 26 22
M  V30 31 1 1 29
M  V30 32 1 1 30
M  V30 33 1 1 31
M  V30 34 1 3 32
M  V30 35 1 3 33
M  V30 36 1 4 34
M  V30 37 1 4 35
M  V30 38 1 6 36
M  V30 39 1 6 37
M  V30 40 1 8 38
M  V30 41 1 9 39
M  V30 42 1 10 40
M  V30 43 1 13 41
M  V30 44 1 13 42
M  V30 45 1 13 43
M  V30 46 1 14 44
M  V30 47 1 17 45
M  V30 48 1 19 46
M  V30 49 1 20 47
M  V30 50 1 23 48
M  V30 51 1 25 49
M  V30 52 1 26 50
M  V30 53 1 27 51
M  V30 54 1 28 52
M  V30 END BOND
M  V30 END CTAB
M  END
>  <Dataset>  (926) 
ChEMBL_Kinases

>  <Ligand_Instance>  (926) 
nan

>  <PDB_ID>  (926) 
nan

>  <Standardized_SMILES>  (926) 
COCCN(Cc1cccc(OC)c1)C(=O)Nc1ccc(-c2cn[nH]c2)cc1

>  <Name>  (926) 
nan

>  <Pocket>  (926) 
nan

>  <ATP_Site>  (926) 
nan

>  <Peripheral>  (926) 
nan

>  <Num_H_Atoms_ProtBoundConf>  (926) 
nan

>  <Num_Resolved_Atoms>  (926) 
nan

>  <Num_Not_Resolved_Atoms>  (926) 
nan

$$$$
CHEMBL2332070
     RDKit          3D

  0  0  0  0  0  0  0  0  0  0999 V3000
M  V30 BEGIN CTAB
M  V30 COUNTS 63 66 0 0 0
M  V30 BEGIN ATOM
M  V30 1 C 3.475021 -3.509206 2.785600 0
M  V30 2 O 4.629358 -2.887621 2.246548 0
M  V30 3 C 4.521354 -1.635011 1.663434 0
M  V30 4 C 5.646787 -1.034928 1.144251 0
M  V30 5 C 5.543666 0.216480 0.561927 0
M  V30 6 C 4.301955 0.816212 0.525685 0
M  V30 7 C 3.110388 0.283210 1.024770 0
M  V30 8 C 1.842297 1.022698 0.924684 0
M  V30 9 N 1.042896 0.701553 -0.259295 0
M  V30 10 C 1.433457 1.536638 -1.382064 0
M  V30 11 C 0.892657 2.894723 -1.415415 0
M  V30 12 C -0.526886 3.230136 -1.532925 0
M  V30 13 N -1.258291 2.910777 -2.693505 0
M  V30 14 C -2.580566 3.573104 -2.588937 0
M  V30 15 C -3.546567 2.577676 -2.056545 0
M  V30 16 C -2.773496 1.270654 -1.956019 0
M  V30 17 C -1.652602 1.573253 -2.939074 0
M  V30 18 C 0.078545 -0.304856 0.083997 0
M  V30 19 O 0.130355 -0.563329 1.324289 0
M  V30 20 N -0.929696 -1.138883 -0.451569 0
M  V30 21 C -1.618704 -2.009211 0.423436 0
M  V30 22 C -1.022423 -3.264050 0.539980 0
M  V30 23 C -1.599470 -4.223628 1.370857 0
M  V30 24 C -2.752182 -3.927417 2.070314 0
M  V30 25 C -3.343382 -4.954409 2.938674 0
M  V30 26 C -2.508011 -5.873360 3.573544 0
M  V30 27 N -3.302524 -6.701871 4.307290 0
M  V30 28 N -4.568142 -6.327151 4.144742 0
M  V30 29 C -4.632807 -5.261948 3.314752 0
M  V30 30 C -3.324394 -2.679096 1.939587 0
M  V30 31 C -2.788237 -1.701067 1.129722 0
M  V30 32 C 3.329063 -0.953426 1.577303 0
M  V30 33 H 3.731094 -4.389968 3.412742 0
M  V30 34 H 2.789712 -3.799398 1.990075 0
M  V30 35 H 2.961907 -2.806624 3.479608 0
M  V30 36 H 6.594749 -1.537115 1.192747 0
M  V30 37 H 6.450328 0.634698 0.174626 0
M  V30 38 H 4.369297 1.798165 0.056460 0
M  V30 39 H 2.092517 2.132016 0.915793 0
M  V30 40 H 1.247607 0.859760 1.846841 0
M  V30 41 H 2.559669 1.620856 -1.357215 0
M  V30 42 H 1.268193 0.940838 -2.316040 0
M  V30 43 H 1.308831 3.404642 -0.459850 0
M  V30 44 H 1.484927 3.492745 -2.196026 0
M  V30 45 H -1.125621 2.879935 -0.641243 0
M  V30 46 H -0.593442 4.367295 -1.402208 0
M  V30 47 H -2.878672 3.961358 -3.596787 0
M  V30 48 H -2.429563 4.435399 -1.912547 0
M  V30 49 H -3.982425 2.804255 -1.070859 0
M  V30 50 H -4.376479 2.440095 -2.803345 0
M  V30 51 H -3.398637 0.422347 -2.279057 0
M  V30 52 H -2.433061 1.083448 -0.932472 0
M  V30 53 H -2.174901 1.585134 -3.957368 0
M  V30 54 H -0.913117 0.805024 -3.019312 0
M  V30 55 H -0.934616 -0.905585 -1.488244 0
M  V30 56 H -0.129538 -3.573306 0.033139 0
M  V30 57 H -1.151548 -5.207557 1.476387 0
M  V30 58 H -1.421255 -6.001082 3.560682 0
M  V30 59 H -5.449610 -6.730159 4.552652 0
M  V30 60 H -5.453792 -4.674330 2.938669 0
M  V30 61 H -4.233865 -2.431918 2.485806 0
M  V30 62 H -3.187348 -0.707236 0.985238 0
M  V30 63 H 2.503777 -1.492951 2.011364 0
M  V30 END ATOM
M  V30 BEGIN BOND
M  V30 1 1 1 2
M  V30 2 1 2 3
M  V30 3 2 3 4
M  V30 4 1 4 5
M  V30 5 2 5 6
M  V30 6 1 6 7
M  V30 7 1 7 8
M  V30 8 1 8 9
M  V30 9 1 9 10
M  V30 10 1 10 11
M  V30 11 1 11 12
M  V30 12 1 12 13
M  V30 13 1 13 14
M  V30 14 1 14 15
M  V30 15 1 15 16
M  V30 16 1 16 17
M  V30 17 1 9 18
M  V30 18 2 18 19
M  V30 19 1 18 20
M  V30 20 1 20 21
M  V30 21 2 21 22
M  V30 22 1 22 23
M  V30 23 2 23 24
M  V30 24 1 24 25
M  V30 25 1 25 26
M  V30 26 2 26 27
M  V30 27 1 27 28
M  V30 28 1 28 29
M  V30 29 1 24 30
M  V30 30 2 30 31
M  V30 31 2 7 32
M  V30 32 1 32 3
M  V30 33 1 17 13
M  V30 34 1 31 21
M  V30 35 2 29 25
M  V30 36 1 1 33
M  V30 37 1 1 34
M  V30 38 1 1 35
M  V30 39 1 4 36
M  V30 40 1 5 37
M  V30 41 1 6 38
M  V30 42 1 8 39
M  V30 43 1 8 40
M  V30 44 1 10 41
M  V30 45 1 10 42
M  V30 46 1 11 43
M  V30 47 1 11 44
M  V30 48 1 12 45
M  V30 49 1 12 46
M  V30 50 1 14 47
M  V30 51 1 14 48
M  V30 52 1 15 49
M  V30 53 1 15 50
M  V30 54 1 16 51
M  V30 55 1 16 52
M  V30 56 1 17 53
M  V30 57 1 17 54
M  V30 58 1 20 55
M  V30 59 1 22 56
M  V30 60 1 23 57
M  V30 61 1 26 58
M  V30 62 1 28 59
M  V30 63 1 29 60
M  V30 64 1 30 61
M  V30 65 1 31 62
M  V30 66 1 32 63
M  V30 END BOND
M  V30 END CTAB
M  END
>  <Dataset>  (927) 
ChEMBL_Kinases

>  <Ligand_Instance>  (927) 
nan

>  <PDB_ID>  (927) 
nan

>  <Standardized_SMILES>  (927) 
COc1cccc(CN(CCCN2CCCC2)C(=O)Nc2ccc(-c3cn[nH]c3)cc2)c1

>  <Name>  (927) 
nan

>  <Pocket>  (927) 
nan

>  <ATP_Site>  (927) 
nan

>  <Peripheral>  (927) 
nan

>  <Num_H_Atoms_ProtBoundConf>  (927) 
nan

>  <Num_Resolved_Atoms>  (927) 
nan

>  <Num_Not_Resolved_Atoms>  (927) 
nan

$$$$
CHEMBL2332072
     RDKit          3D

  0  0  0  0  0  0  0  0  0  0999 V3000
M  V30 BEGIN CTAB
M  V30 COUNTS 64 67 0 0 0
M  V30 BEGIN ATOM
M  V30 1 C 1.661150 -2.134658 3.543199 0
M  V30 2 O 2.396019 -0.923642 3.591148 0
M  V30 3 C 2.680227 -0.180018 2.458849 0
M  V30 4 C 3.401170 0.986293 2.593346 0
M  V30 5 C 3.699978 1.749227 1.485047 0
M  V30 6 C 3.244684 1.288892 0.247119 0
M  V30 7 C 2.513477 0.125311 0.023770 0
M  V30 8 C 2.133539 -0.259745 -1.324261 0
M  V30 9 N 0.833668 0.071217 -1.840648 0
M  V30 10 C 0.145275 1.067181 -2.587577 0
M  V30 11 C -0.665329 2.121364 -1.995691 0
M  V30 12 C -0.109759 3.115087 -1.053893 0
M  V30 13 N 0.376784 2.633792 0.199014 0
M  V30 14 C 0.860103 3.772522 0.952362 0
M  V30 15 C 0.722774 3.709506 2.421934 0
M  V30 16 O -0.599678 3.313259 2.733636 0
M  V30 17 C -0.643827 1.966174 2.357502 0
M  V30 18 C -0.556671 1.797240 0.874220 0
M  V30 19 C -0.112924 -1.007905 -1.604162 0
M  V30 20 O 0.236576 -2.067385 -0.976387 0
M  V30 21 N -1.482623 -1.181828 -1.946034 0
M  V30 22 C -1.869486 -2.437536 -1.440634 0
M  V30 23 C -2.352337 -2.323816 -0.149277 0
M  V30 24 C -2.798423 -3.443476 0.562957 0
M  V30 25 C -2.739587 -4.670544 -0.070568 0
M  V30 26 C -3.194852 -5.860699 0.640132 0
M  V30 27 C -4.220098 -5.775149 1.563345 0
M  V30 28 N -4.439981 -7.003379 2.066924 0
M  V30 29 N -3.609267 -7.871024 1.514455 0
M  V30 30 C -2.832524 -7.192598 0.632819 0
M  V30 31 C -2.259598 -4.794818 -1.358776 0
M  V30 32 C -1.823383 -3.675386 -2.045628 0
M  V30 33 C 2.275148 -0.551694 1.198606 0
M  V30 34 H 2.055309 -2.780792 2.707328 0
M  V30 35 H 1.698452 -2.671197 4.510631 0
M  V30 36 H 0.593146 -1.952376 3.311995 0
M  V30 37 H 3.764551 1.364409 3.532617 0
M  V30 38 H 4.261151 2.672134 1.526401 0
M  V30 39 H 3.498188 1.919160 -0.619001 0
M  V30 40 H 2.931502 0.181424 -2.023370 0
M  V30 41 H 2.283378 -1.386243 -1.484317 0
M  V30 42 H 0.986934 1.619393 -3.173934 0
M  V30 43 H -0.391297 0.585350 -3.492383 0
M  V30 44 H -1.075599 2.748796 -2.882264 0
M  V30 45 H -1.643465 1.704797 -1.554898 0
M  V30 46 H 0.698417 3.678151 -1.616295 0
M  V30 47 H -0.909337 3.903832 -0.881279 0
M  V30 48 H 0.401848 4.726855 0.582806 0
M  V30 49 H 1.948162 3.891574 0.685754 0
M  V30 50 H 0.860079 4.742671 2.818547 0
M  V30 51 H 1.397689 2.998177 2.914865 0
M  V30 52 H -1.615437 1.493330 2.670085 0
M  V30 53 H 0.146102 1.441250 2.931842 0
M  V30 54 H -1.575968 1.893130 0.440748 0
M  V30 55 H -0.263889 0.734030 0.692478 0
M  V30 56 H -1.886705 -0.382200 -2.482048 0
M  V30 57 H -2.444195 -1.415640 0.444245 0
M  V30 58 H -3.182617 -3.411779 1.567342 0
M  V30 59 H -4.827108 -4.954956 1.921441 0
M  V30 60 H -3.433560 -8.896933 1.603444 0
M  V30 61 H -2.027778 -7.531096 -0.025569 0
M  V30 62 H -2.198277 -5.740205 -1.888647 0
M  V30 63 H -1.430602 -3.647298 -3.049017 0
M  V30 64 H 1.721165 -1.474891 1.177321 0
M  V30 END ATOM
M  V30 BEGIN BOND
M  V30 1 1 1 2
M  V30 2 1 2 3
M  V30 3 2 3 4
M  V30 4 1 4 5
M  V30 5 2 5 6
M  V30 6 1 6 7
M  V30 7 1 7 8
M  V30 8 1 8 9
M  V30 9 1 9 10
M  V30 10 1 10 11
M  V30 11 1 11 12
M  V30 12 1 12 13
M  V30 13 1 13 14
M  V30 14 1 14 15
M  V30 15 1 15 16
M  V30 16 1 16 17
M  V30 17 1 17 18
M  V30 18 1 9 19
M  V30 19 2 19 20
M  V30 20 1 19 21
M  V30 21 1 21 22
M  V30 22 2 22 23
M  V30 23 1 23 24
M  V30 24 2 24 25
M  V30 25 1 25 26
M  V30 26 1 26 27
M  V30 27 2 27 28
M  V30 28 1 28 29
M  V30 29 1 29 30
M  V30 30 1 25 31
M  V30 31 2 31 32
M  V30 32 2 7 33
M  V30 33 1 33 3
M  V30 34 1 18 13
M  V30 35 1 32 22
M  V30 36 2 30 26
M  V30 37 1 1 34
M  V30 38 1 1 35
M  V30 39 1 1 36
M  V30 40 1 4 37
M  V30 41 1 5 38
M  V30 42 1 6 39
M  V30 43 1 8 40
M  V30 44 1 8 41
M  V30 45 1 10 42
M  V30 46 1 10 43
M  V30 47 1 11 44
M  V30 48 1 11 45
M  V30 49 1 12 46
M  V30 50 1 12 47
M  V30 51 1 14 48
M  V30 52 1 14 49
M  V30 53 1 15 50
M  V30 54 1 15 51
M  V30 55 1 17 52
M  V30 56 1 17 53
M  V30 57 1 18 54
M  V30 58 1 18 55
M  V30 59 1 21 56
M  V30 60 1 23 57
M  V30 61 1 24 58
M  V30 62 1 27 59
M  V30 63 1 29 60
M  V30 64 1 30 61
M  V30 65 1 31 62
M  V30 66 1 32 63
M  V30 67 1 33 64
M  V30 END BOND
M  V30 END CTAB
M  END
>  <Dataset>  (928) 
ChEMBL_Kinases

>  <Ligand_Instance>  (928) 
nan

>  <PDB_ID>  (928) 
nan

>  <Standardized_SMILES>  (928) 
COc1cccc(CN(CCCN2CCOCC2)C(=O)Nc2ccc(-c3cn[nH]c3)cc2)c1

>  <Name>  (928) 
nan

>  <Pocket>  (928) 
nan

>  <ATP_Site>  (928) 
nan

>  <Peripheral>  (928) 
nan

>  <Num_H_Atoms_ProtBoundConf>  (928) 
nan

>  <Num_Resolved_Atoms>  (928) 
nan

>  <Num_Not_Resolved_Atoms>  (928) 
nan

$$$$
CHEMBL2332074
     RDKit          3D

  0  0  0  0  0  0  0  0  0  0999 V3000
M  V30 BEGIN CTAB
M  V30 COUNTS 66 69 0 0 0
M  V30 BEGIN ATOM
M  V30 1 C 4.309295 -2.861698 -2.006068 0
M  V30 2 O 3.230848 -3.590970 -1.505515 0
M  V30 3 C 2.233655 -3.165848 -0.673647 0
M  V30 4 C 1.357873 -4.220207 -0.408919 0
M  V30 5 C 0.262928 -3.998353 0.430329 0
M  V30 6 C 0.117230 -2.738708 0.946729 0
M  V30 7 C 0.918312 -1.639447 0.746558 0
M  V30 8 C 0.808506 -0.299890 1.333800 0
M  V30 9 N -0.129200 0.616826 0.739666 0
M  V30 10 C -0.254762 1.637473 -0.282459 0
M  V30 11 C -0.806956 1.169878 -1.579231 0
M  V30 12 C -0.004643 0.171895 -2.337443 0
M  V30 13 N 1.305491 0.608900 -2.718802 0
M  V30 14 C 2.044317 -0.416274 -3.477083 0
M  V30 15 C 3.473051 0.060575 -3.587752 0
M  V30 16 C 3.583629 1.374753 -4.333256 0
M  V30 17 C 2.695614 2.369209 -3.630142 0
M  V30 18 C 1.301429 1.765339 -3.586551 0
M  V30 19 C -1.460425 0.695621 1.293047 0
M  V30 20 O -1.180856 -0.162967 2.233350 0
M  V30 21 N -2.790361 0.937061 1.642416 0
M  V30 22 C -3.172936 0.182251 2.789031 0
M  V30 23 C -2.954442 0.886033 3.953416 0
M  V30 24 C -3.284555 0.256911 5.145220 0
M  V30 25 C -3.801153 -1.018109 5.053101 0
M  V30 26 C -4.131157 -1.649296 6.324798 0
M  V30 27 C -4.577789 -1.100033 7.518208 0
M  V30 28 N -4.745918 -2.102345 8.426553 0
M  V30 29 N -4.415687 -3.258965 7.829201 0
M  V30 30 C -4.035089 -3.026421 6.546631 0
M  V30 31 C -4.001356 -1.683613 3.862518 0
M  V30 32 C -3.685692 -1.089158 2.660837 0
M  V30 33 C 1.999443 -1.933528 -0.106171 0
M  V30 34 H 4.243103 -2.852012 -3.115994 0
M  V30 35 H 5.258990 -3.439417 -1.796943 0
M  V30 36 H 4.384760 -1.844502 -1.567819 0
M  V30 37 H 1.429444 -5.233803 -0.796412 0
M  V30 38 H -0.441736 -4.803614 0.655177 0
M  V30 39 H -0.742448 -2.648302 1.586563 0
M  V30 40 H 0.573294 -0.355298 2.437944 0
M  V30 41 H 1.854350 0.156200 1.247127 0
M  V30 42 H 0.793052 2.032669 -0.528683 0
M  V30 43 H -0.793812 2.518814 0.094676 0
M  V30 44 H -1.013637 2.044316 -2.234429 0
M  V30 45 H -1.839812 0.717931 -1.442854 0
M  V30 46 H 0.002085 -0.837428 -1.868287 0
M  V30 47 H -0.567913 -0.003917 -3.308735 0
M  V30 48 H 2.046719 -1.373931 -2.959012 0
M  V30 49 H 1.622490 -0.492355 -4.507941 0
M  V30 50 H 4.109136 -0.692456 -4.110523 0
M  V30 51 H 3.919098 0.240331 -2.583927 0
M  V30 52 H 4.651654 1.698081 -4.181784 0
M  V30 53 H 3.419891 1.296354 -5.407711 0
M  V30 54 H 2.611623 3.302167 -4.215188 0
M  V30 55 H 3.082820 2.519088 -2.611049 0
M  V30 56 H 0.572892 2.521527 -3.265685 0
M  V30 57 H 1.104317 1.415206 -4.636549 0
M  V30 58 H -2.863784 1.603525 0.819602 0
M  V30 59 H -2.550110 1.882023 4.015641 0
M  V30 60 H -3.143476 0.746700 6.094121 0
M  V30 61 H -4.729376 -0.030361 7.586399 0
M  V30 62 H -4.440420 -4.211656 8.267761 0
M  V30 63 H -3.718396 -3.785055 5.844901 0
M  V30 64 H -4.411754 -2.693968 3.857134 0
M  V30 65 H -3.812955 -1.542118 1.693443 0
M  V30 66 H 2.738050 -1.205935 -0.386098 0
M  V30 END ATOM
M  V30 BEGIN BOND
M  V30 1 1 1 2
M  V30 2 1 2 3
M  V30 3 2 3 4
M  V30 4 1 4 5
M  V30 5 2 5 6
M  V30 6 1 6 7
M  V30 7 1 7 8
M  V30 8 1 8 9
M  V30 9 1 9 10
M  V30 10 1 10 11
M  V30 11 1 11 12
M  V30 12 1 12 13
M  V30 13 1 13 14
M  V30 14 1 14 15
M  V30 15 1 15 16
M  V30 16 1 16 17
M  V30 17 1 17 18
M  V30 18 1 9 19
M  V30 19 2 19 20
M  V30 20 1 19 21
M  V30 21 1 21 22
M  V30 22 2 22 23
M  V30 23 1 23 24
M  V30 24 2 24 25
M  V30 25 1 25 26
M  V30 26 1 26 27
M  V30 27 2 27 28
M  V30 28 1 28 29
M  V30 29 1 29 30
M  V30 30 1 25 31
M  V30 31 2 31 32
M  V30 32 2 7 33
M  V30 33 1 33 3
M  V30 34 1 18 13
M  V30 35 1 32 22
M  V30 36 2 30 26
M  V30 37 1 1 34
M  V30 38 1 1 35
M  V30 39 1 1 36
M  V30 40 1 4 37
M  V30 41 1 5 38
M  V30 42 1 6 39
M  V30 43 1 8 40
M  V30 44 1 8 41
M  V30 45 1 10 42
M  V30 46 1 10 43
M  V30 47 1 11 44
M  V30 48 1 11 45
M  V30 49 1 12 46
M  V30 50 1 12 47
M  V30 51 1 14 48
M  V30 52 1 14 49
M  V30 53 1 15 50
M  V30 54 1 15 51
M  V30 55 1 16 52
M  V30 56 1 16 53
M  V30 57 1 17 54
M  V30 58 1 17 55
M  V30 59 1 18 56
M  V30 60 1 18 57
M  V30 61 1 21 58
M  V30 62 1 23 59
M  V30 63 1 24 60
M  V30 64 1 27 61
M  V30 65 1 29 62
M  V30 66 1 30 63
M  V30 67 1 31 64
M  V30 68 1 32 65
M  V30 69 1 33 66
M  V30 END BOND
M  V30 END CTAB
M  END
>  <Dataset>  (929) 
ChEMBL_Kinases

>  <Ligand_Instance>  (929) 
nan

>  <PDB_ID>  (929) 
nan

>  <Standardized_SMILES>  (929) 
COc1cccc(CN(CCCN2CCCCC2)C(=O)Nc2ccc(-c3cn[nH]c3)cc2)c1

>  <Name>  (929) 
nan

>  <Pocket>  (929) 
nan

>  <ATP_Site>  (929) 
nan

>  <Peripheral>  (929) 
nan

>  <Num_H_Atoms_ProtBoundConf>  (929) 
nan

>  <Num_Resolved_Atoms>  (929) 
nan

>  <Num_Not_Resolved_Atoms>  (929) 
nan

$$$$
CHEMBL2332075
     RDKit          3D

  0  0  0  0  0  0  0  0  0  0999 V3000
M  V30 BEGIN CTAB
M  V30 COUNTS 45 47 0 0 0
M  V30 BEGIN ATOM
M  V30 1 O 1.184425 -1.350137 0.098858 0
M  V30 2 C 0.823947 -1.261826 1.323853 0
M  V30 3 N 0.848617 -0.026674 2.015522 0
M  V30 4 C 1.323955 0.939499 1.068381 0
M  V30 5 C 2.692551 1.124039 1.027010 0
M  V30 6 C 3.175853 2.049543 0.121575 0
M  V30 7 C 2.258847 2.723165 -0.676299 0
M  V30 8 C 2.846078 3.692808 -1.615977 0
M  V30 9 C 3.976499 4.475578 -1.500421 0
M  V30 10 N 4.066581 5.192883 -2.655853 0
M  V30 11 N 3.049006 4.873601 -3.445192 0
M  V30 12 C 2.265535 3.954826 -2.856142 0
M  V30 13 C 0.892731 2.531388 -0.627152 0
M  V30 14 C 0.407900 1.605239 0.278853 0
M  V30 15 F -0.916051 1.338357 0.410204 0
M  V30 16 N 0.464706 -2.615119 1.645535 0
M  V30 17 C 0.631217 -3.548731 0.569317 0
M  V30 18 C -0.563656 -3.707964 -0.327224 0
M  V30 19 O -0.940677 -2.541171 -0.942904 0
M  V30 20 C -0.014590 -2.931472 2.970281 0
M  V30 21 C -1.473646 -2.855879 3.130261 0
M  V30 22 C -2.291676 -3.971772 2.912847 0
M  V30 23 C -3.648922 -4.008430 3.035165 0
M  V30 24 C -4.291704 -2.848178 3.406532 0
M  V30 25 C -3.568618 -1.709699 3.639223 0
M  V30 26 C -2.198296 -1.744244 3.496671 0
M  V30 27 H 0.517785 -0.207187 2.986629 0
M  V30 28 H 3.350025 0.567594 1.674930 0
M  V30 29 H 4.238972 2.221482 0.059871 0
M  V30 30 H 4.546461 4.391116 -0.589887 0
M  V30 31 H 2.864925 5.270100 -4.395687 0
M  V30 32 H 1.376979 3.536825 -3.297596 0
M  V30 33 H 0.212776 3.076587 -1.266020 0
M  V30 34 H 1.509671 -3.237523 -0.030220 0
M  V30 35 H 0.911690 -4.522857 1.056214 0
M  V30 36 H -0.259123 -4.426847 -1.145164 0
M  V30 37 H -1.389909 -4.206033 0.191999 0
M  V30 38 H -1.710095 -2.646672 -1.551913 0
M  V30 39 H 0.304413 -3.988859 3.195839 0
M  V30 40 H 0.492047 -2.274830 3.731915 0
M  V30 41 H -1.824738 -4.907927 2.618189 0
M  V30 42 H -4.211708 -4.907971 2.850500 0
M  V30 43 H -5.366001 -2.857576 3.508568 0
M  V30 44 H -4.069290 -0.802262 3.929402 0
M  V30 45 H -1.666660 -0.829795 3.689655 0
M  V30 END ATOM
M  V30 BEGIN BOND
M  V30 1 2 1 2
M  V30 2 1 2 3
M  V30 3 1 3 4
M  V30 4 2 4 5
M  V30 5 1 5 6
M  V30 6 2 6 7
M  V30 7 1 7 8
M  V30 8 1 8 9
M  V30 9 2 9 10
M  V30 10 1 10 11
M  V30 11 1 11 12
M  V30 12 1 7 13
M  V30 13 2 13 14
M  V30 14 1 14 15
M  V30 15 1 2 16
M  V30 16 1 16 17
M  V30 17 1 17 18
M  V30 18 1 18 19
M  V30 19 1 16 20
M  V30 20 1 20 21
M  V30 21 2 21 22
M  V30 22 1 22 23
M  V30 23 2 23 24
M  V30 24 1 24 25
M  V30 25 2 25 26
M  V30 26 1 14 4
M  V30 27 1 26 21
M  V30 28 2 12 8
M  V30 29 1 3 27
M  V30 30 1 5 28
M  V30 31 1 6 29
M  V30 32 1 9 30
M  V30 33 1 11 31
M  V30 34 1 12 32
M  V30 35 1 13 33
M  V30 36 1 17 34
M  V30 37 1 17 35
M  V30 38 1 18 36
M  V30 39 1 18 37
M  V30 40 1 19 38
M  V30 41 1 20 39
M  V30 42 1 20 40
M  V30 43 1 22 41
M  V30 44 1 23 42
M  V30 45 1 24 43
M  V30 46 1 25 44
M  V30 47 1 26 45
M  V30 END BOND
M  V30 END CTAB
M  END
>  <Dataset>  (930) 
ChEMBL_Kinases

>  <Ligand_Instance>  (930) 
nan

>  <PDB_ID>  (930) 
nan

>  <Standardized_SMILES>  (930) 
O=C(Nc1ccc(-c2cn[nH]c2)cc1F)N(CCO)Cc1ccccc1

>  <Name>  (930) 
nan

>  <Pocket>  (930) 
nan

>  <ATP_Site>  (930) 
nan

>  <Peripheral>  (930) 
nan

>  <Num_H_Atoms_ProtBoundConf>  (930) 
nan

>  <Num_Resolved_Atoms>  (930) 
nan

>  <Num_Not_Resolved_Atoms>  (930) 
nan

$$$$
CHEMBL2332077
     RDKit          3D

  0  0  0  0  0  0  0  0  0  0999 V3000
M  V30 BEGIN CTAB
M  V30 COUNTS 35 37 0 0 0
M  V30 BEGIN ATOM
M  V30 1 O 0.683517 -1.544972 0.809992 0
M  V30 2 C 1.582872 -1.105335 1.582455 0
M  V30 3 N 2.511264 -2.066458 2.125976 0
M  V30 4 C 2.356336 -3.452805 1.757881 0
M  V30 5 C 2.991955 -3.961812 0.656343 0
M  V30 6 C 2.779716 -5.317197 0.381424 0
M  V30 7 C 1.973221 -6.059209 1.194281 0
M  V30 8 C 1.330216 -5.553114 2.304897 0
M  V30 9 C 1.543529 -4.209393 2.573415 0
M  V30 10 N 1.571428 0.287492 1.823534 0
M  V30 11 C 0.512351 0.985910 1.132118 0
M  V30 12 C 0.795432 1.467449 -0.143783 0
M  V30 13 C -0.213999 2.135531 -0.807731 0
M  V30 14 C -1.433012 2.292363 -0.188801 0
M  V30 15 C -2.504943 3.007465 -0.906096 0
M  V30 16 C -3.844469 2.707063 -0.723494 0
M  V30 17 N -4.619187 3.504783 -1.495707 0
M  V30 18 N -3.786203 4.289788 -2.149808 0
M  V30 19 C -2.498607 4.030804 -1.830392 0
M  V30 20 C -1.672877 1.801185 1.074018 0
M  V30 21 C -0.698433 1.125304 1.782610 0
M  V30 22 H 3.243700 -1.643727 2.766538 0
M  V30 23 H 3.600867 -3.263306 0.100892 0
M  V30 24 H 3.300108 -5.683771 -0.499279 0
M  V30 25 H 1.823792 -7.112227 0.959092 0
M  V30 26 H 0.708034 -6.211465 2.895849 0
M  V30 27 H 1.034370 -3.820411 3.447850 0
M  V30 28 H 2.340043 0.619030 2.475754 0
M  V30 29 H 1.775897 1.310420 -0.574008 0
M  V30 30 H 0.009597 2.508790 -1.800229 0
M  V30 31 H -4.248136 1.940752 -0.057798 0
M  V30 32 H -4.045794 5.026841 -2.833061 0
M  V30 33 H -1.576402 4.472541 -2.168394 0
M  V30 34 H -2.632610 1.912761 1.587257 0
M  V30 35 H -0.799408 0.707474 2.775691 0
M  V30 END ATOM
M  V30 BEGIN BOND
M  V30 1 2 1 2
M  V30 2 1 2 3
M  V30 3 1 3 4
M  V30 4 2 4 5
M  V30 5 1 5 6
M  V30 6 2 6 7
M  V30 7 1 7 8
M  V30 8 2 8 9
M  V30 9 1 2 10
M  V30 10 1 10 11
M  V30 11 2 11 12
M  V30 12 1 12 13
M  V30 13 2 13 14
M  V30 14 1 14 15
M  V30 15 1 15 16
M  V30 16 2 16 17
M  V30 17 1 17 18
M  V30 18 1 18 19
M  V30 19 1 14 20
M  V30 20 2 20 21
M  V30 21 1 9 4
M  V30 22 1 21 11
M  V30 23 2 19 15
M  V30 24 1 3 22
M  V30 25 1 5 23
M  V30 26 1 6 24
M  V30 27 1 7 25
M  V30 28 1 8 26
M  V30 29 1 9 27
M  V30 30 1 10 28
M  V30 31 1 12 29
M  V30 32 1 13 30
M  V30 33 1 16 31
M  V30 34 1 18 32
M  V30 35 1 19 33
M  V30 36 1 20 34
M  V30 37 1 21 35
M  V30 END BOND
M  V30 END CTAB
M  END
>  <Dataset>  (931) 
ChEMBL_Kinases

>  <Ligand_Instance>  (931) 
nan

>  <PDB_ID>  (931) 
nan

>  <Standardized_SMILES>  (931) 
O=C(Nc1ccccc1)Nc1ccc(-c2cn[nH]c2)cc1

>  <Name>  (931) 
nan

>  <Pocket>  (931) 
nan

>  <ATP_Site>  (931) 
nan

>  <Peripheral>  (931) 
nan

>  <Num_H_Atoms_ProtBoundConf>  (931) 
nan

>  <Num_Resolved_Atoms>  (931) 
nan

>  <Num_Not_Resolved_Atoms>  (931) 
nan

$$$$
CHEMBL2332078
     RDKit          3D

  0  0  0  0  0  0  0  0  0  0999 V3000
M  V30 BEGIN CTAB
M  V30 COUNTS 41 43 0 0 0
M  V30 BEGIN ATOM
M  V30 1 O 0.898862 -1.766289 1.250033 0
M  V30 2 C 2.118236 -1.839606 1.513773 0
M  V30 3 N 2.797470 -3.048858 1.245593 0
M  V30 4 C 2.391395 -4.296629 0.673996 0
M  V30 5 C 1.965402 -4.301927 -0.739769 0
M  V30 6 C 0.862312 -3.474560 -1.173764 0
M  V30 7 C -0.494534 -3.805886 -1.071014 0
M  V30 8 C -1.532683 -3.023954 -1.531177 0
M  V30 9 C -1.241358 -1.831115 -2.136834 0
M  V30 10 C 0.067950 -1.444560 -2.270888 0
M  V30 11 C 1.086809 -2.239597 -1.804930 0
M  V30 12 N 2.666449 -0.652553 2.065580 0
M  V30 13 C 1.613738 0.334629 2.165063 0
M  V30 14 C 0.847895 0.398858 3.330774 0
M  V30 15 C -0.145043 1.379713 3.337857 0
M  V30 16 C -0.356905 2.229584 2.265925 0
M  V30 17 C -1.429613 3.217721 2.390061 0
M  V30 18 C -2.574592 2.947846 3.131436 0
M  V30 19 N -3.414730 4.013047 3.094911 0
M  V30 20 N -2.808682 4.911879 2.355111 0
M  V30 21 C -1.612469 4.483358 1.907058 0
M  V30 22 C 0.433052 2.120239 1.136056 0
M  V30 23 C 1.434556 1.163484 1.074252 0
M  V30 24 H 3.813388 -2.937740 1.557011 0
M  V30 25 H 3.269877 -5.007329 0.742198 0
M  V30 26 H 1.635998 -4.801104 1.350938 0
M  V30 27 H 1.765439 -5.372368 -1.067361 0
M  V30 28 H 2.858743 -4.024125 -1.374812 0
M  V30 29 H -0.739704 -4.745453 -0.594913 0
M  V30 30 H -2.559451 -3.307012 -1.436412 0
M  V30 31 H -1.947296 -1.124495 -2.540798 0
M  V30 32 H 0.409739 -0.512039 -2.738333 0
M  V30 33 H 2.143472 -1.952084 -1.900490 0
M  V30 34 H 3.703545 -0.683316 2.301486 0
M  V30 35 H 1.015758 -0.264000 4.163064 0
M  V30 36 H -0.757606 1.444351 4.248139 0
M  V30 37 H -2.890508 2.068580 3.705928 0
M  V30 38 H -3.215497 5.853040 2.142021 0
M  V30 39 H -0.871010 4.963335 1.286850 0
M  V30 40 H 0.266218 2.783980 0.302006 0
M  V30 41 H 2.078211 1.046908 0.199455 0
M  V30 END ATOM
M  V30 BEGIN BOND
M  V30 1 2 1 2
M  V30 2 1 2 3
M  V30 3 1 3 4
M  V30 4 1 4 5
M  V30 5 1 5 6
M  V30 6 2 6 7
M  V30 7 1 7 8
M  V30 8 2 8 9
M  V30 9 1 9 10
M  V30 10 2 10 11
M  V30 11 1 2 12
M  V30 12 1 12 13
M  V30 13 2 13 14
M  V30 14 1 14 15
M  V30 15 2 15 16
M  V30 16 1 16 17
M  V30 17 1 17 18
M  V30 18 2 18 19
M  V30 19 1 19 20
M  V30 20 1 20 21
M  V30 21 1 16 22
M  V30 22 2 22 23
M  V30 23 1 11 6
M  V30 24 1 23 13
M  V30 25 2 21 17
M  V30 26 1 3 24
M  V30 27 1 4 25
M  V30 28 1 4 26
M  V30 29 1 5 27
M  V30 30 1 5 28
M  V30 31 1 7 29
M  V30 32 1 8 30
M  V30 33 1 9 31
M  V30 34 1 10 32
M  V30 35 1 11 33
M  V30 36 1 12 34
M  V30 37 1 14 35
M  V30 38 1 15 36
M  V30 39 1 18 37
M  V30 40 1 20 38
M  V30 41 1 21 39
M  V30 42 1 22 40
M  V30 43 1 23 41
M  V30 END BOND
M  V30 END CTAB
M  END
>  <Dataset>  (932) 
ChEMBL_Kinases

>  <Ligand_Instance>  (932) 
nan

>  <PDB_ID>  (932) 
nan

>  <Standardized_SMILES>  (932) 
O=C(NCCc1ccccc1)Nc1ccc(-c2cn[nH]c2)cc1

>  <Name>  (932) 
nan

>  <Pocket>  (932) 
nan

>  <ATP_Site>  (932) 
nan

>  <Peripheral>  (932) 
nan

>  <Num_H_Atoms_ProtBoundConf>  (932) 
nan

>  <Num_Resolved_Atoms>  (932) 
nan

>  <Num_Not_Resolved_Atoms>  (932) 
nan

$$$$
CHEMBL2332088
     RDKit          3D

  0  0  0  0  0  0  0  0  0  0999 V3000
M  V30 BEGIN CTAB
M  V30 COUNTS 46 48 0 0 0
M  V30 BEGIN ATOM
M  V30 1 C 4.100354 -3.339608 3.651016 0
M  V30 2 O 3.604645 -2.071555 3.354856 0
M  V30 3 C 3.757068 -1.380954 2.173074 0
M  V30 4 C 4.450079 -1.880186 1.085901 0
M  V30 5 C 4.561027 -1.126072 -0.071095 0
M  V30 6 C 3.987433 0.123446 -0.156747 0
M  V30 7 C 3.286017 0.645279 0.924454 0
M  V30 8 O 2.749421 1.890369 0.757062 0
M  V30 9 C 2.863974 2.658251 -0.422237 0
M  V30 10 C 3.168767 -0.109244 2.096775 0
M  V30 11 C 2.429481 0.449797 3.241033 0
M  V30 12 N 1.120503 -0.131666 3.445719 0
M  V30 13 C 0.036556 -0.144808 2.554673 0
M  V30 14 O 0.142474 0.392848 1.424277 0
M  V30 15 N -1.233700 -0.732165 2.808584 0
M  V30 16 C -2.121195 -0.569059 1.682107 0
M  V30 17 C -2.010667 -1.629258 0.804855 0
M  V30 18 C -2.767685 -1.701476 -0.364392 0
M  V30 19 C -3.638549 -0.651491 -0.600358 0
M  V30 20 C -4.506330 -0.582858 -1.792534 0
M  V30 21 C -4.957217 0.528275 -2.477872 0
M  V30 22 N -5.718070 0.083931 -3.493820 0
M  V30 23 N -5.758153 -1.237921 -3.468367 0
M  V30 24 C -5.017698 -1.714527 -2.424551 0
M  V30 25 C -3.756640 0.417062 0.274518 0
M  V30 26 C -2.994242 0.470707 1.433232 0
M  V30 27 H 4.436835 -3.924720 2.795396 0
M  V30 28 H 4.968901 -3.183670 4.346239 0
M  V30 29 H 3.342533 -3.934907 4.232056 0
M  V30 30 H 4.909058 -2.857905 1.130216 0
M  V30 31 H 5.102555 -1.499751 -0.939402 0
M  V30 32 H 4.096222 0.683068 -1.079529 0
M  V30 33 H 3.922619 2.959722 -0.500794 0
M  V30 34 H 2.237137 3.579678 -0.317355 0
M  V30 35 H 2.505764 2.120459 -1.330168 0
M  V30 36 H 2.381211 1.556291 3.137742 0
M  V30 37 H 3.023651 0.240185 4.155690 0
M  V30 38 H 0.867151 -0.627377 4.352817 0
M  V30 39 H -1.380739 -1.199085 3.744481 0
M  V30 40 H -1.350794 -2.493848 0.917915 0
M  V30 41 H -2.743569 -2.483433 -1.093776 0
M  V30 42 H -4.724779 1.558502 -2.219783 0
M  V30 43 H -6.240416 -1.949313 -4.087460 0
M  V30 44 H -4.831684 -2.731339 -2.108237 0
M  V30 45 H -4.423022 1.246211 0.119471 0
M  V30 46 H -2.987989 1.237645 2.192217 0
M  V30 END ATOM
M  V30 BEGIN BOND
M  V30 1 1 1 2
M  V30 2 1 2 3
M  V30 3 2 3 4
M  V30 4 1 4 5
M  V30 5 2 5 6
M  V30 6 1 6 7
M  V30 7 1 7 8
M  V30 8 1 8 9
M  V30 9 2 7 10
M  V30 10 1 10 11
M  V30 11 1 11 12
M  V30 12 1 12 13
M  V30 13 2 13 14
M  V30 14 1 13 15
M  V30 15 1 15 16
M  V30 16 2 16 17
M  V30 17 1 17 18
M  V30 18 2 18 19
M  V30 19 1 19 20
M  V30 20 1 20 21
M  V30 21 2 21 22
M  V30 22 1 22 23
M  V30 23 1 23 24
M  V30 24 1 19 25
M  V30 25 2 25 26
M  V30 26 1 10 3
M  V30 27 1 26 16
M  V30 28 2 24 20
M  V30 29 1 1 27
M  V30 30 1 1 28
M  V30 31 1 1 29
M  V30 32 1 4 30
M  V30 33 1 5 31
M  V30 34 1 6 32
M  V30 35 1 9 33
M  V30 36 1 9 34
M  V30 37 1 9 35
M  V30 38 1 11 36
M  V30 39 1 11 37
M  V30 40 1 12 38
M  V30 41 1 15 39
M  V30 42 1 17 40
M  V30 43 1 18 41
M  V30 44 1 21 42
M  V30 45 1 23 43
M  V30 46 1 24 44
M  V30 47 1 25 45
M  V30 48 1 26 46
M  V30 END BOND
M  V30 END CTAB
M  END
>  <Dataset>  (933) 
ChEMBL_Kinases

>  <Ligand_Instance>  (933) 
nan

>  <PDB_ID>  (933) 
nan

>  <Standardized_SMILES>  (933) 
COc1cccc(OC)c1CNC(=O)Nc1ccc(-c2cn[nH]c2)cc1

>  <Name>  (933) 
nan

>  <Pocket>  (933) 
nan

>  <ATP_Site>  (933) 
nan

>  <Peripheral>  (933) 
nan

>  <Num_H_Atoms_ProtBoundConf>  (933) 
nan

>  <Num_Resolved_Atoms>  (933) 
nan

>  <Num_Not_Resolved_Atoms>  (933) 
nan

$$$$
CHEMBL2332080
     RDKit          3D

  0  0  0  0  0  0  0  0  0  0999 V3000
M  V30 BEGIN CTAB
M  V30 COUNTS 37 39 0 0 0
M  V30 BEGIN ATOM
M  V30 1 O -0.284329 0.493675 1.352294 0
M  V30 2 C -0.358619 0.123655 2.532892 0
M  V30 3 N 0.762326 -0.674141 2.905436 0
M  V30 4 C 1.682034 -0.835256 1.804580 0
M  V30 5 C 1.452869 -1.922953 0.984123 0
M  V30 6 C 2.273775 -2.173053 -0.102991 0
M  V30 7 C 3.317023 -1.302123 -0.330288 0
M  V30 8 C 4.203204 -1.529847 -1.464365 0
M  V30 9 C 3.728530 -2.108957 -2.629602 0
M  V30 10 N 4.764096 -2.198522 -3.508934 0
M  V30 11 N 5.856476 -1.705919 -2.952111 0
M  V30 12 C 5.546652 -1.286025 -1.694845 0
M  V30 13 C 3.571196 -0.211654 0.466926 0
M  V30 14 C 2.742548 0.023385 1.547393 0
M  V30 15 O -1.363993 0.414898 3.406802 0
M  V30 16 C -2.488481 1.199174 3.067895 0
M  V30 17 C -3.299858 0.626040 1.958766 0
M  V30 18 C -3.228861 0.903831 0.618491 0
M  V30 19 C -4.054168 0.259718 -0.274933 0
M  V30 20 C -4.995898 -0.693438 0.100296 0
M  V30 21 C -5.076000 -0.977350 1.428985 0
M  V30 22 C -4.242363 -0.325590 2.321905 0
M  V30 23 H 0.856611 -1.074110 3.884574 0
M  V30 24 H 0.621956 -2.615486 1.165621 0
M  V30 25 H 2.113954 -3.022397 -0.762375 0
M  V30 26 H 2.769626 -2.481932 -2.968440 0
M  V30 27 H 6.835038 -1.599339 -3.300743 0
M  V30 28 H 6.113912 -0.828335 -0.895598 0
M  V30 29 H 4.393449 0.463376 0.277090 0
M  V30 30 H 2.873066 0.859214 2.224588 0
M  V30 31 H -2.172851 2.248420 2.823982 0
M  V30 32 H -3.144427 1.251140 3.961272 0
M  V30 33 H -2.503370 1.649815 0.331033 0
M  V30 34 H -3.895059 0.573570 -1.319031 0
M  V30 35 H -5.598665 -1.147112 -0.656800 0
M  V30 36 H -5.800777 -1.720583 1.775108 0
M  V30 37 H -4.372975 -0.612217 3.363973 0
M  V30 END ATOM
M  V30 BEGIN BOND
M  V30 1 2 1 2
M  V30 2 1 2 3
M  V30 3 1 3 4
M  V30 4 2 4 5
M  V30 5 1 5 6
M  V30 6 2 6 7
M  V30 7 1 7 8
M  V30 8 1 8 9
M  V30 9 2 9 10
M  V30 10 1 10 11
M  V30 11 1 11 12
M  V30 12 1 7 13
M  V30 13 2 13 14
M  V30 14 1 2 15
M  V30 15 1 15 16
M  V30 16 1 16 17
M  V30 17 2 17 18
M  V30 18 1 18 19
M  V30 19 2 19 20
M  V30 20 1 20 21
M  V30 21 2 21 22
M  V30 22 1 14 4
M  V30 23 1 22 17
M  V30 24 2 12 8
M  V30 25 1 3 23
M  V30 26 1 5 24
M  V30 27 1 6 25
M  V30 28 1 9 26
M  V30 29 1 11 27
M  V30 30 1 12 28
M  V30 31 1 13 29
M  V30 32 1 14 30
M  V30 33 1 16 31
M  V30 34 1 16 32
M  V30 35 1 18 33
M  V30 36 1 19 34
M  V30 37 1 20 35
M  V30 38 1 21 36
M  V30 39 1 22 37
M  V30 END BOND
M  V30 END CTAB
M  END
>  <Dataset>  (934) 
ChEMBL_Kinases

>  <Ligand_Instance>  (934) 
nan

>  <PDB_ID>  (934) 
nan

>  <Standardized_SMILES>  (934) 
O=C(Nc1ccc(-c2cn[nH]c2)cc1)OCc1ccccc1

>  <Name>  (934) 
nan

>  <Pocket>  (934) 
nan

>  <ATP_Site>  (934) 
nan

>  <Peripheral>  (934) 
nan

>  <Num_H_Atoms_ProtBoundConf>  (934) 
nan

>  <Num_Resolved_Atoms>  (934) 
nan

>  <Num_Not_Resolved_Atoms>  (934) 
nan

$$$$
CHEMBL2332081
     RDKit          3D

  0  0  0  0  0  0  0  0  0  0999 V3000
M  V30 BEGIN CTAB
M  V30 COUNTS 40 42 0 0 0
M  V30 BEGIN ATOM
M  V30 1 O -1.129513 -0.173154 1.887474 0
M  V30 2 C -0.260168 0.065004 2.752689 0
M  V30 3 N 1.019133 -0.489599 2.507918 0
M  V30 4 C 1.506238 -1.281126 1.442035 0
M  V30 5 C 2.820943 -1.699436 1.432720 0
M  V30 6 C 3.349454 -2.469732 0.425210 0
M  V30 7 C 2.586252 -2.874578 -0.649030 0
M  V30 8 C 3.171652 -3.691151 -1.705831 0
M  V30 9 C 2.469469 -4.621439 -2.435611 0
M  V30 10 N 3.365131 -5.160993 -3.310161 0
M  V30 11 N 4.544276 -4.589984 -3.121424 0
M  V30 12 C 4.486538 -3.678157 -2.147714 0
M  V30 13 C 1.264443 -2.479332 -0.681596 0
M  V30 14 C 0.780861 -1.707108 0.352521 0
M  V30 15 O -0.516294 0.813387 3.870565 0
M  V30 16 C -1.691619 1.429646 4.227658 0
M  V30 17 C -2.181510 2.597860 3.460433 0
M  V30 18 C -2.416845 2.417199 2.046058 0
M  V30 19 C -1.383327 2.821861 1.195883 0
M  V30 20 C -1.607561 2.654666 -0.175707 0
M  V30 21 C -2.771691 2.123756 -0.690220 0
M  V30 22 C -3.772048 1.734981 0.189688 0
M  V30 23 C -3.599847 1.879311 1.554777 0
M  V30 24 H 1.735411 -0.266934 3.264456 0
M  V30 25 H 3.504559 -1.424245 2.248975 0
M  V30 26 H 4.383622 -2.768951 0.467550 0
M  V30 27 H 1.422380 -4.913960 -2.378995 0
M  V30 28 H 5.481583 -4.730730 -3.593226 0
M  V30 29 H 5.244336 -3.018399 -1.719979 0
M  V30 30 H 0.652755 -2.788167 -1.516456 0
M  V30 31 H -0.243384 -1.445428 0.253035 0
M  V30 32 H -2.506049 0.645427 4.361156 0
M  V30 33 H -1.541744 1.775588 5.305538 0
M  V30 34 H -3.167396 2.952391 3.913934 0
M  V30 35 H -1.460758 3.441500 3.680550 0
M  V30 36 H -0.448762 3.244328 1.536529 0
M  V30 37 H -0.873042 2.934389 -0.930940 0
M  V30 38 H -2.954030 1.991111 -1.738278 0
M  V30 39 H -4.705357 1.312679 -0.155933 0
M  V30 40 H -4.354613 1.589077 2.279575 0
M  V30 END ATOM
M  V30 BEGIN BOND
M  V30 1 2 1 2
M  V30 2 1 2 3
M  V30 3 1 3 4
M  V30 4 2 4 5
M  V30 5 1 5 6
M  V30 6 2 6 7
M  V30 7 1 7 8
M  V30 8 1 8 9
M  V30 9 2 9 10
M  V30 10 1 10 11
M  V30 11 1 11 12
M  V30 12 1 7 13
M  V30 13 2 13 14
M  V30 14 1 2 15
M  V30 15 1 15 16
M  V30 16 1 16 17
M  V30 17 1 17 18
M  V30 18 2 18 19
M  V30 19 1 19 20
M  V30 20 2 20 21
M  V30 21 1 21 22
M  V30 22 2 22 23
M  V30 23 1 14 4
M  V30 24 1 23 18
M  V30 25 2 12 8
M  V30 26 1 3 24
M  V30 27 1 5 25
M  V30 28 1 6 26
M  V30 29 1 9 27
M  V30 30 1 11 28
M  V30 31 1 12 29
M  V30 32 1 13 30
M  V30 33 1 14 31
M  V30 34 1 16 32
M  V30 35 1 16 33
M  V30 36 1 17 34
M  V30 37 1 17 35
M  V30 38 1 19 36
M  V30 39 1 20 37
M  V30 40 1 21 38
M  V30 41 1 22 39
M  V30 42 1 23 40
M  V30 END BOND
M  V30 END CTAB
M  END
>  <Dataset>  (935) 
ChEMBL_Kinases

>  <Ligand_Instance>  (935) 
nan

>  <PDB_ID>  (935) 
nan

>  <Standardized_SMILES>  (935) 
O=C(Nc1ccc(-c2cn[nH]c2)cc1)OCCc1ccccc1

>  <Name>  (935) 
nan

>  <Pocket>  (935) 
nan

>  <ATP_Site>  (935) 
nan

>  <Peripheral>  (935) 
nan

>  <Num_H_Atoms_ProtBoundConf>  (935) 
nan

>  <Num_Resolved_Atoms>  (935) 
nan

>  <Num_Not_Resolved_Atoms>  (935) 
nan

$$$$
CHEMBL2332082
     RDKit          3D

  0  0  0  0  0  0  0  0  0  0999 V3000
M  V30 BEGIN CTAB
M  V30 COUNTS 39 41 0 0 0
M  V30 BEGIN ATOM
M  V30 1 O 0.199520 -0.787641 -0.492130 0
M  V30 2 C -0.796595 -1.531403 -0.301282 0
M  V30 3 C -1.401471 -2.807103 -0.676724 0
M  V30 4 C -0.630085 -3.627681 -1.653861 0
M  V30 5 C 0.713145 -4.028912 -1.229564 0
M  V30 6 C 0.837191 -5.233463 -0.532504 0
M  V30 7 C 2.034840 -5.758697 -0.062115 0
M  V30 8 C 3.154183 -4.996871 -0.328638 0
M  V30 9 C 3.124593 -3.813579 -1.000180 0
M  V30 10 C 1.898120 -3.355983 -1.436759 0
M  V30 11 N -1.630186 -0.830237 0.648207 0
M  V30 12 C -1.219860 0.458371 1.156163 0
M  V30 13 C -1.548099 1.664313 0.564398 0
M  V30 14 C -1.128054 2.865920 1.094267 0
M  V30 15 C -0.359636 2.798575 2.251413 0
M  V30 16 C 0.090470 4.077436 2.822089 0
M  V30 17 C -0.475311 5.339342 2.845975 0
M  V30 18 N 0.334568 6.190512 3.496064 0
M  V30 19 N 1.400087 5.491539 3.882869 0
M  V30 20 C 1.288843 4.209455 3.493632 0
M  V30 21 C -0.008446 1.619016 2.875077 0
M  V30 22 C -0.445792 0.426807 2.318539 0
M  V30 23 H -2.428375 -2.676818 -1.123389 0
M  V30 24 H -1.543002 -3.427235 0.252770 0
M  V30 25 H -1.254003 -4.540994 -1.857784 0
M  V30 26 H -0.612854 -3.054563 -2.608724 0
M  V30 27 H -0.055497 -5.822701 -0.330672 0
M  V30 28 H 2.038341 -6.696502 0.467197 0
M  V30 29 H 4.117286 -5.388384 0.032072 0
M  V30 30 H 4.024440 -3.232596 -1.196386 0
M  V30 31 H 1.822878 -2.422305 -1.976500 0
M  V30 32 H -2.561919 -1.151585 1.048135 0
M  V30 33 H -2.150863 1.609045 -0.334689 0
M  V30 34 H -1.394015 3.797114 0.618219 0
M  V30 35 H -1.446577 5.460792 2.360606 0
M  V30 36 H 2.161216 5.951544 4.405875 0
M  V30 37 H 2.039316 3.482005 3.705579 0
M  V30 38 H 0.593918 1.634230 3.775960 0
M  V30 39 H -0.195351 -0.531566 2.772909 0
M  V30 END ATOM
M  V30 BEGIN BOND
M  V30 1 2 1 2
M  V30 2 1 2 3
M  V30 3 1 3 4
M  V30 4 1 4 5
M  V30 5 2 5 6
M  V30 6 1 6 7
M  V30 7 2 7 8
M  V30 8 1 8 9
M  V30 9 2 9 10
M  V30 10 1 2 11
M  V30 11 1 11 12
M  V30 12 2 12 13
M  V30 13 1 13 14
M  V30 14 2 14 15
M  V30 15 1 15 16
M  V30 16 1 16 17
M  V30 17 2 17 18
M  V30 18 1 18 19
M  V30 19 1 19 20
M  V30 20 1 15 21
M  V30 21 2 21 22
M  V30 22 1 10 5
M  V30 23 1 22 12
M  V30 24 2 20 16
M  V30 25 1 3 23
M  V30 26 1 3 24
M  V30 27 1 4 25
M  V30 28 1 4 26
M  V30 29 1 6 27
M  V30 30 1 7 28
M  V30 31 1 8 29
M  V30 32 1 9 30
M  V30 33 1 10 31
M  V30 34 1 11 32
M  V30 35 1 13 33
M  V30 36 1 14 34
M  V30 37 1 17 35
M  V30 38 1 19 36
M  V30 39 1 20 37
M  V30 40 1 21 38
M  V30 41 1 22 39
M  V30 END BOND
M  V30 END CTAB
M  END
>  <Dataset>  (936) 
ChEMBL_Kinases

>  <Ligand_Instance>  (936) 
nan

>  <PDB_ID>  (936) 
nan

>  <Standardized_SMILES>  (936) 
O=C(CCc1ccccc1)Nc1ccc(-c2cn[nH]c2)cc1

>  <Name>  (936) 
nan

>  <Pocket>  (936) 
nan

>  <ATP_Site>  (936) 
nan

>  <Peripheral>  (936) 
nan

>  <Num_H_Atoms_ProtBoundConf>  (936) 
nan

>  <Num_Resolved_Atoms>  (936) 
nan

>  <Num_Not_Resolved_Atoms>  (936) 
nan

$$$$
CHEMBL2332083
     RDKit          3D

  0  0  0  0  0  0  0  0  0  0999 V3000
M  V30 BEGIN CTAB
M  V30 COUNTS 42 45 0 0 0
M  V30 BEGIN ATOM
M  V30 1 O 1.546119 -0.187605 0.938326 0
M  V30 2 C 0.878085 -1.050358 1.605764 0
M  V30 3 N 0.323277 -2.194372 0.982826 0
M  V30 4 C 0.702340 -2.072156 -0.408667 0
M  V30 5 C 1.899261 -2.632065 -0.812431 0
M  V30 6 C 2.278480 -2.523779 -2.142602 0
M  V30 7 C 1.401124 -1.847051 -2.967071 0
M  V30 8 C 1.751844 -1.699544 -4.390338 0
M  V30 9 C 3.002834 -1.583656 -4.968829 0
M  V30 10 N 2.901111 -1.468369 -6.294433 0
M  V30 11 N 1.614948 -1.503305 -6.624406 0
M  V30 12 C 0.883098 -1.644359 -5.480051 0
M  V30 13 C 0.199400 -1.278330 -2.589910 0
M  V30 14 C -0.158298 -1.399239 -1.256804 0
M  V30 15 N 0.862019 -0.581123 2.969901 0
M  V30 16 C 1.571443 0.668312 3.164859 0
M  V30 17 C 0.483598 1.749622 3.190064 0
M  V30 18 C -0.579230 1.262086 4.127127 0
M  V30 19 C -1.507519 2.228934 4.491825 0
M  V30 20 C -2.555557 1.915735 5.362189 0
M  V30 21 C -2.688172 0.639709 5.875820 0
M  V30 22 C -1.749627 -0.306789 5.496898 0
M  V30 23 C -0.700607 -0.032090 4.638424 0
M  V30 24 C 0.305197 -1.048734 4.233757 0
M  V30 25 H -0.178209 -2.766241 1.693043 0
M  V30 26 H 2.559723 -3.158930 -0.120195 0
M  V30 27 H 3.198848 -2.933872 -2.536568 0
M  V30 28 H 3.924017 -1.591159 -4.375487 0
M  V30 29 H 1.264551 -1.431286 -7.605073 0
M  V30 30 H -0.184852 -1.701487 -5.446860 0
M  V30 31 H -0.428815 -0.764542 -3.302937 0
M  V30 32 H -1.086849 -0.972449 -0.914903 0
M  V30 33 H 2.237252 0.943853 2.334889 0
M  V30 34 H 2.152384 0.696805 4.109034 0
M  V30 35 H 0.858961 2.715367 3.564741 0
M  V30 36 H 0.080511 1.888350 2.178389 0
M  V30 37 H -1.508259 3.264905 4.153941 0
M  V30 38 H -3.285410 2.655984 5.655394 0
M  V30 39 H -3.498006 0.386791 6.551488 0
M  V30 40 H -1.827741 -1.324754 5.885776 0
M  V30 41 H -0.205708 -2.004801 4.080693 0
M  V30 42 H 1.127327 -1.106555 4.984109 0
M  V30 END ATOM
M  V30 BEGIN BOND
M  V30 1 2 1 2
M  V30 2 1 2 3
M  V30 3 1 3 4
M  V30 4 2 4 5
M  V30 5 1 5 6
M  V30 6 2 6 7
M  V30 7 1 7 8
M  V30 8 1 8 9
M  V30 9 2 9 10
M  V30 10 1 10 11
M  V30 11 1 11 12
M  V30 12 1 7 13
M  V30 13 2 13 14
M  V30 14 1 2 15
M  V30 15 1 15 16
M  V30 16 1 16 17
M  V30 17 1 17 18
M  V30 18 2 18 19
M  V30 19 1 19 20
M  V30 20 2 20 21
M  V30 21 1 21 22
M  V30 22 2 22 23
M  V30 23 1 23 24
M  V30 24 1 14 4
M  V30 25 1 24 15
M  V30 26 2 12 8
M  V30 27 1 23 18
M  V30 28 1 3 25
M  V30 29 1 5 26
M  V30 30 1 6 27
M  V30 31 1 9 28
M  V30 32 1 11 29
M  V30 33 1 12 30
M  V30 34 1 13 31
M  V30 35 1 14 32
M  V30 36 1 16 33
M  V30 37 1 16 34
M  V30 38 1 17 35
M  V30 39 1 17 36
M  V30 40 1 19 37
M  V30 41 1 20 38
M  V30 42 1 21 39
M  V30 43 1 22 40
M  V30 44 1 24 41
M  V30 45 1 24 42
M  V30 END BOND
M  V30 END CTAB
M  END
>  <Dataset>  (937) 
ChEMBL_Kinases

>  <Ligand_Instance>  (937) 
nan

>  <PDB_ID>  (937) 
nan

>  <Standardized_SMILES>  (937) 
O=C(Nc1ccc(-c2cn[nH]c2)cc1)N1CCc2ccccc2C1

>  <Name>  (937) 
nan

>  <Pocket>  (937) 
nan

>  <ATP_Site>  (937) 
nan

>  <Peripheral>  (937) 
nan

>  <Num_H_Atoms_ProtBoundConf>  (937) 
nan

>  <Num_Resolved_Atoms>  (937) 
nan

>  <Num_Not_Resolved_Atoms>  (937) 
nan

$$$$
CHEMBL2332084
     RDKit          3D

  0  0  0  0  0  0  0  0  0  0999 V3000
M  V30 BEGIN CTAB
M  V30 COUNTS 44 46 0 0 0
M  V30 BEGIN ATOM
M  V30 1 O 0.855295 -0.794822 1.584652 0
M  V30 2 C -0.058772 -1.287281 2.324020 0
M  V30 3 N -0.272516 -2.688099 2.499503 0
M  V30 4 C 0.575363 -3.671258 1.815491 0
M  V30 5 C 0.456995 -3.480472 0.308329 0
M  V30 6 C -0.946527 -3.666538 -0.137272 0
M  V30 7 C -0.960167 -4.383956 -1.462340 0
M  V30 8 C 0.084551 -3.683310 -2.341670 0
M  V30 9 C 1.417630 -4.246522 -1.866051 0
M  V30 10 C 1.331145 -4.523483 -0.351934 0
M  V30 11 N -0.833402 -0.261576 2.947692 0
M  V30 12 C -0.346624 1.043986 2.551868 0
M  V30 13 C 0.637066 1.667297 3.294153 0
M  V30 14 C 1.087957 2.919172 2.892061 0
M  V30 15 C 0.551227 3.524534 1.760662 0
M  V30 16 C 1.051732 4.852720 1.361502 0
M  V30 17 C 1.531762 5.923352 2.079407 0
M  V30 18 N 1.854910 6.895133 1.192880 0
M  V30 19 N 1.613091 6.513253 -0.028729 0
M  V30 20 C 1.114363 5.254790 0.023074 0
M  V30 21 C -0.433389 2.917990 1.004422 0
M  V30 22 C -0.871816 1.657228 1.428793 0
M  V30 23 H -1.082658 -2.856016 3.155336 0
M  V30 24 H 1.612020 -3.467480 2.128459 0
M  V30 25 H 0.245354 -4.661913 2.116460 0
M  V30 26 H 0.850508 -2.499528 -0.007730 0
M  V30 27 H -1.571959 -4.252459 0.564317 0
M  V30 28 H -1.447143 -2.672638 -0.244978 0
M  V30 29 H -0.675064 -5.433658 -1.375620 0
M  V30 30 H -1.964162 -4.324816 -1.930757 0
M  V30 31 H -0.100590 -3.815426 -3.405352 0
M  V30 32 H 0.005679 -2.606993 -2.092239 0
M  V30 33 H 2.223962 -3.515235 -2.011043 0
M  V30 34 H 1.562783 -5.219257 -2.347526 0
M  V30 35 H 0.948893 -5.537263 -0.151366 0
M  V30 36 H 2.380112 -4.484246 0.021031 0
M  V30 37 H -1.623064 -0.572154 3.586130 0
M  V30 38 H 1.064876 1.207885 4.177922 0
M  V30 39 H 1.853147 3.451483 3.432985 0
M  V30 40 H 1.582021 5.851264 3.160546 0
M  V30 41 H 1.774150 7.075965 -0.901533 0
M  V30 42 H 0.834477 4.723204 -0.900215 0
M  V30 43 H -0.868333 3.356482 0.127335 0
M  V30 44 H -1.647002 1.099841 0.894912 0
M  V30 END ATOM
M  V30 BEGIN BOND
M  V30 1 2 1 2
M  V30 2 1 2 3
M  V30 3 1 3 4
M  V30 4 1 4 5
M  V30 5 1 5 6
M  V30 6 1 6 7
M  V30 7 1 7 8
M  V30 8 1 8 9
M  V30 9 1 9 10
M  V30 10 1 2 11
M  V30 11 1 11 12
M  V30 12 2 12 13
M  V30 13 1 13 14
M  V30 14 2 14 15
M  V30 15 1 15 16
M  V30 16 1 16 17
M  V30 17 2 17 18
M  V30 18 1 18 19
M  V30 19 1 19 20
M  V30 20 1 15 21
M  V30 21 2 21 22
M  V30 22 1 10 5
M  V30 23 1 22 12
M  V30 24 2 20 16
M  V30 25 1 3 23
M  V30 26 1 4 24
M  V30 27 1 4 25
M  V30 28 1 5 26
M  V30 29 1 6 27
M  V30 30 1 6 28
M  V30 31 1 7 29
M  V30 32 1 7 30
M  V30 33 1 8 31
M  V30 34 1 8 32
M  V30 35 1 9 33
M  V30 36 1 9 34
M  V30 37 1 10 35
M  V30 38 1 10 36
M  V30 39 1 11 37
M  V30 40 1 13 38
M  V30 41 1 14 39
M  V30 42 1 17 40
M  V30 43 1 19 41
M  V30 44 1 20 42
M  V30 45 1 21 43
M  V30 46 1 22 44
M  V30 END BOND
M  V30 END CTAB
M  END
>  <Dataset>  (938) 
ChEMBL_Kinases

>  <Ligand_Instance>  (938) 
nan

>  <PDB_ID>  (938) 
nan

>  <Standardized_SMILES>  (938) 
O=C(NCC1CCCCC1)Nc1ccc(-c2cn[nH]c2)cc1

>  <Name>  (938) 
nan

>  <Pocket>  (938) 
nan

>  <ATP_Site>  (938) 
nan

>  <Peripheral>  (938) 
nan

>  <Num_H_Atoms_ProtBoundConf>  (938) 
nan

>  <Num_Resolved_Atoms>  (938) 
nan

>  <Num_Not_Resolved_Atoms>  (938) 
nan

$$$$
CHEMBL2332085
     RDKit          3D

  0  0  0  0  0  0  0  0  0  0999 V3000
M  V30 BEGIN CTAB
M  V30 COUNTS 46 48 0 0 0
M  V30 BEGIN ATOM
M  V30 1 C 1.109069 -5.754051 -0.325727 0
M  V30 2 O 0.553158 -4.628833 -0.973714 0
M  V30 3 C 1.403229 -3.589180 -1.340442 0
M  V30 4 C 2.751055 -3.703801 -1.054602 0
M  V30 5 C 3.689109 -2.747203 -1.365665 0
M  V30 6 C 3.234370 -1.612302 -1.999919 0
M  V30 7 C 1.896166 -1.467098 -2.297788 0
M  V30 8 C 1.465116 -0.186470 -2.918393 0
M  V30 9 N 1.233504 0.775675 -1.877877 0
M  V30 10 C 0.663981 1.236204 -0.707726 0
M  V30 11 O -0.080661 0.385488 -0.176595 0
M  V30 12 N 0.731446 2.442318 0.023220 0
M  V30 13 C -0.102006 2.276273 1.201306 0
M  V30 14 C 0.697709 1.789867 2.216534 0
M  V30 15 C 0.110665 1.535995 3.466005 0
M  V30 16 C -1.248433 1.792166 3.602503 0
M  V30 17 C -1.831979 1.524869 4.912865 0
M  V30 18 C -2.901191 2.230532 5.423518 0
M  V30 19 N -3.214225 1.762751 6.643728 0
M  V30 20 N -2.373946 0.768662 6.941349 0
M  V30 21 C -1.518667 0.598667 5.906332 0
M  V30 22 C -2.021361 2.278106 2.568618 0
M  V30 23 C -1.447230 2.528899 1.338601 0
M  V30 24 C 0.943129 -2.434021 -1.986612 0
M  V30 25 O -0.391224 -2.452525 -2.217167 0
M  V30 26 C -1.482254 -2.068478 -1.466920 0
M  V30 27 H 1.644462 -5.336203 0.573887 0
M  V30 28 H 1.870848 -6.242965 -0.960499 0
M  V30 29 H 0.309747 -6.448919 0.020255 0
M  V30 30 H 3.175266 -4.585937 -0.547910 0
M  V30 31 H 4.738521 -2.861162 -1.131745 0
M  V30 32 H 3.927078 -0.825398 -2.268647 0
M  V30 33 H 2.142334 0.149053 -3.696126 0
M  V30 34 H 0.430860 -0.356139 -3.375886 0
M  V30 35 H 1.837949 1.609767 -2.161388 0
M  V30 36 H 1.354988 3.166288 -0.446595 0
M  V30 37 H 1.760533 1.561573 2.204623 0
M  V30 38 H 0.685654 1.151029 4.314502 0
M  V30 39 H -3.416658 3.039057 4.923324 0
M  V30 40 H -2.366863 0.204653 7.828532 0
M  V30 41 H -0.705209 -0.101051 5.776215 0
M  V30 42 H -3.064482 2.477438 2.662145 0
M  V30 43 H -1.917700 2.904626 0.446007 0
M  V30 44 H -2.389901 -2.718978 -1.640604 0
M  V30 45 H -1.774758 -1.027442 -1.793059 0
M  V30 46 H -1.222898 -2.088269 -0.374562 0
M  V30 END ATOM
M  V30 BEGIN BOND
M  V30 1 1 1 2
M  V30 2 1 2 3
M  V30 3 2 3 4
M  V30 4 1 4 5
M  V30 5 2 5 6
M  V30 6 1 6 7
M  V30 7 1 7 8
M  V30 8 1 8 9
M  V30 9 1 9 10
M  V30 10 2 10 11
M  V30 11 1 10 12
M  V30 12 1 12 13
M  V30 13 2 13 14
M  V30 14 1 14 15
M  V30 15 2 15 16
M  V30 16 1 16 17
M  V30 17 1 17 18
M  V30 18 2 18 19
M  V30 19 1 19 20
M  V30 20 1 20 21
M  V30 21 1 16 22
M  V30 22 2 22 23
M  V30 23 2 7 24
M  V30 24 1 24 25
M  V30 25 1 25 26
M  V30 26 1 24 3
M  V30 27 1 23 13
M  V30 28 2 21 17
M  V30 29 1 1 27
M  V30 30 1 1 28
M  V30 31 1 1 29
M  V30 32 1 4 30
M  V30 33 1 5 31
M  V30 34 1 6 32
M  V30 35 1 8 33
M  V30 36 1 8 34
M  V30 37 1 9 35
M  V30 38 1 12 36
M  V30 39 1 14 37
M  V30 40 1 15 38
M  V30 41 1 18 39
M  V30 42 1 20 40
M  V30 43 1 21 41
M  V30 44 1 22 42
M  V30 45 1 23 43
M  V30 46 1 26 44
M  V30 47 1 26 45
M  V30 48 1 26 46
M  V30 END BOND
M  V30 END CTAB
M  END
>  <Dataset>  (939) 
ChEMBL_Kinases

>  <Ligand_Instance>  (939) 
nan

>  <PDB_ID>  (939) 
nan

>  <Standardized_SMILES>  (939) 
COc1cccc(CNC(=O)Nc2ccc(-c3cn[nH]c3)cc2)c1OC

>  <Name>  (939) 
nan

>  <Pocket>  (939) 
nan

>  <ATP_Site>  (939) 
nan

>  <Peripheral>  (939) 
nan

>  <Num_H_Atoms_ProtBoundConf>  (939) 
nan

>  <Num_Resolved_Atoms>  (939) 
nan

>  <Num_Not_Resolved_Atoms>  (939) 
nan

$$$$
CHEMBL2332086
     RDKit          3D

  0  0  0  0  0  0  0  0  0  0999 V3000
M  V30 BEGIN CTAB
M  V30 COUNTS 46 48 0 0 0
M  V30 BEGIN ATOM
M  V30 1 C -1.472998 -6.402046 0.197959 0
M  V30 2 O -1.948163 -5.338429 -0.602979 0
M  V30 3 C -1.089764 -4.378577 -1.075216 0
M  V30 4 C 0.270694 -4.218373 -0.917161 0
M  V30 5 C 0.920244 -3.151245 -1.501618 0
M  V30 6 C 0.266307 -2.206782 -2.257943 0
M  V30 7 C 1.013063 -1.084229 -2.869152 0
M  V30 8 N 0.742357 0.115743 -2.130843 0
M  V30 9 C 1.029666 0.289980 -0.756354 0
M  V30 10 O 1.552368 -0.688283 -0.182881 0
M  V30 11 N 0.767696 1.467867 -0.020278 0
M  V30 12 C 1.021956 1.722125 1.346896 0
M  V30 13 C 1.572406 0.888133 2.260727 0
M  V30 14 C 1.792967 1.203682 3.584305 0
M  V30 15 C 1.440179 2.452721 4.051658 0
M  V30 16 C 1.606448 2.936575 5.416976 0
M  V30 17 C 1.844222 4.241191 5.816090 0
M  V30 18 N 1.919818 4.182643 7.161131 0
M  V30 19 N 1.742151 2.931946 7.573373 0
M  V30 20 C 1.543108 2.117600 6.523543 0
M  V30 21 C 0.876419 3.328382 3.147477 0
M  V30 22 C 0.676151 2.965860 1.833770 0
M  V30 23 C -1.106879 -2.350207 -2.429694 0
M  V30 24 O -1.733968 -1.390994 -3.190634 0
M  V30 25 C -3.116818 -1.427083 -3.435925 0
M  V30 26 C -1.764869 -3.425244 -1.841618 0
M  V30 27 H -0.646289 -6.007835 0.823003 0
M  V30 28 H -1.174668 -7.252362 -0.445923 0
M  V30 29 H -2.295221 -6.760542 0.855561 0
M  V30 30 H 0.708200 -4.997948 -0.313074 0
M  V30 31 H 1.982873 -3.138668 -1.307524 0
M  V30 32 H 0.631936 -0.960830 -3.913715 0
M  V30 33 H 2.088785 -1.348148 -2.891212 0
M  V30 34 H 0.296951 0.945730 -2.623632 0
M  V30 35 H 0.332103 2.201844 -0.620124 0
M  V30 36 H 1.868675 -0.085638 1.978889 0
M  V30 37 H 2.228133 0.530709 4.285912 0
M  V30 38 H 1.941523 5.095396 5.159237 0
M  V30 39 H 1.746484 2.574373 8.565973 0
M  V30 40 H 1.371203 1.035622 6.589875 0
M  V30 41 H 0.580551 4.320350 3.457187 0
M  V30 42 H 0.221581 3.713398 1.166483 0
M  V30 43 H -3.731329 -1.472143 -2.498838 0
M  V30 44 H -3.344755 -2.304785 -4.071111 0
M  V30 45 H -3.445866 -0.504423 -3.952589 0
M  V30 46 H -2.837337 -3.413526 -2.058085 0
M  V30 END ATOM
M  V30 BEGIN BOND
M  V30 1 1 1 2
M  V30 2 1 2 3
M  V30 3 2 3 4
M  V30 4 1 4 5
M  V30 5 2 5 6
M  V30 6 1 6 7
M  V30 7 1 7 8
M  V30 8 1 8 9
M  V30 9 2 9 10
M  V30 10 1 9 11
M  V30 11 1 11 12
M  V30 12 2 12 13
M  V30 13 1 13 14
M  V30 14 2 14 15
M  V30 15 1 15 16
M  V30 16 1 16 17
M  V30 17 2 17 18
M  V30 18 1 18 19
M  V30 19 1 19 20
M  V30 20 1 15 21
M  V30 21 2 21 22
M  V30 22 1 6 23
M  V30 23 1 23 24
M  V30 24 1 24 25
M  V30 25 2 23 26
M  V30 26 1 26 3
M  V30 27 1 22 12
M  V30 28 2 20 16
M  V30 29 1 1 27
M  V30 30 1 1 28
M  V30 31 1 1 29
M  V30 32 1 4 30
M  V30 33 1 5 31
M  V30 34 1 7 32
M  V30 35 1 7 33
M  V30 36 1 8 34
M  V30 37 1 11 35
M  V30 38 1 13 36
M  V30 39 1 14 37
M  V30 40 1 17 38
M  V30 41 1 19 39
M  V30 42 1 20 40
M  V30 43 1 21 41
M  V30 44 1 22 42
M  V30 45 1 25 43
M  V30 46 1 25 44
M  V30 47 1 25 45
M  V30 48 1 26 46
M  V30 END BOND
M  V30 END CTAB
M  END
>  <Dataset>  (940) 
ChEMBL_Kinases

>  <Ligand_Instance>  (940) 
nan

>  <PDB_ID>  (940) 
nan

>  <Standardized_SMILES>  (940) 
COc1ccc(CNC(=O)Nc2ccc(-c3cn[nH]c3)cc2)c(OC)c1

>  <Name>  (940) 
nan

>  <Pocket>  (940) 
nan

>  <ATP_Site>  (940) 
nan

>  <Peripheral>  (940) 
nan

>  <Num_H_Atoms_ProtBoundConf>  (940) 
nan

>  <Num_Resolved_Atoms>  (940) 
nan

>  <Num_Not_Resolved_Atoms>  (940) 
nan

$$$$
CHEMBL2332087
     RDKit          3D

  0  0  0  0  0  0  0  0  0  0999 V3000
M  V30 BEGIN CTAB
M  V30 COUNTS 46 48 0 0 0
M  V30 BEGIN ATOM
M  V30 1 C 4.165098 -5.236366 3.260493 0
M  V30 2 O 4.143923 -4.528987 2.050310 0
M  V30 3 C 2.998019 -4.238812 1.366153 0
M  V30 4 C 1.779491 -4.650381 1.864753 0
M  V30 5 C 0.656304 -4.330894 1.133404 0
M  V30 6 C 0.705272 -3.633984 -0.044920 0
M  V30 7 O -0.422074 -3.321347 -0.778199 0
M  V30 8 C -1.709848 -3.695339 -0.360903 0
M  V30 9 C 1.891731 -3.195465 -0.590901 0
M  V30 10 C 2.155519 -2.389421 -1.804129 0
M  V30 11 N 2.035880 -0.988526 -1.486421 0
M  V30 12 C 1.150754 -0.023801 -1.017427 0
M  V30 13 O -0.000986 -0.384294 -0.734106 0
M  V30 14 N 1.372357 1.355380 -0.806185 0
M  V30 15 C 0.244355 2.065527 -0.307660 0
M  V30 16 C 0.248165 2.057096 1.093902 0
M  V30 17 C -0.756224 2.691640 1.812133 0
M  V30 18 C -1.783825 3.346639 1.174196 0
M  V30 19 C -2.897545 4.051883 1.813039 0
M  V30 20 C -4.209127 4.274314 1.452205 0
M  V30 21 N -4.785053 5.002719 2.449448 0
M  V30 22 N -3.842315 5.210668 3.382939 0
M  V30 23 C -2.667394 4.653139 3.049641 0
M  V30 24 C -1.766809 3.341524 -0.197823 0
M  V30 25 C -0.788604 2.723779 -0.939586 0
M  V30 26 C 3.009417 -3.540987 0.181368 0
M  V30 27 H 5.218901 -5.581145 3.397528 0
M  V30 28 H 3.528556 -6.140458 3.240755 0
M  V30 29 H 3.933512 -4.548137 4.116813 0
M  V30 30 H 1.642216 -5.200193 2.778056 0
M  V30 31 H -0.330584 -4.637583 1.491932 0
M  V30 32 H -2.150914 -3.043344 0.417073 0
M  V30 33 H -1.733964 -4.758872 0.012978 0
M  V30 34 H -2.394316 -3.622601 -1.257080 0
M  V30 35 H 1.370341 -2.694355 -2.551920 0
M  V30 36 H 3.156137 -2.615622 -2.142221 0
M  V30 37 H 2.963768 -0.473362 -1.673439 0
M  V30 38 H 2.343338 1.724951 -1.036688 0
M  V30 39 H 0.986490 1.585998 1.744555 0
M  V30 40 H -0.790907 2.709129 2.899032 0
M  V30 41 H -4.490792 3.843534 0.497868 0
M  V30 42 H -4.259743 5.776299 4.174783 0
M  V30 43 H -1.838802 4.772540 3.753930 0
M  V30 44 H -2.521223 3.822723 -0.818083 0
M  V30 45 H -0.681722 2.660000 -2.011848 0
M  V30 46 H 4.011523 -3.241676 -0.161847 0
M  V30 END ATOM
M  V30 BEGIN BOND
M  V30 1 1 1 2
M  V30 2 1 2 3
M  V30 3 2 3 4
M  V30 4 1 4 5
M  V30 5 2 5 6
M  V30 6 1 6 7
M  V30 7 1 7 8
M  V30 8 1 6 9
M  V30 9 1 9 10
M  V30 10 1 10 11
M  V30 11 1 11 12
M  V30 12 2 12 13
M  V30 13 1 12 14
M  V30 14 1 14 15
M  V30 15 2 15 16
M  V30 16 1 16 17
M  V30 17 2 17 18
M  V30 18 1 18 19
M  V30 19 1 19 20
M  V30 20 2 20 21
M  V30 21 1 21 22
M  V30 22 1 22 23
M  V30 23 1 18 24
M  V30 24 2 24 25
M  V30 25 2 9 26
M  V30 26 1 26 3
M  V30 27 1 25 15
M  V30 28 2 23 19
M  V30 29 1 1 27
M  V30 30 1 1 28
M  V30 31 1 1 29
M  V30 32 1 4 30
M  V30 33 1 5 31
M  V30 34 1 8 32
M  V30 35 1 8 33
M  V30 36 1 8 34
M  V30 37 1 10 35
M  V30 38 1 10 36
M  V30 39 1 11 37
M  V30 40 1 14 38
M  V30 41 1 16 39
M  V30 42 1 17 40
M  V30 43 1 20 41
M  V30 44 1 22 42
M  V30 45 1 23 43
M  V30 46 1 24 44
M  V30 47 1 25 45
M  V30 48 1 26 46
M  V30 END BOND
M  V30 END CTAB
M  END
>  <Dataset>  (941) 
ChEMBL_Kinases

>  <Ligand_Instance>  (941) 
nan

>  <PDB_ID>  (941) 
nan

>  <Standardized_SMILES>  (941) 
COc1ccc(OC)c(CNC(=O)Nc2ccc(-c3cn[nH]c3)cc2)c1

>  <Name>  (941) 
nan

>  <Pocket>  (941) 
nan

>  <ATP_Site>  (941) 
nan

>  <Peripheral>  (941) 
nan

>  <Num_H_Atoms_ProtBoundConf>  (941) 
nan

>  <Num_Resolved_Atoms>  (941) 
nan

>  <Num_Not_Resolved_Atoms>  (941) 
nan

$$$$
CHEMBL2332079
     RDKit          3D

  0  0  0  0  0  0  0  0  0  0999 V3000
M  V30 BEGIN CTAB
M  V30 COUNTS 44 46 0 0 0
M  V30 BEGIN ATOM
M  V30 1 O -0.207976 -1.299073 1.769473 0
M  V30 2 C 0.186082 -1.127812 2.939966 0
M  V30 3 N 1.170491 -1.900566 3.583329 0
M  V30 4 C 1.819333 -3.009656 2.867809 0
M  V30 5 C 2.524308 -2.511423 1.642753 0
M  V30 6 C 3.215139 -3.638879 0.864189 0
M  V30 7 C 3.852729 -2.968111 -0.301493 0
M  V30 8 C 3.044330 -2.880236 -1.431695 0
M  V30 9 C 3.526580 -2.282897 -2.566189 0
M  V30 10 C 4.813327 -1.795349 -2.514066 0
M  V30 11 C 5.664882 -1.849628 -1.430410 0
M  V30 12 C 5.136473 -2.465281 -0.295165 0
M  V30 13 N -0.490615 -0.027838 3.577746 0
M  V30 14 C -1.448365 0.594640 2.704646 0
M  V30 15 C -0.864749 1.617965 1.980045 0
M  V30 16 C -1.603425 2.354853 1.075721 0
M  V30 17 C -2.938748 2.053870 0.904712 0
M  V30 18 C -3.762271 2.809682 -0.044990 0
M  V30 19 C -3.221415 3.336947 -1.200615 0
M  V30 20 N -4.197624 3.974160 -1.877663 0
M  V30 21 N -5.336986 3.872792 -1.198194 0
M  V30 22 C -5.079918 3.167035 -0.084548 0
M  V30 23 C -3.516222 1.029666 1.632154 0
M  V30 24 C -2.783871 0.289997 2.536913 0
M  V30 25 H 1.424998 -1.663620 4.579515 0
M  V30 26 H 0.976688 -3.650836 2.506786 0
M  V30 27 H 2.518566 -3.544971 3.514714 0
M  V30 28 H 3.365775 -1.815137 1.884744 0
M  V30 29 H 1.818438 -2.076486 0.906088 0
M  V30 30 H 3.969207 -4.092679 1.538942 0
M  V30 31 H 2.476953 -4.376039 0.553789 0
M  V30 32 H 2.022301 -3.275632 -1.449832 0
M  V30 33 H 2.936146 -2.187517 -3.477932 0
M  V30 34 H 5.185496 -1.322851 -3.422124 0
M  V30 35 H 6.668083 -1.447622 -1.451407 0
M  V30 36 H 5.725476 -2.557901 0.607480 0
M  V30 37 H -0.235408 0.212874 4.582263 0
M  V30 38 H 0.179943 1.939824 2.036122 0
M  V30 39 H -1.192306 3.167944 0.482420 0
M  V30 40 H -2.222095 3.319410 -1.611279 0
M  V30 41 H -6.284053 4.265884 -1.463827 0
M  V30 42 H -5.753061 2.870220 0.728302 0
M  V30 43 H -4.565578 0.746502 1.539720 0
M  V30 44 H -3.119173 -0.527046 3.158675 0
M  V30 END ATOM
M  V30 BEGIN BOND
M  V30 1 2 1 2
M  V30 2 1 2 3
M  V30 3 1 3 4
M  V30 4 1 4 5
M  V30 5 1 5 6
M  V30 6 1 6 7
M  V30 7 2 7 8
M  V30 8 1 8 9
M  V30 9 2 9 10
M  V30 10 1 10 11
M  V30 11 2 11 12
M  V30 12 1 2 13
M  V30 13 1 13 14
M  V30 14 2 14 15
M  V30 15 1 15 16
M  V30 16 2 16 17
M  V30 17 1 17 18
M  V30 18 1 18 19
M  V30 19 2 19 20
M  V30 20 1 20 21
M  V30 21 1 21 22
M  V30 22 1 17 23
M  V30 23 2 23 24
M  V30 24 1 12 7
M  V30 25 1 24 14
M  V30 26 2 22 18
M  V30 27 1 3 25
M  V30 28 1 4 26
M  V30 29 1 4 27
M  V30 30 1 5 28
M  V30 31 1 5 29
M  V30 32 1 6 30
M  V30 33 1 6 31
M  V30 34 1 8 32
M  V30 35 1 9 33
M  V30 36 1 10 34
M  V30 37 1 11 35
M  V30 38 1 12 36
M  V30 39 1 13 37
M  V30 40 1 15 38
M  V30 41 1 16 39
M  V30 42 1 19 40
M  V30 43 1 21 41
M  V30 44 1 22 42
M  V30 45 1 23 43
M  V30 46 1 24 44
M  V30 END BOND
M  V30 END CTAB
M  END
>  <Dataset>  (942) 
ChEMBL_Kinases

>  <Ligand_Instance>  (942) 
nan

>  <PDB_ID>  (942) 
nan

>  <Standardized_SMILES>  (942) 
O=C(NCCCc1ccccc1)Nc1ccc(-c2cn[nH]c2)cc1

>  <Name>  (942) 
nan

>  <Pocket>  (942) 
nan

>  <ATP_Site>  (942) 
nan

>  <Peripheral>  (942) 
nan

>  <Num_H_Atoms_ProtBoundConf>  (942) 
nan

>  <Num_Resolved_Atoms>  (942) 
nan

>  <Num_Not_Resolved_Atoms>  (942) 
nan

$$$$
CHEMBL2347827
     RDKit          3D

  0  0  0  0  0  0  0  0  0  0999 V3000
M  V30 BEGIN CTAB
M  V30 COUNTS 38 40 0 0 0
M  V30 BEGIN ATOM
M  V30 1 C -1.154869 -6.182627 5.434048 0
M  V30 2 C -0.664383 -5.023749 4.618204 0
M  V30 3 N 0.265933 -4.159682 4.831735 0
M  V30 4 C 0.470994 -3.237058 3.912229 0
M  V30 5 C -0.243810 -3.163002 2.773944 0
M  V30 6 C 0.007529 -2.109255 1.748684 0
M  V30 7 C 0.961994 -1.152017 1.874429 0
M  V30 8 C 1.056418 -0.255192 0.827874 0
M  V30 9 C 0.244949 -0.305544 -0.286997 0
M  V30 10 C 0.382747 0.628782 -1.319927 0
M  V30 11 N 1.382744 1.593063 -1.139755 0
M  V30 12 C 1.172848 2.862195 -0.490907 0
M  V30 13 C 0.131481 3.703847 -1.191170 0
M  V30 14 C 2.426346 3.669623 -0.365073 0
M  V30 15 C -0.473552 0.477719 -2.367230 0
M  V30 16 C -0.341838 1.427545 -3.433154 0
M  V30 17 N -0.242905 2.186225 -4.312576 0
M  V30 18 C -1.427655 -0.515780 -2.444518 0
M  V30 19 N -1.532121 -1.397163 -1.432899 0
M  V30 20 C -0.709915 -1.308734 -0.352655 0
M  V30 21 C -0.845434 -2.239011 0.678235 0
M  V30 22 S -1.348903 -4.483135 2.908077 0
M  V30 23 H -0.249233 -6.790067 5.639122 0
M  V30 24 H -1.715506 -5.881159 6.325752 0
M  V30 25 H -1.823896 -6.835137 4.839225 0
M  V30 26 H 1.290754 -2.566499 4.220297 0
M  V30 27 H 1.582907 -1.137338 2.758986 0
M  V30 28 H 1.811177 0.520539 0.902518 0
M  V30 29 H 2.251592 1.169556 -1.571788 0
M  V30 30 H 0.772544 2.668216 0.526897 0
M  V30 31 H -0.870546 3.240439 -1.236464 0
M  V30 32 H -0.022136 4.671633 -0.671770 0
M  V30 33 H 0.420737 3.951739 -2.233258 0
M  V30 34 H 3.021843 3.409058 0.527042 0
M  V30 35 H 3.019611 3.528495 -1.314903 0
M  V30 36 H 2.137337 4.743425 -0.323479 0
M  V30 37 H -2.067586 -0.549797 -3.331242 0
M  V30 38 H -1.603477 -2.981287 0.554648 0
M  V30 END ATOM
M  V30 BEGIN BOND
M  V30 1 1 1 2
M  V30 2 2 2 3
M  V30 3 1 3 4
M  V30 4 2 4 5
M  V30 5 1 5 6
M  V30 6 2 6 7
M  V30 7 1 7 8
M  V30 8 2 8 9
M  V30 9 1 9 10
M  V30 10 1 10 11
M  V30 11 1 11 12
M  V30 12 1 12 13
M  V30 13 1 12 14
M  V30 14 2 10 15
M  V30 15 1 15 16
M  V30 16 3 16 17
M  V30 17 1 15 18
M  V30 18 2 18 19
M  V30 19 1 19 20
M  V30 20 2 20 21
M  V30 21 1 5 22
M  V30 22 1 22 2
M  V30 23 1 21 6
M  V30 24 1 20 9
M  V30 25 1 1 23
M  V30 26 1 1 24
M  V30 27 1 1 25
M  V30 28 1 4 26
M  V30 29 1 7 27
M  V30 30 1 8 28
M  V30 31 1 11 29
M  V30 32 1 12 30
M  V30 33 1 13 31
M  V30 34 1 13 32
M  V30 35 1 13 33
M  V30 36 1 14 34
M  V30 37 1 14 35
M  V30 38 1 14 36
M  V30 39 1 18 37
M  V30 40 1 21 38
M  V30 END BOND
M  V30 END CTAB
M  END
>  <Dataset>  (943) 
ChEMBL_Kinases

>  <Ligand_Instance>  (943) 
nan

>  <PDB_ID>  (943) 
nan

>  <Standardized_SMILES>  (943) 
Cc1ncc(-c2ccc3c(NC(C)C)c(C#N)cnc3c2)s1

>  <Name>  (943) 
nan

>  <Pocket>  (943) 
nan

>  <ATP_Site>  (943) 
nan

>  <Peripheral>  (943) 
nan

>  <Num_H_Atoms_ProtBoundConf>  (943) 
nan

>  <Num_Resolved_Atoms>  (943) 
nan

>  <Num_Not_Resolved_Atoms>  (943) 
nan

$$$$
CHEMBL2347826
     RDKit          3D

  0  0  0  0  0  0  0  0  0  0999 V3000
M  V30 BEGIN CTAB
M  V30 COUNTS 55 58 0 0 0
M  V30 BEGIN ATOM
M  V30 1 C 3.407099 3.958663 3.223732 0
M  V30 2 C 4.372862 3.110382 4.008348 0
M  V30 3 C 4.070525 3.355912 5.491175 0
M  V30 4 N 4.119823 1.736735 3.764690 0
M  V30 5 C 4.050813 0.805718 2.695342 0
M  V30 6 C 5.283553 0.213452 2.387346 0
M  V30 7 C 6.496248 0.539956 3.110951 0
M  V30 8 N 7.465533 0.821795 3.694465 0
M  V30 9 C 5.453889 -0.720298 1.382697 0
M  V30 10 N 4.372528 -1.068172 0.673729 0
M  V30 11 C 3.167162 -0.534364 0.924803 0
M  V30 12 C 2.036741 -0.882927 0.209641 0
M  V30 13 C 0.808195 -0.296796 0.522120 0
M  V30 14 C -0.322493 -0.745913 -0.307120 0
M  V30 15 C -1.351270 0.152450 -0.556655 0
M  V30 16 C -2.388933 -0.315078 -1.338621 0
M  V30 17 C -2.482898 -1.590765 -1.885533 0
M  V30 18 S -3.830094 -2.090606 -2.860517 0
M  V30 19 O -3.367248 -3.015036 -3.965549 0
M  V30 20 O -4.337230 -0.842634 -3.562378 0
M  V30 21 N -5.102947 -2.766599 -1.960933 0
M  V30 22 C -4.711061 -3.952516 -1.255033 0
M  V30 23 C -4.980558 -5.238220 -1.962437 0
M  V30 24 O -5.519714 -5.084756 -3.220685 0
M  V30 25 C -6.682050 -4.308609 -3.061652 0
M  V30 26 C -6.309244 -2.904344 -2.712740 0
M  V30 27 C -1.416547 -2.449012 -1.598676 0
M  V30 28 C -0.346292 -2.028488 -0.815974 0
M  V30 29 C 0.664039 0.647074 1.547261 0
M  V30 30 C 1.794095 0.994616 2.260809 0
M  V30 31 C 2.986900 0.395503 1.922391 0
M  V30 32 H 2.392752 3.967262 3.663616 0
M  V30 33 H 3.718445 5.037938 3.220759 0
M  V30 34 H 3.290462 3.585071 2.174594 0
M  V30 35 H 5.425307 3.416309 3.823432 0
M  V30 36 H 3.718049 2.449130 6.008474 0
M  V30 37 H 5.017733 3.637534 6.035222 0
M  V30 38 H 3.314956 4.140143 5.640332 0
M  V30 39 H 3.887929 1.034422 4.530314 0
M  V30 40 H 6.409141 -1.165947 1.158748 0
M  V30 41 H 2.135621 -1.603929 -0.576650 0
M  V30 42 H -1.366536 1.165939 -0.174124 0
M  V30 43 H -3.199326 0.341169 -1.555053 0
M  V30 44 H -3.612058 -3.863877 -1.082880 0
M  V30 45 H -5.167965 -3.931277 -0.233644 0
M  V30 46 H -5.749052 -5.813463 -1.370334 0
M  V30 47 H -4.102132 -5.942903 -1.983919 0
M  V30 48 H -7.341653 -4.794510 -2.323447 0
M  V30 49 H -7.220495 -4.311106 -4.051492 0
M  V30 50 H -7.143476 -2.498458 -2.072057 0
M  V30 51 H -6.245217 -2.262624 -3.634092 0
M  V30 52 H -1.430861 -3.451956 -1.994354 0
M  V30 53 H 0.435589 -2.741962 -0.638353 0
M  V30 54 H -0.310951 1.055011 1.731181 0
M  V30 55 H 1.687392 1.714027 3.055978 0
M  V30 END ATOM
M  V30 BEGIN BOND
M  V30 1 1 1 2
M  V30 2 1 2 3
M  V30 3 1 2 4
M  V30 4 1 4 5
M  V30 5 2 5 6
M  V30 6 1 6 7
M  V30 7 3 7 8
M  V30 8 1 6 9
M  V30 9 2 9 10
M  V30 10 1 10 11
M  V30 11 2 11 12
M  V30 12 1 12 13
M  V30 13 1 13 14
M  V30 14 2 14 15
M  V30 15 1 15 16
M  V30 16 2 16 17
M  V30 17 1 17 18
M  V30 18 2 18 19
M  V30 19 2 18 20
M  V30 20 1 18 21
M  V30 21 1 21 22
M  V30 22 1 22 23
M  V30 23 1 23 24
M  V30 24 1 24 25
M  V30 25 1 25 26
M  V30 26 1 17 27
M  V30 27 2 27 28
M  V30 28 2 13 29
M  V30 29 1 29 30
M  V30 30 2 30 31
M  V30 31 1 31 5
M  V30 32 1 31 11
M  V30 33 1 28 14
M  V30 34 1 26 21
M  V30 35 1 1 32
M  V30 36 1 1 33
M  V30 37 1 1 34
M  V30 38 1 2 35
M  V30 39 1 3 36
M  V30 40 1 3 37
M  V30 41 1 3 38
M  V30 42 1 4 39
M  V30 43 1 9 40
M  V30 44 1 12 41
M  V30 45 1 15 42
M  V30 46 1 16 43
M  V30 47 1 22 44
M  V30 48 1 22 45
M  V30 49 1 23 46
M  V30 50 1 23 47
M  V30 51 1 25 48
M  V30 52 1 25 49
M  V30 53 1 26 50
M  V30 54 1 26 51
M  V30 55 1 27 52
M  V30 56 1 28 53
M  V30 57 1 29 54
M  V30 58 1 30 55
M  V30 END BOND
M  V30 END CTAB
M  END
>  <Dataset>  (944) 
ChEMBL_Kinases

>  <Ligand_Instance>  (944) 
nan

>  <PDB_ID>  (944) 
nan

>  <Standardized_SMILES>  (944) 
CC(C)Nc1c(C#N)cnc2cc(-c3ccc(S(=O)(=O)N4CCOCC4)cc3)ccc12

>  <Name>  (944) 
nan

>  <Pocket>  (944) 
nan

>  <ATP_Site>  (944) 
nan

>  <Peripheral>  (944) 
nan

>  <Num_H_Atoms_ProtBoundConf>  (944) 
nan

>  <Num_Resolved_Atoms>  (944) 
nan

>  <Num_Not_Resolved_Atoms>  (944) 
nan

$$$$
CHEMBL2347825
     RDKit          3D

  0  0  0  0  0  0  0  0  0  0999 V3000
M  V30 BEGIN CTAB
M  V30 COUNTS 47 49 0 0 0
M  V30 BEGIN ATOM
M  V30 1 C 1.045506 -7.552475 1.621372 0
M  V30 2 N 0.526621 -7.805847 0.308883 0
M  V30 3 S 1.134417 -6.743330 -0.883854 0
M  V30 4 O 0.488817 -7.128916 -2.198092 0
M  V30 5 O 2.614413 -6.871527 -0.997734 0
M  V30 6 C 0.752987 -5.072614 -0.613885 0
M  V30 7 C 1.597245 -4.251617 0.120476 0
M  V30 8 C 1.352353 -2.910086 0.373602 0
M  V30 9 C 0.190808 -2.374776 -0.145492 0
M  V30 10 C -0.105948 -0.964837 0.097839 0
M  V30 11 C 0.945013 -0.048214 0.213781 0
M  V30 12 C 0.667338 1.285617 0.443926 0
M  V30 13 C -0.642196 1.703123 0.557715 0
M  V30 14 C -0.819022 3.052334 0.783652 0
M  V30 15 N 0.171917 4.052856 0.930407 0
M  V30 16 C 0.939153 4.678846 1.967397 0
M  V30 17 C 0.051534 5.388337 2.979111 0
M  V30 18 C 1.832381 3.748212 2.740940 0
M  V30 19 C -2.133911 3.473787 0.893555 0
M  V30 20 C -2.501785 4.853866 1.128372 0
M  V30 21 N -2.798896 5.955086 1.331647 0
M  V30 22 C -3.206809 2.597394 0.784456 0
M  V30 23 N -2.952123 1.311948 0.566998 0
M  V30 24 C -1.702419 0.827321 0.448579 0
M  V30 25 C -1.407856 -0.502869 0.218448 0
M  V30 26 C -0.689455 -3.145100 -0.885905 0
M  V30 27 C -0.407348 -4.485938 -1.117123 0
M  V30 28 H 2.046710 -8.046493 1.754275 0
M  V30 29 H 0.389096 -8.065867 2.359607 0
M  V30 30 H 1.094133 -6.485865 1.879912 0
M  V30 31 H -0.475302 -8.001887 0.243470 0
M  V30 32 H 2.500652 -4.734951 0.504354 0
M  V30 33 H 2.060187 -2.338749 0.954825 0
M  V30 34 H 1.976470 -0.372894 0.124901 0
M  V30 35 H 1.504150 1.963512 0.523037 0
M  V30 36 H 0.269468 4.314858 -0.072291 0
M  V30 37 H 1.579705 5.444786 1.518791 0
M  V30 38 H -0.295563 6.328687 2.522588 0
M  V30 39 H 0.729328 5.688334 3.805747 0
M  V30 40 H -0.715114 4.743741 3.406107 0
M  V30 41 H 2.032479 4.223945 3.733957 0
M  V30 42 H 2.813071 3.640590 2.253756 0
M  V30 43 H 1.331678 2.780827 2.947947 0
M  V30 44 H -4.242596 2.920979 0.869637 0
M  V30 45 H -2.222130 -1.206460 0.129766 0
M  V30 46 H -1.619698 -2.730186 -1.305704 0
M  V30 47 H -1.109375 -5.081760 -1.702155 0
M  V30 END ATOM
M  V30 BEGIN BOND
M  V30 1 1 1 2
M  V30 2 1 2 3
M  V30 3 2 3 4
M  V30 4 2 3 5
M  V30 5 1 3 6
M  V30 6 2 6 7
M  V30 7 1 7 8
M  V30 8 2 8 9
M  V30 9 1 9 10
M  V30 10 2 10 11
M  V30 11 1 11 12
M  V30 12 2 12 13
M  V30 13 1 13 14
M  V30 14 1 14 15
M  V30 15 1 15 16
M  V30 16 1 16 17
M  V30 17 1 16 18
M  V30 18 2 14 19
M  V30 19 1 19 20
M  V30 20 3 20 21
M  V30 21 1 19 22
M  V30 22 2 22 23
M  V30 23 1 23 24
M  V30 24 2 24 25
M  V30 25 1 9 26
M  V30 26 2 26 27
M  V30 27 1 27 6
M  V30 28 1 25 10
M  V30 29 1 24 13
M  V30 30 1 1 28
M  V30 31 1 1 29
M  V30 32 1 1 30
M  V30 33 1 2 31
M  V30 34 1 7 32
M  V30 35 1 8 33
M  V30 36 1 11 34
M  V30 37 1 12 35
M  V30 38 1 15 36
M  V30 39 1 16 37
M  V30 40 1 17 38
M  V30 41 1 17 39
M  V30 42 1 17 40
M  V30 43 1 18 41
M  V30 44 1 18 42
M  V30 45 1 18 43
M  V30 46 1 22 44
M  V30 47 1 25 45
M  V30 48 1 26 46
M  V30 49 1 27 47
M  V30 END BOND
M  V30 END CTAB
M  END
>  <Dataset>  (945) 
ChEMBL_Kinases

>  <Ligand_Instance>  (945) 
nan

>  <PDB_ID>  (945) 
nan

>  <Standardized_SMILES>  (945) 
CNS(=O)(=O)c1ccc(-c2ccc3c(NC(C)C)c(C#N)cnc3c2)cc1

>  <Name>  (945) 
nan

>  <Pocket>  (945) 
nan

>  <ATP_Site>  (945) 
nan

>  <Peripheral>  (945) 
nan

>  <Num_H_Atoms_ProtBoundConf>  (945) 
nan

>  <Num_Resolved_Atoms>  (945) 
nan

>  <Num_Not_Resolved_Atoms>  (945) 
nan

$$$$
CHEMBL2347824
     RDKit          3D

  0  0  0  0  0  0  0  0  0  0999 V3000
M  V30 BEGIN CTAB
M  V30 COUNTS 39 41 0 0 0
M  V30 BEGIN ATOM
M  V30 1 C 2.057043 -3.343687 1.903932 0
M  V30 2 C 3.096531 -2.444257 2.499440 0
M  V30 3 C 3.278409 -2.906700 3.948420 0
M  V30 4 N 2.769597 -1.057317 2.433998 0
M  V30 5 C 2.483009 -0.189738 1.379852 0
M  V30 6 C 3.577825 0.443396 0.801396 0
M  V30 7 C 4.930938 0.211293 1.268903 0
M  V30 8 N 6.018353 0.006589 1.655058 0
M  V30 9 C 3.489492 1.334702 -0.251704 0
M  V30 10 N 2.255512 1.589595 -0.730660 0
M  V30 11 C 1.126688 1.025047 -0.236803 0
M  V30 12 C -0.131105 1.298632 -0.734004 0
M  V30 13 C -1.241674 0.680106 -0.166647 0
M  V30 14 C -2.596941 0.924029 -0.642279 0
M  V30 15 C -3.185453 2.051361 -1.193442 0
M  V30 16 N -4.489402 1.767189 -1.473854 0
M  V30 17 N -4.752298 0.515453 -1.126607 0
M  V30 18 C -6.025002 -0.165156 -1.263532 0
M  V30 19 C -3.626696 -0.015240 -0.622257 0
M  V30 20 C -1.085065 -0.203882 0.890205 0
M  V30 21 C 0.178607 -0.468681 1.377749 0
M  V30 22 C 1.274290 0.145788 0.811903 0
M  V30 23 H 1.665410 -2.962600 0.931210 0
M  V30 24 H 1.189083 -3.383450 2.615411 0
M  V30 25 H 2.447730 -4.372471 1.838838 0
M  V30 26 H 4.110712 -2.611158 2.031647 0
M  V30 27 H 3.298757 -4.032030 3.879343 0
M  V30 28 H 4.236502 -2.514353 4.305687 0
M  V30 29 H 2.397171 -2.567284 4.542865 0
M  V30 30 H 2.669611 -0.351946 3.219064 0
M  V30 31 H 4.355229 1.815487 -0.685967 0
M  V30 32 H -0.247881 1.982433 -1.548095 0
M  V30 33 H -2.590819 2.951409 -1.326245 0
M  V30 34 H -6.386913 -0.498768 -0.257436 0
M  V30 35 H -5.980994 -1.005213 -1.989737 0
M  V30 36 H -6.788793 0.580208 -1.626707 0
M  V30 37 H -3.504142 -1.035419 -0.241971 0
M  V30 38 H -1.945709 -0.678755 1.324791 0
M  V30 39 H 0.259354 -1.155413 2.204350 0
M  V30 END ATOM
M  V30 BEGIN BOND
M  V30 1 1 1 2
M  V30 2 1 2 3
M  V30 3 1 2 4
M  V30 4 1 4 5
M  V30 5 2 5 6
M  V30 6 1 6 7
M  V30 7 3 7 8
M  V30 8 1 6 9
M  V30 9 2 9 10
M  V30 10 1 10 11
M  V30 11 2 11 12
M  V30 12 1 12 13
M  V30 13 1 13 14
M  V30 14 1 14 15
M  V30 15 2 15 16
M  V30 16 1 16 17
M  V30 17 1 17 18
M  V30 18 1 17 19
M  V30 19 2 13 20
M  V30 20 1 20 21
M  V30 21 2 21 22
M  V30 22 1 22 5
M  V30 23 1 22 11
M  V30 24 2 19 14
M  V30 25 1 1 23
M  V30 26 1 1 24
M  V30 27 1 1 25
M  V30 28 1 2 26
M  V30 29 1 3 27
M  V30 30 1 3 28
M  V30 31 1 3 29
M  V30 32 1 4 30
M  V30 33 1 9 31
M  V30 34 1 12 32
M  V30 35 1 15 33
M  V30 36 1 18 34
M  V30 37 1 18 35
M  V30 38 1 18 36
M  V30 39 1 19 37
M  V30 40 1 20 38
M  V30 41 1 21 39
M  V30 END BOND
M  V30 END CTAB
M  END
>  <Dataset>  (946) 
ChEMBL_Kinases

>  <Ligand_Instance>  (946) 
nan

>  <PDB_ID>  (946) 
nan

>  <Standardized_SMILES>  (946) 
CC(C)Nc1c(C#N)cnc2cc(-c3cnn(C)c3)ccc12

>  <Name>  (946) 
nan

>  <Pocket>  (946) 
nan

>  <ATP_Site>  (946) 
nan

>  <Peripheral>  (946) 
nan

>  <Num_H_Atoms_ProtBoundConf>  (946) 
nan

>  <Num_Resolved_Atoms>  (946) 
nan

>  <Num_Not_Resolved_Atoms>  (946) 
nan

$$$$
CHEMBL2347823
     RDKit          3D

  0  0  0  0  0  0  0  0  0  0999 V3000
M  V30 BEGIN CTAB
M  V30 COUNTS 45 47 0 0 0
M  V30 BEGIN ATOM
M  V30 1 C 1.340956 -5.609154 -2.443639 0
M  V30 2 C 0.931836 -4.161615 -2.743125 0
M  V30 3 C -0.546579 -4.027019 -2.464845 0
M  V30 4 N 1.728512 -3.243499 -1.963905 0
M  V30 5 C 1.918358 -1.860970 -1.691279 0
M  V30 6 C 2.821836 -1.288561 -2.564034 0
M  V30 7 C 3.501045 -1.982183 -3.624408 0
M  V30 8 N 4.043501 -2.555173 -4.463973 0
M  V30 9 C 3.137203 0.066173 -2.453501 0
M  V30 10 N 2.540046 0.778153 -1.484694 0
M  V30 11 C 1.672099 0.227561 -0.646057 0
M  V30 12 C 1.035385 0.936580 0.373692 0
M  V30 13 C 0.125629 0.332828 1.247672 0
M  V30 14 C -0.508566 1.144782 2.299444 0
M  V30 15 C 0.280151 2.171892 2.787925 0
M  V30 16 C -0.224260 3.007551 3.791223 0
M  V30 17 C -1.504539 2.753905 4.244100 0
M  V30 18 S -2.199701 3.752464 5.489495 0
M  V30 19 C -1.797292 3.039743 7.087479 0
M  V30 20 O -1.626906 5.141481 5.498206 0
M  V30 21 O -3.693192 3.791677 5.407852 0
M  V30 22 C -2.304870 1.729280 3.763783 0
M  V30 23 C -1.785208 0.909899 2.766955 0
M  V30 24 C -0.164072 -1.028637 1.104962 0
M  V30 25 C 0.451249 -1.750613 0.105955 0
M  V30 26 C 1.323319 -1.101242 -0.707071 0
M  V30 27 H 0.527257 -6.226180 -2.829214 0
M  V30 28 H 2.276908 -5.869973 -2.980600 0
M  V30 29 H 1.427167 -5.777322 -1.349622 0
M  V30 30 H 1.131930 -4.038097 -3.832681 0
M  V30 31 H -1.165510 -4.585985 -3.174561 0
M  V30 32 H -0.842473 -2.950632 -2.571188 0
M  V30 33 H -0.812492 -4.391471 -1.456283 0
M  V30 34 H 2.476378 -3.648896 -1.325101 0
M  V30 35 H 3.821717 0.635727 -3.065536 0
M  V30 36 H 1.274068 1.993041 0.468700 0
M  V30 37 H 1.277638 2.425204 2.483123 0
M  V30 38 H 0.335348 3.831291 4.222688 0
M  V30 39 H -2.501483 3.402868 7.861564 0
M  V30 40 H -1.853713 1.942984 6.976149 0
M  V30 41 H -0.736795 3.316295 7.287109 0
M  V30 42 H -3.300582 1.565257 4.146223 0
M  V30 43 H -2.362726 0.084667 2.344396 0
M  V30 44 H -0.871595 -1.465307 1.795696 0
M  V30 45 H 0.231848 -2.791776 0.001070 0
M  V30 END ATOM
M  V30 BEGIN BOND
M  V30 1 1 1 2
M  V30 2 1 2 3
M  V30 3 1 2 4
M  V30 4 1 4 5
M  V30 5 2 5 6
M  V30 6 1 6 7
M  V30 7 3 7 8
M  V30 8 1 6 9
M  V30 9 2 9 10
M  V30 10 1 10 11
M  V30 11 2 11 12
M  V30 12 1 12 13
M  V30 13 1 13 14
M  V30 14 2 14 15
M  V30 15 1 15 16
M  V30 16 2 16 17
M  V30 17 1 17 18
M  V30 18 1 18 19
M  V30 19 2 18 20
M  V30 20 2 18 21
M  V30 21 1 17 22
M  V30 22 2 22 23
M  V30 23 2 13 24
M  V30 24 1 24 25
M  V30 25 2 25 26
M  V30 26 1 26 5
M  V30 27 1 26 11
M  V30 28 1 23 14
M  V30 29 1 1 27
M  V30 30 1 1 28
M  V30 31 1 1 29
M  V30 32 1 2 30
M  V30 33 1 3 31
M  V30 34 1 3 32
M  V30 35 1 3 33
M  V30 36 1 4 34
M  V30 37 1 9 35
M  V30 38 1 12 36
M  V30 39 1 15 37
M  V30 40 1 16 38
M  V30 41 1 19 39
M  V30 42 1 19 40
M  V30 43 1 19 41
M  V30 44 1 22 42
M  V30 45 1 23 43
M  V30 46 1 24 44
M  V30 47 1 25 45
M  V30 END BOND
M  V30 END CTAB
M  END
>  <Dataset>  (947) 
ChEMBL_Kinases

>  <Ligand_Instance>  (947) 
nan

>  <PDB_ID>  (947) 
nan

>  <Standardized_SMILES>  (947) 
CC(C)Nc1c(C#N)cnc2cc(-c3ccc(S(C)(=O)=O)cc3)ccc12

>  <Name>  (947) 
nan

>  <Pocket>  (947) 
nan

>  <ATP_Site>  (947) 
nan

>  <Peripheral>  (947) 
nan

>  <Num_H_Atoms_ProtBoundConf>  (947) 
nan

>  <Num_Resolved_Atoms>  (947) 
nan

>  <Num_Not_Resolved_Atoms>  (947) 
nan

$$$$
CHEMBL2347822
     RDKit          3D

  0  0  0  0  0  0  0  0  0  0999 V3000
M  V30 BEGIN CTAB
M  V30 COUNTS 54 57 0 0 0
M  V30 BEGIN ATOM
M  V30 1 C 3.439985 -2.414168 1.016947 0
M  V30 2 C 3.684307 -1.209050 1.887720 0
M  V30 3 C 4.854982 -0.389581 1.402967 0
M  V30 4 N 2.498381 -0.427958 2.167550 0
M  V30 5 C 1.496657 0.285172 1.466131 0
M  V30 6 C 1.766357 1.610979 1.209449 0
M  V30 7 C 2.948485 2.375666 1.583547 0
M  V30 8 C 3.628566 2.436189 2.806166 0
M  V30 9 N 4.670694 3.293266 2.654432 0
M  V30 10 N 4.687447 3.770915 1.422757 0
M  V30 11 C 5.662372 4.712308 0.914467 0
M  V30 12 C 3.658470 3.233693 0.753637 0
M  V30 13 C 0.839829 2.367498 0.524401 0
M  V30 14 N -0.318864 1.827579 0.106644 0
M  V30 15 C -0.646891 0.540232 0.323805 0
M  V30 16 C -1.832168 -0.050410 -0.085533 0
M  V30 17 C -2.081034 -1.398771 0.196147 0
M  V30 18 C -3.337505 -2.008165 -0.243621 0
M  V30 19 C -4.048315 -1.673030 -1.379275 0
M  V30 20 C -5.231511 -2.334388 -1.677704 0
M  V30 21 C -5.727574 -3.330098 -0.864770 0
M  V30 22 S -7.226307 -4.148883 -1.268264 0
M  V30 23 C -6.945094 -5.566912 -2.262400 0
M  V30 24 O -8.007128 -4.554112 -0.060293 0
M  V30 25 O -8.086202 -3.191809 -2.049922 0
M  V30 26 C -5.045737 -3.701939 0.290341 0
M  V30 27 C -3.874692 -3.011307 0.538609 0
M  V30 28 C -1.149858 -2.158646 0.885351 0
M  V30 29 C 0.018092 -1.528956 1.274155 0
M  V30 30 C 0.291142 -0.203079 1.010590 0
M  V30 31 H 3.136837 -3.316146 1.588658 0
M  V30 32 H 4.370763 -2.696595 0.465694 0
M  V30 33 H 2.637668 -2.248292 0.270971 0
M  V30 34 H 4.031297 -1.641264 2.871429 0
M  V30 35 H 5.317225 0.149095 2.250417 0
M  V30 36 H 5.635182 -1.152557 1.109127 0
M  V30 37 H 4.574574 0.215256 0.543144 0
M  V30 38 H 2.162138 -0.258368 3.143833 0
M  V30 39 H 3.277246 1.851143 3.641639 0
M  V30 40 H 5.155827 5.314168 0.129618 0
M  V30 41 H 6.089165 5.332996 1.719597 0
M  V30 42 H 6.501409 4.203038 0.403117 0
M  V30 43 H 3.395270 3.424502 -0.286578 0
M  V30 44 H 0.905555 3.426465 0.244582 0
M  V30 45 H -2.539101 0.573477 -0.622947 0
M  V30 46 H -3.611600 -0.881942 -1.983047 0
M  V30 47 H -5.737658 -2.023897 -2.580672 0
M  V30 48 H -5.959170 -5.576636 -2.759978 0
M  V30 49 H -6.944095 -6.464752 -1.599987 0
M  V30 50 H -7.740421 -5.750835 -3.020316 0
M  V30 51 H -5.391034 -4.476359 0.962613 0
M  V30 52 H -3.340573 -3.308158 1.449962 0
M  V30 53 H -1.331187 -3.209704 1.111265 0
M  V30 54 H 0.708757 -2.160325 1.812527 0
M  V30 END ATOM
M  V30 BEGIN BOND
M  V30 1 1 1 2
M  V30 2 1 2 3
M  V30 3 1 2 4
M  V30 4 1 4 5
M  V30 5 2 5 6
M  V30 6 1 6 7
M  V30 7 1 7 8
M  V30 8 2 8 9
M  V30 9 1 9 10
M  V30 10 1 10 11
M  V30 11 1 10 12
M  V30 12 1 6 13
M  V30 13 2 13 14
M  V30 14 1 14 15
M  V30 15 2 15 16
M  V30 16 1 16 17
M  V30 17 1 17 18
M  V30 18 2 18 19
M  V30 19 1 19 20
M  V30 20 2 20 21
M  V30 21 1 21 22
M  V30 22 1 22 23
M  V30 23 2 22 24
M  V30 24 2 22 25
M  V30 25 1 21 26
M  V30 26 2 26 27
M  V30 27 2 17 28
M  V30 28 1 28 29
M  V30 29 2 29 30
M  V30 30 1 30 5
M  V30 31 2 12 7
M  V30 32 1 30 15
M  V30 33 1 27 18
M  V30 34 1 1 31
M  V30 35 1 1 32
M  V30 36 1 1 33
M  V30 37 1 2 34
M  V30 38 1 3 35
M  V30 39 1 3 36
M  V30 40 1 3 37
M  V30 41 1 4 38
M  V30 42 1 8 39
M  V30 43 1 11 40
M  V30 44 1 11 41
M  V30 45 1 11 42
M  V30 46 1 12 43
M  V30 47 1 13 44
M  V30 48 1 16 45
M  V30 49 1 19 46
M  V30 50 1 20 47
M  V30 51 1 23 48
M  V30 52 1 23 49
M  V30 53 1 23 50
M  V30 54 1 26 51
M  V30 55 1 27 52
M  V30 56 1 28 53
M  V30 57 1 29 54
M  V30 END BOND
M  V30 END CTAB
M  END
>  <Dataset>  (948) 
ChEMBL_Kinases

>  <Ligand_Instance>  (948) 
nan

>  <PDB_ID>  (948) 
nan

>  <Standardized_SMILES>  (948) 
CC(C)Nc1c(-c2cnn(C)c2)cnc2cc(-c3ccc(S(C)(=O)=O)cc3)ccc12

>  <Name>  (948) 
nan

>  <Pocket>  (948) 
nan

>  <ATP_Site>  (948) 
nan

>  <Peripheral>  (948) 
nan

>  <Num_H_Atoms_ProtBoundConf>  (948) 
nan

>  <Num_Resolved_Atoms>  (948) 
nan

>  <Num_Not_Resolved_Atoms>  (948) 
nan

$$$$
CHEMBL2347820
     RDKit          3D

  0  0  0  0  0  0  0  0  0  0999 V3000
M  V30 BEGIN CTAB
M  V30 COUNTS 50 53 0 0 0
M  V30 BEGIN ATOM
M  V30 1 C 2.211584 1.417510 4.717408 0
M  V30 2 C 2.008624 0.069299 4.091578 0
M  V30 3 C 2.816631 -0.909794 4.956429 0
M  V30 4 N 2.449901 -0.074373 2.746718 0
M  V30 5 C 2.304212 0.443495 1.460592 0
M  V30 6 C 2.999089 1.407946 0.799517 0
M  V30 7 C 4.155471 1.895567 1.654266 0
M  V30 8 N 4.647737 1.743067 2.642282 0
M  V30 9 C 5.689993 2.312209 3.188894 0
M  V30 10 C 6.291129 3.307026 2.349715 0
M  V30 11 S 5.180123 3.246528 0.820752 0
M  V30 12 C 2.705755 1.843497 -0.470402 0
M  V30 13 N 1.662582 1.273869 -1.096323 0
M  V30 14 C 0.902491 0.310821 -0.546622 0
M  V30 15 C -0.152841 -0.228531 -1.253432 0
M  V30 16 C -0.923741 -1.217285 -0.678018 0
M  V30 17 C -2.052070 -1.817890 -1.390541 0
M  V30 18 C -2.759487 -1.029019 -2.279795 0
M  V30 19 C -3.831594 -1.579311 -2.964885 0
M  V30 20 C -4.136852 -2.907281 -2.715357 0
M  V30 21 S -5.495546 -3.553523 -3.602557 0
M  V30 22 C -6.992882 -3.294015 -2.644688 0
M  V30 23 O -5.689568 -2.845234 -4.903855 0
M  V30 24 O -5.311257 -5.025304 -3.771579 0
M  V30 25 C -3.440998 -3.708544 -1.830987 0
M  V30 26 C -2.366642 -3.140421 -1.150842 0
M  V30 27 C -0.641293 -1.664172 0.596566 0
M  V30 28 C 0.424801 -1.088929 1.254804 0
M  V30 29 C 1.233175 -0.098270 0.736403 0
M  V30 30 H 3.228584 1.538982 5.187678 0
M  V30 31 H 1.480649 1.632958 5.523589 0
M  V30 32 H 2.036104 2.248985 3.972497 0
M  V30 33 H 0.913175 -0.161791 4.211770 0
M  V30 34 H 3.771065 -1.166854 4.443068 0
M  V30 35 H 3.021407 -0.512342 5.961394 0
M  V30 36 H 2.175697 -1.823447 5.096814 0
M  V30 37 H 3.156765 -0.811394 2.465210 0
M  V30 38 H 5.957632 1.963078 4.186961 0
M  V30 39 H 7.274135 3.784949 2.967237 0
M  V30 40 H 3.331796 2.616998 -0.888170 0
M  V30 41 H -0.358481 0.134892 -2.251156 0
M  V30 42 H -2.502979 0.010034 -2.460347 0
M  V30 43 H -4.405400 -0.983999 -3.669730 0
M  V30 44 H -7.173253 -2.221959 -2.452077 0
M  V30 45 H -7.834598 -3.668260 -3.266843 0
M  V30 46 H -6.858128 -3.886581 -1.713794 0
M  V30 47 H -3.738601 -4.755914 -1.681844 0
M  V30 48 H -1.810335 -3.756140 -0.453168 0
M  V30 49 H -1.250592 -2.433477 1.029023 0
M  V30 50 H 0.598355 -1.479095 2.245114 0
M  V30 END ATOM
M  V30 BEGIN BOND
M  V30 1 1 1 2
M  V30 2 1 2 3
M  V30 3 1 2 4
M  V30 4 1 4 5
M  V30 5 2 5 6
M  V30 6 1 6 7
M  V30 7 2 7 8
M  V30 8 1 8 9
M  V30 9 2 9 10
M  V30 10 1 10 11
M  V30 11 1 6 12
M  V30 12 2 12 13
M  V30 13 1 13 14
M  V30 14 2 14 15
M  V30 15 1 15 16
M  V30 16 1 16 17
M  V30 17 2 17 18
M  V30 18 1 18 19
M  V30 19 2 19 20
M  V30 20 1 20 21
M  V30 21 1 21 22
M  V30 22 2 21 23
M  V30 23 2 21 24
M  V30 24 1 20 25
M  V30 25 2 25 26
M  V30 26 2 16 27
M  V30 27 1 27 28
M  V30 28 2 28 29
M  V30 29 1 29 5
M  V30 30 1 11 7
M  V30 31 1 29 14
M  V30 32 1 26 17
M  V30 33 1 1 30
M  V30 34 1 1 31
M  V30 35 1 1 32
M  V30 36 1 2 33
M  V30 37 1 3 34
M  V30 38 1 3 35
M  V30 39 1 3 36
M  V30 40 1 4 37
M  V30 41 1 9 38
M  V30 42 1 10 39
M  V30 43 1 12 40
M  V30 44 1 15 41
M  V30 45 1 18 42
M  V30 46 1 19 43
M  V30 47 1 22 44
M  V30 48 1 22 45
M  V30 49 1 22 46
M  V30 50 1 25 47
M  V30 51 1 26 48
M  V30 52 1 27 49
M  V30 53 1 28 50
M  V30 END BOND
M  V30 END CTAB
M  END
>  <Dataset>  (949) 
ChEMBL_Kinases

>  <Ligand_Instance>  (949) 
nan

>  <PDB_ID>  (949) 
nan

>  <Standardized_SMILES>  (949) 
CC(C)Nc1c(-c2nccs2)cnc2cc(-c3ccc(S(C)(=O)=O)cc3)ccc12

>  <Name>  (949) 
nan

>  <Pocket>  (949) 
nan

>  <ATP_Site>  (949) 
nan

>  <Peripheral>  (949) 
nan

>  <Num_H_Atoms_ProtBoundConf>  (949) 
nan

>  <Num_Resolved_Atoms>  (949) 
nan

>  <Num_Not_Resolved_Atoms>  (949) 
nan

$$$$
CHEMBL2347819
     RDKit          3D

  0  0  0  0  0  0  0  0  0  0999 V3000
M  V30 BEGIN CTAB
M  V30 COUNTS 49 51 0 0 0
M  V30 BEGIN ATOM
M  V30 1 C 2.543482 -6.230964 1.893714 0
M  V30 2 C 1.345457 -5.624389 1.257863 0
M  V30 3 O 0.450213 -6.397341 0.832414 0
M  V30 4 C 1.256247 -4.166447 1.153125 0
M  V30 5 C 2.300850 -3.396274 1.613754 0
M  V30 6 N 2.294068 -2.054451 1.536720 0
M  V30 7 C 1.252320 -1.372289 0.997079 0
M  V30 8 C 1.283721 0.003295 0.928781 0
M  V30 9 C 0.218377 0.679361 0.369402 0
M  V30 10 C 0.302350 2.137277 0.321529 0
M  V30 11 C 1.566670 2.710423 0.175120 0
M  V30 12 C 1.669220 4.091723 0.126769 0
M  V30 13 C 0.536707 4.904004 0.221656 0
M  V30 14 S 0.622544 6.652177 0.163685 0
M  V30 15 C 0.826334 7.271489 1.832109 0
M  V30 16 O 1.883925 7.004961 -0.564364 0
M  V30 17 O -0.593672 7.255277 -0.434229 0
M  V30 18 C -0.729377 4.329762 0.368338 0
M  V30 19 C -0.814873 2.944839 0.415025 0
M  V30 20 C -0.861987 -0.031274 -0.113201 0
M  V30 21 C -0.821606 -1.408747 -0.009618 0
M  V30 22 C 0.207986 -2.145033 0.536811 0
M  V30 23 C 0.155672 -3.522585 0.588550 0
M  V30 24 N -0.938978 -4.256232 0.116992 0
M  V30 25 C -2.191104 -4.795727 0.560495 0
M  V30 26 C -3.174939 -3.805448 1.089425 0
M  V30 27 C -2.825966 -5.520840 -0.632467 0
M  V30 28 H 3.381003 -6.305068 1.177386 0
M  V30 29 H 2.857295 -5.658539 2.800626 0
M  V30 30 H 2.258907 -7.230445 2.278003 0
M  V30 31 H 3.198598 -3.788299 2.067446 0
M  V30 32 H 2.151860 0.518816 1.319778 0
M  V30 33 H 2.484495 2.140978 0.095787 0
M  V30 34 H 2.642843 4.584068 0.012591 0
M  V30 35 H 0.964884 8.357498 1.842982 0
M  V30 36 H 1.688921 6.782259 2.328881 0
M  V30 37 H -0.063296 7.001857 2.461788 0
M  V30 38 H -1.627643 4.945853 0.444537 0
M  V30 39 H -1.795453 2.471082 0.529364 0
M  V30 40 H -1.682530 0.500553 -0.545027 0
M  V30 41 H -1.690026 -1.905283 -0.412045 0
M  V30 42 H -0.587450 -4.371230 -0.881665 0
M  V30 43 H -2.089542 -5.585157 1.335457 0
M  V30 44 H -3.751305 -3.273407 0.281428 0
M  V30 45 H -2.692030 -3.088068 1.779194 0
M  V30 46 H -3.948729 -4.356808 1.660952 0
M  V30 47 H -2.403682 -6.554738 -0.674918 0
M  V30 48 H -2.534689 -4.994707 -1.542176 0
M  V30 49 H -3.933171 -5.555215 -0.460242 0
M  V30 END ATOM
M  V30 BEGIN BOND
M  V30 1 1 1 2
M  V30 2 2 2 3
M  V30 3 1 2 4
M  V30 4 2 4 5
M  V30 5 1 5 6
M  V30 6 2 6 7
M  V30 7 1 7 8
M  V30 8 2 8 9
M  V30 9 1 9 10
M  V30 10 2 10 11
M  V30 11 1 11 12
M  V30 12 2 12 13
M  V30 13 1 13 14
M  V30 14 1 14 15
M  V30 15 2 14 16
M  V30 16 2 14 17
M  V30 17 1 13 18
M  V30 18 2 18 19
M  V30 19 1 9 20
M  V30 20 2 20 21
M  V30 21 1 21 22
M  V30 22 2 22 23
M  V30 23 1 23 24
M  V30 24 1 24 25
M  V30 25 1 25 26
M  V30 26 1 25 27
M  V30 27 1 23 4
M  V30 28 1 22 7
M  V30 29 1 19 10
M  V30 30 1 1 28
M  V30 31 1 1 29
M  V30 32 1 1 30
M  V30 33 1 5 31
M  V30 34 1 8 32
M  V30 35 1 11 33
M  V30 36 1 12 34
M  V30 37 1 15 35
M  V30 38 1 15 36
M  V30 39 1 15 37
M  V30 40 1 18 38
M  V30 41 1 19 39
M  V30 42 1 20 40
M  V30 43 1 21 41
M  V30 44 1 24 42
M  V30 45 1 25 43
M  V30 46 1 26 44
M  V30 47 1 26 45
M  V30 48 1 26 46
M  V30 49 1 27 47
M  V30 50 1 27 48
M  V30 51 1 27 49
M  V30 END BOND
M  V30 END CTAB
M  END
>  <Dataset>  (950) 
ChEMBL_Kinases

>  <Ligand_Instance>  (950) 
nan

>  <PDB_ID>  (950) 
nan

>  <Standardized_SMILES>  (950) 
CC(=O)c1cnc2cc(-c3ccc(S(C)(=O)=O)cc3)ccc2c1NC(C)C

>  <Name>  (950) 
nan

>  <Pocket>  (950) 
nan

>  <ATP_Site>  (950) 
nan

>  <Peripheral>  (950) 
nan

>  <Num_H_Atoms_ProtBoundConf>  (950) 
nan

>  <Num_Resolved_Atoms>  (950) 
nan

>  <Num_Not_Resolved_Atoms>  (950) 
nan

$$$$
CHEMBL2347818
     RDKit          3D

  0  0  0  0  0  0  0  0  0  0999 V3000
M  V30 BEGIN CTAB
M  V30 COUNTS 50 54 0 0 0
M  V30 BEGIN ATOM
M  V30 1 C -2.454551 -5.434483 1.025658 0
M  V30 2 C -1.881907 -4.546015 -0.065356 0 CFG=1
M  V30 3 N -0.530850 -4.246502 0.256559 0
M  V30 4 C 0.567233 -3.514715 -0.272585 0
M  V30 5 C 1.547276 -3.969632 -1.128926 0
M  V30 6 C 1.452195 -5.335282 -1.525514 0
M  V30 7 N 1.390384 -6.457363 -1.864002 0
M  V30 8 C 2.563233 -3.150788 -1.574490 0
M  V30 9 N 2.592780 -1.853865 -1.150984 0
M  V30 10 C 1.653398 -1.380552 -0.317323 0
M  V30 11 C 1.804783 -0.037745 0.035026 0
M  V30 12 C 0.848294 0.494460 0.901320 0
M  V30 13 C 0.922504 1.890452 1.327572 0
M  V30 14 C -0.208865 2.628211 1.616580 0
M  V30 15 C -0.048711 3.944306 2.014141 0
M  V30 16 C 1.215807 4.497216 2.116309 0
M  V30 17 N 1.468812 5.856775 2.522570 0
M  V30 18 C 1.888419 5.955625 3.802032 0
M  V30 19 C 2.086549 7.321152 4.035903 0
M  V30 20 O 1.785775 7.946962 2.923289 0
M  V30 21 C 1.410679 7.090033 1.995271 0
M  V30 22 O 1.033917 7.147950 0.805379 0
M  V30 23 C 2.373923 3.776903 1.831232 0
M  V30 24 C 2.181370 2.449312 1.431865 0
M  V30 25 C -0.190037 -0.304347 1.369597 0
M  V30 26 C -0.312817 -1.638307 0.999888 0
M  V30 27 C 0.626878 -2.179395 0.142552 0
M  V30 28 C -2.068552 -5.249852 -1.385483 0
M  V30 29 C -3.549803 -5.535212 -1.717071 0
M  V30 30 C -2.755477 -4.569155 -2.520703 0
M  V30 31 H -3.372687 -5.931983 0.657241 0
M  V30 32 H -2.702601 -4.759013 1.880373 0
M  V30 33 H -1.710062 -6.153652 1.421398 0
M  V30 34 H -2.522565 -3.614458 -0.052338 0
M  V30 35 H -0.064762 -4.615648 1.132085 0
M  V30 36 H 3.292667 -3.590228 -2.246560 0
M  V30 37 H 2.619450 0.565474 -0.340346 0
M  V30 38 H -1.186874 2.191191 1.534660 0
M  V30 39 H -0.872435 4.575436 2.253554 0
M  V30 40 H 2.107982 5.329579 4.661807 0
M  V30 41 H 2.412731 7.910028 4.886666 0
M  V30 42 H 3.370938 4.173256 1.899568 0
M  V30 43 H 3.051944 1.861624 1.203350 0
M  V30 44 H -0.910432 0.132944 2.034577 0
M  V30 45 H -1.126393 -2.252458 1.370822 0
M  V30 46 H -1.362721 -6.057069 -1.629052 0
M  V30 47 H -4.321597 -5.065471 -1.059270 0
M  V30 48 H -3.758668 -6.558778 -2.042311 0
M  V30 49 H -2.448787 -4.882804 -3.559177 0
M  V30 50 H -3.006242 -3.495556 -2.468087 0
M  V30 END ATOM
M  V30 BEGIN BOND
M  V30 1 1 1 2
M  V30 2 1 2 3
M  V30 3 1 3 4
M  V30 4 2 4 5
M  V30 5 1 5 6
M  V30 6 3 6 7
M  V30 7 1 5 8
M  V30 8 2 8 9
M  V30 9 1 9 10
M  V30 10 2 10 11
M  V30 11 1 11 12
M  V30 12 1 12 13
M  V30 13 2 13 14
M  V30 14 1 14 15
M  V30 15 2 15 16
M  V30 16 1 16 17
M  V30 17 1 17 18
M  V30 18 2 18 19
M  V30 19 1 19 20
M  V30 20 1 20 21
M  V30 21 2 21 22
M  V30 22 1 16 23
M  V30 23 2 23 24
M  V30 24 2 12 25
M  V30 25 1 25 26
M  V30 26 2 26 27
M  V30 27 1 2 28
M  V30 28 1 28 29
M  V30 29 1 29 30
M  V30 30 1 27 4
M  V30 31 1 30 28
M  V30 32 1 27 10
M  V30 33 1 24 13
M  V30 34 1 21 17
M  V30 35 1 1 31
M  V30 36 1 1 32
M  V30 37 1 1 33
M  V30 38 1 2 34 CFG=3
M  V30 39 1 3 35
M  V30 40 1 8 36
M  V30 41 1 11 37
M  V30 42 1 14 38
M  V30 43 1 15 39
M  V30 44 1 18 40
M  V30 45 1 19 41
M  V30 46 1 23 42
M  V30 47 1 24 43
M  V30 48 1 25 44
M  V30 49 1 26 45
M  V30 50 1 28 46
M  V30 51 1 29 47
M  V30 52 1 29 48
M  V30 53 1 30 49
M  V30 54 1 30 50
M  V30 END BOND
M  V30 END CTAB
M  END
>  <Dataset>  (951) 
ChEMBL_Kinases

>  <Ligand_Instance>  (951) 
nan

>  <PDB_ID>  (951) 
nan

>  <Standardized_SMILES>  (951) 
C[C@@H](Nc1c(C#N)cnc2cc(-c3ccc(-n4ccoc4=O)cc3)ccc12)C1CC1

>  <Name>  (951) 
nan

>  <Pocket>  (951) 
nan

>  <ATP_Site>  (951) 
nan

>  <Peripheral>  (951) 
nan

>  <Num_H_Atoms_ProtBoundConf>  (951) 
nan

>  <Num_Resolved_Atoms>  (951) 
nan

>  <Num_Not_Resolved_Atoms>  (951) 
nan

$$$$
CHEMBL2347817
     RDKit          3D

  0  0  0  0  0  0  0  0  0  0999 V3000
M  V30 BEGIN CTAB
M  V30 COUNTS 49 52 0 0 0
M  V30 BEGIN ATOM
M  V30 1 C -0.150167 -5.383215 -0.875325 0
M  V30 2 C -0.395278 -4.018989 -1.496433 0 CFG=1
M  V30 3 N 0.794131 -3.243494 -1.647178 0
M  V30 4 C 1.599636 -2.860584 -0.545777 0
M  V30 5 C 2.664308 -3.524044 0.004369 0
M  V30 6 C 3.023601 -4.765291 -0.618090 0
M  V30 7 N 3.314862 -5.763884 -1.139343 0
M  V30 8 C 3.360698 -3.040883 1.086861 0
M  V30 9 N 2.989419 -1.869642 1.635454 0
M  V30 10 C 1.953191 -1.167497 1.144126 0
M  V30 11 C 1.646213 0.027341 1.777053 0
M  V30 12 C 0.590495 0.780586 1.307553 0
M  V30 13 C 0.232081 2.044247 1.945564 0
M  V30 14 C 0.462260 2.129815 3.325624 0
M  V30 15 C 0.171671 3.261786 4.072291 0
M  V30 16 C -0.367942 4.335144 3.393605 0
M  V30 17 S -0.728176 5.761847 4.378148 0
M  V30 18 C -2.353079 5.671286 5.012624 0
M  V30 19 O -0.498359 6.997083 3.529240 0
M  V30 20 O 0.245432 5.870081 5.515972 0
M  V30 21 C -0.613549 4.301747 2.036234 0
M  V30 22 C -0.309147 3.153901 1.330523 0
M  V30 23 C -0.102675 0.287003 0.219925 0
M  V30 24 C 0.168621 -0.894568 -0.438478 0
M  V30 25 C 1.243695 -1.645281 0.052608 0
M  V30 26 C -1.163605 -4.130027 -2.788442 0
M  V30 27 C -2.518703 -4.745220 -2.765473 0
M  V30 28 C -1.369567 -5.432910 -3.473842 0
M  V30 29 H 0.268538 -5.239986 0.141713 0
M  V30 30 H 0.546231 -6.006961 -1.452632 0
M  V30 31 H -1.107363 -5.941460 -0.802374 0
M  V30 32 H -1.064329 -3.492109 -0.752472 0
M  V30 33 H 1.111325 -2.930190 -2.583200 0
M  V30 34 H 4.193725 -3.590748 1.493025 0
M  V30 35 H 2.232583 0.354245 2.625569 0
M  V30 36 H 0.890301 1.290870 3.888912 0
M  V30 37 H 0.367561 3.278711 5.134309 0
M  V30 38 H -3.061299 6.382486 4.539906 0
M  V30 39 H -2.335731 5.875919 6.100890 0
M  V30 40 H -2.800779 4.637605 4.922643 0
M  V30 41 H -1.035126 5.158261 1.542020 0
M  V30 42 H -0.473799 3.056092 0.269390 0
M  V30 43 H -0.948709 0.855717 -0.184585 0
M  V30 44 H -0.398106 -1.238039 -1.280670 0
M  V30 45 H -1.076797 -3.247501 -3.470033 0
M  V30 46 H -3.347459 -4.304815 -3.356553 0
M  V30 47 H -2.885344 -5.325565 -1.888348 0
M  V30 48 H -0.923605 -6.352515 -3.040057 0
M  V30 49 H -1.448987 -5.463808 -4.581244 0
M  V30 END ATOM
M  V30 BEGIN BOND
M  V30 1 1 1 2
M  V30 2 1 2 3
M  V30 3 1 3 4
M  V30 4 2 4 5
M  V30 5 1 5 6
M  V30 6 3 6 7
M  V30 7 1 5 8
M  V30 8 2 8 9
M  V30 9 1 9 10
M  V30 10 2 10 11
M  V30 11 1 11 12
M  V30 12 1 12 13
M  V30 13 2 13 14
M  V30 14 1 14 15
M  V30 15 2 15 16
M  V30 16 1 16 17
M  V30 17 1 17 18
M  V30 18 2 17 19
M  V30 19 2 17 20
M  V30 20 1 16 21
M  V30 21 2 21 22
M  V30 22 2 12 23
M  V30 23 1 23 24
M  V30 24 2 24 25
M  V30 25 1 2 26
M  V30 26 1 26 27
M  V30 27 1 27 28
M  V30 28 1 25 4
M  V30 29 1 28 26
M  V30 30 1 25 10
M  V30 31 1 22 13
M  V30 32 1 1 29
M  V30 33 1 1 30
M  V30 34 1 1 31
M  V30 35 1 2 32 CFG=1
M  V30 36 1 3 33
M  V30 37 1 8 34
M  V30 38 1 11 35
M  V30 39 1 14 36
M  V30 40 1 15 37
M  V30 41 1 18 38
M  V30 42 1 18 39
M  V30 43 1 18 40
M  V30 44 1 21 41
M  V30 45 1 22 42
M  V30 46 1 23 43
M  V30 47 1 24 44
M  V30 48 1 26 45
M  V30 49 1 27 46
M  V30 50 1 27 47
M  V30 51 1 28 48
M  V30 52 1 28 49
M  V30 END BOND
M  V30 END CTAB
M  END
>  <Dataset>  (952) 
ChEMBL_Kinases

>  <Ligand_Instance>  (952) 
nan

>  <PDB_ID>  (952) 
nan

>  <Standardized_SMILES>  (952) 
C[C@@H](Nc1c(C#N)cnc2cc(-c3ccc(S(C)(=O)=O)cc3)ccc12)C1CC1

>  <Name>  (952) 
nan

>  <Pocket>  (952) 
nan

>  <ATP_Site>  (952) 
nan

>  <Peripheral>  (952) 
nan

>  <Num_H_Atoms_ProtBoundConf>  (952) 
nan

>  <Num_Resolved_Atoms>  (952) 
nan

>  <Num_Not_Resolved_Atoms>  (952) 
nan

$$$$
CHEMBL2347816
     RDKit          3D

  0  0  0  0  0  0  0  0  0  0999 V3000
M  V30 BEGIN CTAB
M  V30 COUNTS 44 46 0 0 0
M  V30 BEGIN ATOM
M  V30 1 C -1.258878 -2.662406 -3.140953 0
M  V30 2 C -1.395317 -1.249314 -3.638822 0
M  V30 3 O -2.543582 -1.146210 -4.184488 0
M  V30 4 N -0.388738 -0.244507 -3.499232 0
M  V30 5 C -0.803269 1.029266 -4.079863 0
M  V30 6 C 0.803731 -0.682034 -2.829696 0
M  V30 7 C 1.865231 -1.221000 -3.526262 0
M  V30 8 C 1.815598 -1.363710 -4.953012 0
M  V30 9 N 1.775421 -1.467963 -6.110513 0
M  V30 10 C 2.953057 -1.602158 -2.757952 0
M  V30 11 N 2.969875 -1.454889 -1.421983 0
M  V30 12 C 1.943843 -0.931563 -0.727656 0
M  V30 13 C 1.957723 -0.778868 0.645907 0
M  V30 14 C 0.870696 -0.233657 1.302027 0
M  V30 15 C 0.834549 -0.050013 2.755765 0
M  V30 16 C 0.113618 1.007501 3.279112 0
M  V30 17 C 0.071738 1.191625 4.651582 0
M  V30 18 C 0.760075 0.304154 5.488926 0
M  V30 19 S 0.619746 0.657990 7.200630 0
M  V30 20 C -0.807199 -0.202043 7.880373 0
M  V30 21 O 0.531532 2.114123 7.463538 0
M  V30 22 O 1.816525 0.028999 7.876026 0
M  V30 23 C 1.470492 -0.741578 4.934135 0
M  V30 24 C 1.520116 -0.935814 3.569008 0
M  V30 25 C -0.259244 0.170704 0.578275 0
M  V30 26 C -0.257424 0.011484 -0.793029 0
M  V30 27 C 0.825232 -0.532809 -1.457534 0
M  V30 28 H -1.418510 -3.367705 -3.966307 0
M  V30 29 H -1.988223 -2.892793 -2.346010 0
M  V30 30 H -0.212598 -2.850162 -2.763941 0
M  V30 31 H 0.001722 1.780260 -3.989152 0
M  V30 32 H -1.725021 1.384322 -3.536819 0
M  V30 33 H -1.099950 0.813672 -5.126539 0
M  V30 34 H 3.812303 -2.031169 -3.260475 0
M  V30 35 H 2.814920 -1.084199 1.209560 0
M  V30 36 H -0.418056 1.692039 2.630777 0
M  V30 37 H -0.506381 2.034123 5.014437 0
M  V30 38 H -0.913191 -0.001079 8.949974 0
M  V30 39 H -0.825561 -1.245547 7.569763 0
M  V30 40 H -1.699532 0.280606 7.391122 0
M  V30 41 H 1.961924 -1.363243 5.667253 0
M  V30 42 H 2.095298 -1.776115 3.190713 0
M  V30 43 H -1.143225 0.608084 1.061667 0
M  V30 44 H -1.143181 0.332775 -1.322748 0
M  V30 END ATOM
M  V30 BEGIN BOND
M  V30 1 1 1 2
M  V30 2 2 2 3
M  V30 3 1 2 4
M  V30 4 1 4 5
M  V30 5 1 4 6
M  V30 6 2 6 7
M  V30 7 1 7 8
M  V30 8 3 8 9
M  V30 9 1 7 10
M  V30 10 2 10 11
M  V30 11 1 11 12
M  V30 12 2 12 13
M  V30 13 1 13 14
M  V30 14 1 14 15
M  V30 15 2 15 16
M  V30 16 1 16 17
M  V30 17 2 17 18
M  V30 18 1 18 19
M  V30 19 1 19 20
M  V30 20 2 19 21
M  V30 21 2 19 22
M  V30 22 1 18 23
M  V30 23 2 23 24
M  V30 24 2 14 25
M  V30 25 1 25 26
M  V30 26 2 26 27
M  V30 27 1 27 6
M  V30 28 1 27 12
M  V30 29 1 24 15
M  V30 30 1 1 28
M  V30 31 1 1 29
M  V30 32 1 1 30
M  V30 33 1 5 31
M  V30 34 1 5 32
M  V30 35 1 5 33
M  V30 36 1 10 34
M  V30 37 1 13 35
M  V30 38 1 16 36
M  V30 39 1 17 37
M  V30 40 1 20 38
M  V30 41 1 20 39
M  V30 42 1 20 40
M  V30 43 1 23 41
M  V30 44 1 24 42
M  V30 45 1 25 43
M  V30 46 1 26 44
M  V30 END BOND
M  V30 END CTAB
M  END
>  <Dataset>  (953) 
ChEMBL_Kinases

>  <Ligand_Instance>  (953) 
nan

>  <PDB_ID>  (953) 
nan

>  <Standardized_SMILES>  (953) 
CC(=O)N(C)c1c(C#N)cnc2cc(-c3ccc(S(C)(=O)=O)cc3)ccc12

>  <Name>  (953) 
nan

>  <Pocket>  (953) 
nan

>  <ATP_Site>  (953) 
nan

>  <Peripheral>  (953) 
nan

>  <Num_H_Atoms_ProtBoundConf>  (953) 
nan

>  <Num_Resolved_Atoms>  (953) 
nan

>  <Num_Not_Resolved_Atoms>  (953) 
nan

$$$$
CHEMBL2347815
     RDKit          3D

  0  0  0  0  0  0  0  0  0  0999 V3000
M  V30 BEGIN CTAB
M  V30 COUNTS 41 44 0 0 0
M  V30 BEGIN ATOM
M  V30 1 C 1.708838 -6.958850 3.161547 0
M  V30 2 S 2.251024 -6.499317 1.513414 0
M  V30 3 O 1.540945 -7.411142 0.553172 0
M  V30 4 O 3.729909 -6.536807 1.371310 0
M  V30 5 C 1.662103 -4.872249 1.246379 0
M  V30 6 C 2.508960 -3.851361 1.631364 0
M  V30 7 C 2.074880 -2.537914 1.434222 0
M  V30 8 C 0.838265 -2.287162 0.872354 0
M  V30 9 C 0.430272 -0.896890 0.687698 0
M  V30 10 C 1.349733 0.100892 0.425225 0
M  V30 11 C 0.860101 1.403600 0.262132 0
M  V30 12 C -0.497861 1.615964 0.371559 0
M  V30 13 C -1.002903 2.887779 0.214921 0
M  V30 14 N -0.135610 3.995101 -0.059460 0
M  V30 15 C 0.043193 4.706047 -1.174715 0
M  V30 16 C 1.013068 5.663020 -0.864566 0
M  V30 17 N 1.382072 5.496590 0.416716 0
M  V30 18 C 0.670429 4.460489 0.921592 0
M  V30 19 C -2.363454 3.198464 0.307946 0
M  V30 20 C -2.872580 4.519958 0.143497 0
M  V30 21 N -3.296317 5.591346 -0.006646 0
M  V30 22 C -3.180708 2.098040 0.576491 0
M  V30 23 N -2.738035 0.840121 0.737428 0
M  V30 24 C -1.411911 0.614230 0.634162 0
M  V30 25 C -0.937553 -0.673504 0.796314 0
M  V30 26 C 0.046304 -3.348605 0.512498 0
M  V30 27 C 0.417827 -4.680573 0.681144 0
M  V30 28 H 2.509421 -7.525558 3.687854 0
M  V30 29 H 1.505402 -6.057062 3.789440 0
M  V30 30 H 0.748088 -7.512085 3.110937 0
M  V30 31 H 3.476764 -4.049151 2.071479 0
M  V30 32 H 2.744771 -1.740021 1.738199 0
M  V30 33 H 2.401470 -0.123137 0.350744 0
M  V30 34 H 1.568195 2.205191 0.054043 0
M  V30 35 H -0.521094 4.465139 -2.047773 0
M  V30 36 H 1.328096 6.373828 -1.641815 0
M  V30 37 H 0.778557 4.111072 1.956191 0
M  V30 38 H -4.265588 2.258252 0.664714 0
M  V30 39 H -1.637846 -1.479549 1.003725 0
M  V30 40 H -0.940190 -3.170177 0.064813 0
M  V30 41 H -0.234203 -5.490062 0.384831 0
M  V30 END ATOM
M  V30 BEGIN BOND
M  V30 1 1 1 2
M  V30 2 2 2 3
M  V30 3 2 2 4
M  V30 4 1 2 5
M  V30 5 2 5 6
M  V30 6 1 6 7
M  V30 7 2 7 8
M  V30 8 1 8 9
M  V30 9 2 9 10
M  V30 10 1 10 11
M  V30 11 2 11 12
M  V30 12 1 12 13
M  V30 13 1 13 14
M  V30 14 1 14 15
M  V30 15 2 15 16
M  V30 16 1 16 17
M  V30 17 2 17 18
M  V30 18 2 13 19
M  V30 19 1 19 20
M  V30 20 3 20 21
M  V30 21 1 19 22
M  V30 22 2 22 23
M  V30 23 1 23 24
M  V30 24 2 24 25
M  V30 25 1 8 26
M  V30 26 2 26 27
M  V30 27 1 27 5
M  V30 28 1 25 9
M  V30 29 1 24 12
M  V30 30 1 18 14
M  V30 31 1 1 28
M  V30 32 1 1 29
M  V30 33 1 1 30
M  V30 34 1 6 31
M  V30 35 1 7 32
M  V30 36 1 10 33
M  V30 37 1 11 34
M  V30 38 1 15 35
M  V30 39 1 16 36
M  V30 40 1 18 37
M  V30 41 1 22 38
M  V30 42 1 25 39
M  V30 43 1 26 40
M  V30 44 1 27 41
M  V30 END BOND
M  V30 END CTAB
M  END
>  <Dataset>  (954) 
ChEMBL_Kinases

>  <Ligand_Instance>  (954) 
nan

>  <PDB_ID>  (954) 
nan

>  <Standardized_SMILES>  (954) 
CS(=O)(=O)c1ccc(-c2ccc3c(-n4ccnc4)c(C#N)cnc3c2)cc1

>  <Name>  (954) 
nan

>  <Pocket>  (954) 
nan

>  <ATP_Site>  (954) 
nan

>  <Peripheral>  (954) 
nan

>  <Num_H_Atoms_ProtBoundConf>  (954) 
nan

>  <Num_Resolved_Atoms>  (954) 
nan

>  <Num_Not_Resolved_Atoms>  (954) 
nan

$$$$
CHEMBL2347814
     RDKit          3D

  0  0  0  0  0  0  0  0  0  0999 V3000
M  V30 BEGIN CTAB
M  V30 COUNTS 49 52 0 0 0
M  V30 BEGIN ATOM
M  V30 1 C 1.201791 3.625423 1.282788 0
M  V30 2 N 2.050384 2.426966 1.271064 0
M  V30 3 C 2.903276 2.124247 2.331795 0
M  V30 4 C 3.699127 0.989870 2.310579 0
M  V30 5 C 4.518941 0.761143 3.404025 0
M  V30 6 C 4.582406 1.605920 4.512512 0
M  V30 7 C 3.780932 2.747568 4.533254 0
M  V30 8 C 2.978277 2.948318 3.434937 0
M  V30 9 C 1.939658 1.607930 0.113829 0
M  V30 10 C 2.756720 1.826565 -0.984375 0
M  V30 11 C 3.707886 2.898973 -0.906869 0
M  V30 12 N 4.470011 3.768467 -0.846609 0
M  V30 13 C 2.667651 1.042213 -2.125012 0
M  V30 14 N 1.760415 0.023443 -2.191278 0
M  V30 15 C 0.950688 -0.218939 -1.145182 0
M  V30 16 C 0.046694 -1.259209 -1.252464 0
M  V30 17 C -0.803779 -1.543417 -0.202070 0
M  V30 18 C -1.798388 -2.612447 -0.196733 0
M  V30 19 C -2.363628 -2.914854 -1.418702 0
M  V30 20 C -3.327211 -3.928462 -1.507137 0
M  V30 21 C -3.640478 -4.561992 -0.318153 0
M  V30 22 S -4.830123 -5.840580 -0.323201 0
M  V30 23 C -6.478697 -5.189191 -0.041862 0
M  V30 24 O -4.602657 -6.881894 0.712152 0
M  V30 25 O -4.895441 -6.537720 -1.663846 0
M  V30 26 C -3.085696 -4.272938 0.912150 0
M  V30 27 C -2.131777 -3.262762 0.972908 0
M  V30 28 C -0.692816 -0.743067 0.926169 0
M  V30 29 C 0.199787 0.303985 1.064786 0
M  V30 30 C 1.046476 0.564646 -0.018050 0
M  V30 31 H 0.341694 3.436664 1.981054 0
M  V30 32 H 0.777362 3.852103 0.302777 0
M  V30 33 H 1.844232 4.455192 1.652431 0
M  V30 34 H 3.660637 0.330530 1.464664 0
M  V30 35 H 5.163135 -0.126239 3.422079 0
M  V30 36 H 5.247668 1.370258 5.340610 0
M  V30 37 H 3.828150 3.396417 5.382380 0
M  V30 38 H 2.378789 3.868341 3.528831 0
M  V30 39 H 3.317222 1.230386 -2.974224 0
M  V30 40 H -0.037757 -1.879905 -2.129943 0
M  V30 41 H -2.121631 -2.422859 -2.351767 0
M  V30 42 H -3.822205 -4.232572 -2.418789 0
M  V30 43 H -6.606691 -4.833445 0.994323 0
M  V30 44 H -7.247234 -5.890527 -0.372118 0
M  V30 45 H -6.586236 -4.288075 -0.680279 0
M  V30 46 H -3.364928 -4.798160 1.812986 0
M  V30 47 H -1.679148 -3.014153 1.922410 0
M  V30 48 H -1.346519 -0.941261 1.768139 0
M  V30 49 H 0.235935 0.881647 1.958631 0
M  V30 END ATOM
M  V30 BEGIN BOND
M  V30 1 1 1 2
M  V30 2 1 2 3
M  V30 3 2 3 4
M  V30 4 1 4 5
M  V30 5 2 5 6
M  V30 6 1 6 7
M  V30 7 2 7 8
M  V30 8 1 2 9
M  V30 9 2 9 10
M  V30 10 1 10 11
M  V30 11 3 11 12
M  V30 12 1 10 13
M  V30 13 2 13 14
M  V30 14 1 14 15
M  V30 15 2 15 16
M  V30 16 1 16 17
M  V30 17 1 17 18
M  V30 18 2 18 19
M  V30 19 1 19 20
M  V30 20 2 20 21
M  V30 21 1 21 22
M  V30 22 1 22 23
M  V30 23 2 22 24
M  V30 24 2 22 25
M  V30 25 1 21 26
M  V30 26 2 26 27
M  V30 27 2 17 28
M  V30 28 1 28 29
M  V30 29 2 29 30
M  V30 30 1 8 3
M  V30 31 1 30 9
M  V30 32 1 30 15
M  V30 33 1 27 18
M  V30 34 1 1 31
M  V30 35 1 1 32
M  V30 36 1 1 33
M  V30 37 1 4 34
M  V30 38 1 5 35
M  V30 39 1 6 36
M  V30 40 1 7 37
M  V30 41 1 8 38
M  V30 42 1 13 39
M  V30 43 1 16 40
M  V30 44 1 19 41
M  V30 45 1 20 42
M  V30 46 1 23 43
M  V30 47 1 23 44
M  V30 48 1 23 45
M  V30 49 1 26 46
M  V30 50 1 27 47
M  V30 51 1 28 48
M  V30 52 1 29 49
M  V30 END BOND
M  V30 END CTAB
M  END
>  <Dataset>  (955) 
ChEMBL_Kinases

>  <Ligand_Instance>  (955) 
nan

>  <PDB_ID>  (955) 
nan

>  <Standardized_SMILES>  (955) 
CN(c1ccccc1)c1c(C#N)cnc2cc(-c3ccc(S(C)(=O)=O)cc3)ccc12

>  <Name>  (955) 
nan

>  <Pocket>  (955) 
nan

>  <ATP_Site>  (955) 
nan

>  <Peripheral>  (955) 
nan

>  <Num_H_Atoms_ProtBoundConf>  (955) 
nan

>  <Num_Resolved_Atoms>  (955) 
nan

>  <Num_Not_Resolved_Atoms>  (955) 
nan

$$$$
CHEMBL2347813
     RDKit          3D

  0  0  0  0  0  0  0  0  0  0999 V3000
M  V30 BEGIN CTAB
M  V30 COUNTS 51 54 0 0 0
M  V30 BEGIN ATOM
M  V30 1 C -0.159993 -4.433224 -1.745047 0
M  V30 2 N 0.900881 -3.922343 -2.602978 0
M  V30 3 C 0.467465 -2.875025 -3.443289 0
M  V30 4 C 1.349884 -1.707210 -3.649566 0
M  V30 5 N 2.119593 -1.368119 -2.448377 0
M  V30 6 C 2.213878 -0.215670 -1.658096 0
M  V30 7 C 3.198270 0.708697 -2.006565 0
M  V30 8 C 4.068799 0.465491 -3.132081 0
M  V30 9 N 4.775197 0.270599 -4.012732 0
M  V30 10 C 3.366634 1.862552 -1.295874 0
M  V30 11 N 2.588521 2.156379 -0.228236 0
M  V30 12 C 1.621272 1.294917 0.150132 0
M  V30 13 C 0.797071 1.551063 1.232893 0
M  V30 14 C -0.189980 0.679098 1.618308 0
M  V30 15 C -1.085566 0.891474 2.750995 0
M  V30 16 C -0.690379 1.574885 3.901034 0
M  V30 17 C -1.557437 1.770527 4.974434 0
M  V30 18 C -2.846431 1.278775 4.909527 0
M  V30 19 S -4.030689 1.445340 6.198123 0
M  V30 20 C -3.983489 -0.004921 7.261827 0
M  V30 21 O -3.596365 2.589314 7.076966 0
M  V30 22 O -5.401488 1.706211 5.708615 0
M  V30 23 C -3.229114 0.604176 3.767964 0
M  V30 24 C -2.381808 0.395569 2.682291 0
M  V30 25 C -0.351405 -0.500306 0.880050 0
M  V30 26 C 0.463878 -0.792160 -0.220404 0
M  V30 27 C 1.447931 0.131984 -0.562258 0
M  V30 28 C 2.904547 -2.560939 -2.130850 0
M  V30 29 C 2.068794 -3.757354 -1.846846 0
M  V30 30 H -0.136990 -5.556722 -1.705086 0
M  V30 31 H -1.155646 -4.062986 -2.063102 0
M  V30 32 H 0.010201 -4.091484 -0.702848 0
M  V30 33 H 0.270126 -3.332293 -4.458152 0
M  V30 34 H -0.532035 -2.523377 -3.115154 0
M  V30 35 H 0.789527 -0.815950 -3.944104 0
M  V30 36 H 2.062020 -1.919297 -4.476578 0
M  V30 37 H 4.123786 2.556701 -1.575956 0
M  V30 38 H 0.920432 2.477712 1.816799 0
M  V30 39 H 0.326255 1.970889 3.968305 0
M  V30 40 H -1.259215 2.300133 5.871353 0
M  V30 41 H -5.007721 -0.200418 7.604792 0
M  V30 42 H -3.215489 0.055398 8.031106 0
M  V30 43 H -3.761301 -0.849353 6.543440 0
M  V30 44 H -4.223874 0.195868 3.655933 0
M  V30 45 H -2.727360 -0.145417 1.797490 0
M  V30 46 H -1.117791 -1.226088 1.141497 0
M  V30 47 H 0.320643 -1.702427 -0.770414 0
M  V30 48 H 3.579864 -2.309050 -1.292657 0
M  V30 49 H 3.578027 -2.775860 -3.009281 0
M  V30 50 H 1.834567 -3.747111 -0.742201 0
M  V30 51 H 2.721209 -4.665357 -1.980482 0
M  V30 END ATOM
M  V30 BEGIN BOND
M  V30 1 1 1 2
M  V30 2 1 2 3
M  V30 3 1 3 4
M  V30 4 1 4 5
M  V30 5 1 5 6
M  V30 6 2 6 7
M  V30 7 1 7 8
M  V30 8 3 8 9
M  V30 9 1 7 10
M  V30 10 2 10 11
M  V30 11 1 11 12
M  V30 12 2 12 13
M  V30 13 1 13 14
M  V30 14 1 14 15
M  V30 15 2 15 16
M  V30 16 1 16 17
M  V30 17 2 17 18
M  V30 18 1 18 19
M  V30 19 1 19 20
M  V30 20 2 19 21
M  V30 21 2 19 22
M  V30 22 1 18 23
M  V30 23 2 23 24
M  V30 24 2 14 25
M  V30 25 1 25 26
M  V30 26 2 26 27
M  V30 27 1 5 28
M  V30 28 1 28 29
M  V30 29 1 29 2
M  V30 30 1 27 6
M  V30 31 1 27 12
M  V30 32 1 24 15
M  V30 33 1 1 30
M  V30 34 1 1 31
M  V30 35 1 1 32
M  V30 36 1 3 33
M  V30 37 1 3 34
M  V30 38 1 4 35
M  V30 39 1 4 36
M  V30 40 1 10 37
M  V30 41 1 13 38
M  V30 42 1 16 39
M  V30 43 1 17 40
M  V30 44 1 20 41
M  V30 45 1 20 42
M  V30 46 1 20 43
M  V30 47 1 23 44
M  V30 48 1 24 45
M  V30 49 1 25 46
M  V30 50 1 26 47
M  V30 51 1 28 48
M  V30 52 1 28 49
M  V30 53 1 29 50
M  V30 54 1 29 51
M  V30 END BOND
M  V30 END CTAB
M  END
>  <Dataset>  (956) 
ChEMBL_Kinases

>  <Ligand_Instance>  (956) 
nan

>  <PDB_ID>  (956) 
nan

>  <Standardized_SMILES>  (956) 
CN1CCN(c2c(C#N)cnc3cc(-c4ccc(S(C)(=O)=O)cc4)ccc23)CC1

>  <Name>  (956) 
nan

>  <Pocket>  (956) 
nan

>  <ATP_Site>  (956) 
nan

>  <Peripheral>  (956) 
nan

>  <Num_H_Atoms_ProtBoundConf>  (956) 
nan

>  <Num_Resolved_Atoms>  (956) 
nan

>  <Num_Not_Resolved_Atoms>  (956) 
nan

$$$$
CHEMBL2347812
     RDKit          3D

  0  0  0  0  0  0  0  0  0  0999 V3000
M  V30 BEGIN CTAB
M  V30 COUNTS 49 52 0 0 0
M  V30 BEGIN ATOM
M  V30 1 C 2.022321 -8.116266 -0.864758 0
M  V30 2 S 1.713247 -7.009060 -2.235295 0
M  V30 3 O 0.629450 -7.555140 -3.086749 0
M  V30 4 O 2.979477 -6.955730 -3.023322 0
M  V30 5 C 1.286207 -5.403869 -1.635807 0
M  V30 6 C 2.258846 -4.426722 -1.393913 0
M  V30 7 C 1.865613 -3.185846 -0.924559 0
M  V30 8 C 0.526092 -2.935857 -0.704604 0
M  V30 9 C -0.012025 -1.658385 -0.208741 0
M  V30 10 C 0.700409 -0.834601 0.668261 0
M  V30 11 C 0.171918 0.360022 1.118568 0
M  V30 12 C -1.082178 0.747218 0.694902 0
M  V30 13 C -1.544969 1.950752 1.184345 0
M  V30 14 N -0.872246 2.829857 2.077641 0
M  V30 15 C -0.024757 3.851237 1.518467 0
M  V30 16 C 0.708163 4.499688 2.701603 0
M  V30 17 C 1.362714 3.370130 3.468260 0
M  V30 18 C 0.319393 2.536828 4.177333 0
M  V30 19 C -1.003458 2.747428 3.519721 0
M  V30 20 C -2.800438 2.347387 0.764480 0
M  V30 21 C -3.409799 3.589654 1.200515 0
M  V30 22 N -3.913625 4.573967 1.542968 0
M  V30 23 C -3.540034 1.566383 -0.100961 0
M  V30 24 N -3.044012 0.391847 -0.555005 0
M  V30 25 C -1.823900 -0.030360 -0.169356 0
M  V30 26 C -1.263412 -1.218607 -0.598892 0
M  V30 27 C -0.439095 -3.911972 -0.946844 0
M  V30 28 C -0.065909 -5.176835 -1.422418 0
M  V30 29 H 2.996380 -7.971253 -0.399448 0
M  V30 30 H 1.785775 -9.156556 -1.165253 0
M  V30 31 H 1.256783 -7.844151 -0.095042 0
M  V30 32 H 3.290482 -4.651692 -1.574880 0
M  V30 33 H 2.564677 -2.394813 -0.719891 0
M  V30 34 H 1.681019 -1.153634 0.989266 0
M  V30 35 H 0.760867 0.961002 1.794371 0
M  V30 36 H 0.730387 3.506763 0.813166 0
M  V30 37 H -0.677865 4.679349 1.113643 0
M  V30 38 H -0.001909 5.027988 3.352710 0
M  V30 39 H 1.452293 5.220237 2.346809 0
M  V30 40 H 2.062723 3.741124 4.240880 0
M  V30 41 H 1.987997 2.781993 2.761714 0
M  V30 42 H 0.266502 2.838987 5.259917 0
M  V30 43 H 0.618335 1.466637 4.211545 0
M  V30 44 H -1.456762 3.701368 3.905339 0
M  V30 45 H -1.718247 1.950748 3.825262 0
M  V30 46 H -4.525431 1.781280 -0.489173 0
M  V30 47 H -1.878384 -1.795927 -1.275320 0
M  V30 48 H -1.507255 -3.793498 -0.799664 0
M  V30 49 H -0.799459 -5.946550 -1.616192 0
M  V30 END ATOM
M  V30 BEGIN BOND
M  V30 1 1 1 2
M  V30 2 2 2 3
M  V30 3 2 2 4
M  V30 4 1 2 5
M  V30 5 2 5 6
M  V30 6 1 6 7
M  V30 7 2 7 8
M  V30 8 1 8 9
M  V30 9 2 9 10
M  V30 10 1 10 11
M  V30 11 2 11 12
M  V30 12 1 12 13
M  V30 13 1 13 14
M  V30 14 1 14 15
M  V30 15 1 15 16
M  V30 16 1 16 17
M  V30 17 1 17 18
M  V30 18 1 18 19
M  V30 19 2 13 20
M  V30 20 1 20 21
M  V30 21 3 21 22
M  V30 22 1 20 23
M  V30 23 2 23 24
M  V30 24 1 24 25
M  V30 25 2 25 26
M  V30 26 1 8 27
M  V30 27 2 27 28
M  V30 28 1 28 5
M  V30 29 1 26 9
M  V30 30 1 25 12
M  V30 31 1 19 14
M  V30 32 1 1 29
M  V30 33 1 1 30
M  V30 34 1 1 31
M  V30 35 1 6 32
M  V30 36 1 7 33
M  V30 37 1 10 34
M  V30 38 1 11 35
M  V30 39 1 15 36
M  V30 40 1 15 37
M  V30 41 1 16 38
M  V30 42 1 16 39
M  V30 43 1 17 40
M  V30 44 1 17 41
M  V30 45 1 18 42
M  V30 46 1 18 43
M  V30 47 1 19 44
M  V30 48 1 19 45
M  V30 49 1 23 46
M  V30 50 1 26 47
M  V30 51 1 27 48
M  V30 52 1 28 49
M  V30 END BOND
M  V30 END CTAB
M  END
>  <Dataset>  (957) 
ChEMBL_Kinases

>  <Ligand_Instance>  (957) 
nan

>  <PDB_ID>  (957) 
nan

>  <Standardized_SMILES>  (957) 
CS(=O)(=O)c1ccc(-c2ccc3c(N4CCCCC4)c(C#N)cnc3c2)cc1

>  <Name>  (957) 
nan

>  <Pocket>  (957) 
nan

>  <ATP_Site>  (957) 
nan

>  <Peripheral>  (957) 
nan

>  <Num_H_Atoms_ProtBoundConf>  (957) 
nan

>  <Num_Resolved_Atoms>  (957) 
nan

>  <Num_Not_Resolved_Atoms>  (957) 
nan

$$$$
CHEMBL2334580
     RDKit          3D

  0  0  0  0  0  0  0  0  0  0999 V3000
M  V30 BEGIN CTAB
M  V30 COUNTS 30 33 0 0 0
M  V30 BEGIN ATOM
M  V30 1 N 2.194660 -0.060605 5.194235 0
M  V30 2 C 1.649318 -0.750758 4.074051 0
M  V30 3 N 1.330055 -2.063990 4.123075 0
M  V30 4 C 0.813643 -2.733674 3.074836 0
M  V30 5 C 0.590412 -2.071642 1.884086 0
M  V30 6 C 0.921817 -0.732075 1.851501 0
M  V30 7 N 1.437394 -0.075015 2.906990 0
M  V30 8 C 0.791409 0.214290 0.722101 0
M  V30 9 C 1.466992 1.420606 0.573977 0
M  V30 10 N 1.044602 1.950812 -0.594814 0
M  V30 11 C 0.140968 1.130549 -1.175725 0
M  V30 12 C -0.584867 1.201271 -2.358835 0
M  V30 13 C -1.448019 0.171497 -2.671842 0
M  V30 14 C -1.634815 -0.937153 -1.869653 0
M  V30 15 Cl -2.733020 -2.240352 -2.274742 0
M  V30 16 C -0.918736 -1.023835 -0.685846 0
M  V30 17 C -0.052461 0.017642 -0.379541 0
M  V30 18 C -1.169425 -2.230247 0.114453 0
M  V30 19 C 0.020797 -2.847584 0.756609 0
M  V30 20 H 1.568982 -0.129536 6.041470 0
M  V30 21 H 3.105227 0.456982 5.192120 0
M  V30 22 H 0.549761 -3.779838 3.084883 0
M  V30 23 H 2.167971 1.771792 1.304603 0
M  V30 24 H 1.373020 2.858807 -0.982625 0
M  V30 25 H -0.457829 2.063028 -3.010250 0
M  V30 26 H -2.016484 0.222051 -3.593685 0
M  V30 27 H -1.595819 -3.000874 -0.567861 0
M  V30 28 H -1.988080 -2.063040 0.871329 0
M  V30 29 H -0.195437 -3.884157 1.006847 0
M  V30 30 H 0.830840 -2.872093 -0.028843 0
M  V30 END ATOM
M  V30 BEGIN BOND
M  V30 1 1 1 2
M  V30 2 2 2 3
M  V30 3 1 3 4
M  V30 4 2 4 5
M  V30 5 1 5 6
M  V30 6 2 6 7
M  V30 7 1 6 8
M  V30 8 2 8 9
M  V30 9 1 9 10
M  V30 10 1 10 11
M  V30 11 2 11 12
M  V30 12 1 12 13
M  V30 13 2 13 14
M  V30 14 1 14 15
M  V30 15 1 14 16
M  V30 16 2 16 17
M  V30 17 1 16 18
M  V30 18 1 18 19
M  V30 19 1 7 2
M  V30 20 1 17 8
M  V30 21 1 19 5
M  V30 22 1 17 11
M  V30 23 1 1 20
M  V30 24 1 1 21
M  V30 25 1 4 22
M  V30 26 1 9 23
M  V30 27 1 10 24
M  V30 28 1 12 25
M  V30 29 1 13 26
M  V30 30 1 18 27
M  V30 31 1 18 28
M  V30 32 1 19 29
M  V30 33 1 19 30
M  V30 END BOND
M  V30 END CTAB
M  END
>  <Dataset>  (958) 
ChEMBL_Kinases

>  <Ligand_Instance>  (958) 
nan

>  <PDB_ID>  (958) 
nan

>  <Standardized_SMILES>  (958) 
Nc1ncc2c(n1)-c1c[nH]c3ccc(Cl)c(c13)CC2

>  <Name>  (958) 
nan

>  <Pocket>  (958) 
nan

>  <ATP_Site>  (958) 
nan

>  <Peripheral>  (958) 
nan

>  <Num_H_Atoms_ProtBoundConf>  (958) 
nan

>  <Num_Resolved_Atoms>  (958) 
nan

>  <Num_Not_Resolved_Atoms>  (958) 
nan

$$$$
CHEMBL234699
     RDKit          3D

  0  0  0  0  0  0  0  0  0  0999 V3000
M  V30 BEGIN CTAB
M  V30 COUNTS 42 43 0 0 0
M  V30 BEGIN ATOM
M  V30 1 C -1.712315 -4.947791 1.408207 0
M  V30 2 C -1.328282 -3.513531 1.607945 0
M  V30 3 C -0.014652 -3.486523 2.400993 0
M  V30 4 C -2.378917 -2.691704 2.326479 0
M  V30 5 C -1.027694 -2.817720 0.320337 0
M  V30 6 N 0.162113 -2.256744 0.035938 0
M  V30 7 C 0.454477 -1.627395 -1.111153 0
M  V30 8 N 1.791410 -1.141797 -1.110060 0
M  V30 9 C 2.042063 0.176037 -0.637009 0
M  V30 10 C 1.018433 0.989782 -0.189691 0
M  V30 11 C 1.225127 2.282752 0.279186 0
M  V30 12 C 2.518651 2.749060 0.287422 0
M  V30 13 C 2.721162 4.126402 0.788451 0
M  V30 14 C 2.961311 4.045449 2.286083 0
M  V30 15 O 3.162634 5.284530 2.856556 0
M  V30 16 C 3.556442 1.972507 -0.147481 0
M  V30 17 C 3.332012 0.681895 -0.613059 0
M  V30 18 N -0.487731 -1.530250 -2.073238 0
M  V30 19 C -1.710148 -2.081511 -1.836349 0
M  V30 20 C -2.020045 -2.733450 -0.653180 0
M  V30 21 C -3.332004 -3.305648 -0.442131 0
M  V30 22 N -4.398454 -3.750337 -0.276553 0
M  V30 23 H -1.948438 -5.188196 0.345458 0
M  V30 24 H -0.869366 -5.622290 1.665078 0
M  V30 25 H -2.521935 -5.230433 2.115261 0
M  V30 26 H -0.049532 -4.188159 3.245333 0
M  V30 27 H 0.268388 -2.481931 2.723873 0
M  V30 28 H 0.779243 -3.884524 1.704570 0
M  V30 29 H -3.151806 -3.323496 2.801809 0
M  V30 30 H -1.894544 -1.999750 3.059885 0
M  V30 31 H -2.893419 -2.013734 1.609965 0
M  V30 32 H 2.575843 -1.719961 -1.441744 0
M  V30 33 H 0.004084 0.622819 -0.196491 0
M  V30 34 H 0.380712 2.878119 0.618796 0
M  V30 35 H 3.636371 4.576859 0.347044 0
M  V30 36 H 1.868478 4.788877 0.613591 0
M  V30 37 H 2.068107 3.570661 2.732986 0
M  V30 38 H 3.821800 3.353732 2.453896 0
M  V30 39 H 2.996709 5.174443 3.834253 0
M  V30 40 H 4.565379 2.389991 -0.120460 0
M  V30 41 H 4.126928 0.060946 -0.956013 0
M  V30 42 H -2.433702 -1.980533 -2.633070 0
M  V30 END ATOM
M  V30 BEGIN BOND
M  V30 1 1 1 2
M  V30 2 1 2 3
M  V30 3 1 2 4
M  V30 4 1 2 5
M  V30 5 2 5 6
M  V30 6 1 6 7
M  V30 7 1 7 8
M  V30 8 1 8 9
M  V30 9 2 9 10
M  V30 10 1 10 11
M  V30 11 2 11 12
M  V30 12 1 12 13
M  V30 13 1 13 14
M  V30 14 1 14 15
M  V30 15 1 12 16
M  V30 16 2 16 17
M  V30 17 2 7 18
M  V30 18 1 18 19
M  V30 19 2 19 20
M  V30 20 1 20 21
M  V30 21 3 21 22
M  V30 22 1 20 5
M  V30 23 1 17 9
M  V30 24 1 1 23
M  V30 25 1 1 24
M  V30 26 1 1 25
M  V30 27 1 3 26
M  V30 28 1 3 27
M  V30 29 1 3 28
M  V30 30 1 4 29
M  V30 31 1 4 30
M  V30 32 1 4 31
M  V30 33 1 8 32
M  V30 34 1 10 33
M  V30 35 1 11 34
M  V30 36 1 13 35
M  V30 37 1 13 36
M  V30 38 1 14 37
M  V30 39 1 14 38
M  V30 40 1 15 39
M  V30 41 1 16 40
M  V30 42 1 17 41
M  V30 43 1 19 42
M  V30 END BOND
M  V30 END CTAB
M  END
>  <Dataset>  (959) 
ChEMBL_Kinases

>  <Ligand_Instance>  (959) 
nan

>  <PDB_ID>  (959) 
nan

>  <Standardized_SMILES>  (959) 
CC(C)(C)c1nc(Nc2ccc(CCO)cc2)ncc1C#N

>  <Name>  (959) 
nan

>  <Pocket>  (959) 
nan

>  <ATP_Site>  (959) 
nan

>  <Peripheral>  (959) 
nan

>  <Num_H_Atoms_ProtBoundConf>  (959) 
nan

>  <Num_Resolved_Atoms>  (959) 
nan

>  <Num_Not_Resolved_Atoms>  (959) 
nan

$$$$
CHEMBL2347054
     RDKit          3D

  0  0  0  0  0  0  0  0  0  0999 V3000
M  V30 BEGIN CTAB
M  V30 COUNTS 35 38 0 0 0
M  V30 BEGIN ATOM
M  V30 1 O 1.217980 -1.555056 3.462251 0
M  V30 2 C 1.261762 -2.074303 2.328837 0
M  V30 3 N 1.424952 -3.450386 2.030656 0
M  V30 4 C 1.415173 -3.593724 0.611963 0
M  V30 5 C 1.536427 -4.717453 -0.205138 0
M  V30 6 C 1.489612 -4.557847 -1.577086 0
M  V30 7 C 1.327981 -3.338616 -2.207780 0
M  V30 8 F 1.283387 -3.200793 -3.550601 0
M  V30 9 C 1.209076 -2.232479 -1.383716 0
M  V30 10 C 1.252780 -2.367683 -0.010120 0
M  V30 11 C 1.154799 -1.395197 1.068865 0
M  V30 12 C 1.006126 -0.087206 0.961225 0
M  V30 13 C 0.920055 0.942946 1.982052 0
M  V30 14 C 1.576826 1.303021 3.113912 0
M  V30 15 N 1.010653 2.376163 3.699406 0
M  V30 16 N -0.024055 2.734457 2.959530 0
M  V30 17 C -0.108537 1.893507 1.916842 0
M  V30 18 C -1.152254 2.022657 0.905483 0
M  V30 19 C -1.751058 0.804138 0.570875 0
M  V30 20 C -2.768922 0.697005 -0.373800 0
M  V30 21 C -3.181594 1.869129 -0.989720 0
M  V30 22 C -2.593241 3.073139 -0.662215 0
M  V30 23 C -1.583920 3.170788 0.276347 0
M  V30 24 H 1.528938 -4.176695 2.771315 0
M  V30 25 H 1.664695 -5.692365 0.234191 0
M  V30 26 H 1.583293 -5.429476 -2.221875 0
M  V30 27 H 1.079449 -1.237015 -1.785032 0
M  V30 28 H 0.939917 0.271612 -0.078632 0
M  V30 29 H 2.452051 0.785842 3.470352 0
M  V30 30 H 1.363588 2.816392 4.587126 0
M  V30 31 H -1.467525 -0.148739 1.023210 0
M  V30 32 H -3.217307 -0.250325 -0.618306 0
M  V30 33 H -3.975711 1.806860 -1.731430 0
M  V30 34 H -2.902807 3.999110 -1.133047 0
M  V30 35 H -1.078428 4.067137 0.583350 0
M  V30 END ATOM
M  V30 BEGIN BOND
M  V30 1 2 1 2
M  V30 2 1 2 3
M  V30 3 1 3 4
M  V30 4 2 4 5
M  V30 5 1 5 6
M  V30 6 2 6 7
M  V30 7 1 7 8
M  V30 8 1 7 9
M  V30 9 2 9 10
M  V30 10 1 10 11
M  V30 11 2 11 12
M  V30 12 1 12 13
M  V30 13 2 13 14
M  V30 14 1 14 15
M  V30 15 1 15 16
M  V30 16 2 16 17
M  V30 17 1 17 18
M  V30 18 2 18 19
M  V30 19 1 19 20
M  V30 20 2 20 21
M  V30 21 1 21 22
M  V30 22 2 22 23
M  V30 23 1 11 2
M  V30 24 1 17 13
M  V30 25 1 23 18
M  V30 26 1 10 4
M  V30 27 1 3 24
M  V30 28 1 5 25
M  V30 29 1 6 26
M  V30 30 1 9 27
M  V30 31 1 12 28
M  V30 32 1 14 29
M  V30 33 1 15 30
M  V30 34 1 19 31
M  V30 35 1 20 32
M  V30 36 1 21 33
M  V30 37 1 22 34
M  V30 38 1 23 35
M  V30 END BOND
M  V30 END CTAB
M  END
>  <Dataset>  (960) 
ChEMBL_Kinases

>  <Ligand_Instance>  (960) 
nan

>  <PDB_ID>  (960) 
nan

>  <Standardized_SMILES>  (960) 
O=C1Nc2ccc(F)cc2/C1=C/c1c[nH]nc1-c1ccccc1

>  <Name>  (960) 
nan

>  <Pocket>  (960) 
nan

>  <ATP_Site>  (960) 
nan

>  <Peripheral>  (960) 
nan

>  <Num_H_Atoms_ProtBoundConf>  (960) 
nan

>  <Num_Resolved_Atoms>  (960) 
nan

>  <Num_Not_Resolved_Atoms>  (960) 
nan

$$$$
CHEMBL2347061
     RDKit          3D

  0  0  0  0  0  0  0  0  0  0999 V3000
M  V30 BEGIN CTAB
M  V30 COUNTS 26 28 0 0 0
M  V30 BEGIN ATOM
M  V30 1 C -1.883015 -3.743155 0.768556 0
M  V30 2 C -0.859381 -2.738534 1.153985 0
M  V30 3 C -0.069645 -2.987282 2.244876 0
M  V30 4 C 0.906523 -2.061623 2.638439 0
M  V30 5 C 1.030870 -0.916329 1.891835 0
M  V30 6 C 0.289832 -0.603217 0.802027 0
M  V30 7 C -0.647715 -1.555483 0.476784 0
M  V30 8 N -1.418794 -1.137942 -0.670447 0
M  V30 9 C -0.923494 0.135878 -1.067285 0
M  V30 10 O -1.293389 0.859401 -2.000353 0
M  V30 11 C 0.143438 0.446153 -0.135593 0
M  V30 12 C 0.932814 1.465590 -0.184808 0
M  V30 13 S 0.815960 2.866861 -1.336351 0
M  V30 14 C 1.230748 4.028816 0.015684 0
M  V30 15 S 0.684429 5.495057 0.534059 0
M  V30 16 N 2.283158 3.259585 0.593975 0
M  V30 17 C 2.131184 1.847399 0.486420 0
M  V30 18 O 2.972463 1.025340 0.932234 0
M  V30 19 H -1.522441 -4.780962 0.913793 0
M  V30 20 H -2.191152 -3.664376 -0.278149 0
M  V30 21 H -2.781028 -3.496778 1.391081 0
M  V30 22 H -0.219680 -3.909636 2.787384 0
M  V30 23 H 1.463758 -2.365612 3.508574 0
M  V30 24 H 1.769848 -0.302745 2.336358 0
M  V30 25 H -2.199070 -1.618454 -1.167414 0
M  V30 26 H 3.129737 3.715121 1.082482 0
M  V30 END ATOM
M  V30 BEGIN BOND
M  V30 1 1 1 2
M  V30 2 2 2 3
M  V30 3 1 3 4
M  V30 4 2 4 5
M  V30 5 1 5 6
M  V30 6 2 6 7
M  V30 7 1 7 8
M  V30 8 1 8 9
M  V30 9 2 9 10
M  V30 10 1 9 11
M  V30 11 2 11 12
M  V30 12 1 12 13
M  V30 13 1 13 14
M  V30 14 2 14 15
M  V30 15 1 14 16
M  V30 16 1 16 17
M  V30 17 2 17 18
M  V30 18 1 7 2
M  V30 19 1 17 12
M  V30 20 1 11 6
M  V30 21 1 1 19
M  V30 22 1 1 20
M  V30 23 1 1 21
M  V30 24 1 3 22
M  V30 25 1 4 23
M  V30 26 1 5 24
M  V30 27 1 8 25
M  V30 28 1 16 26
M  V30 END BOND
M  V30 END CTAB
M  END
>  <Dataset>  (961) 
ChEMBL_Kinases

>  <Ligand_Instance>  (961) 
nan

>  <PDB_ID>  (961) 
nan

>  <Standardized_SMILES>  (961) 
Cc1cccc2c1NC(=O)/C2=C1\SC(=S)NC1=O

>  <Name>  (961) 
nan

>  <Pocket>  (961) 
nan

>  <ATP_Site>  (961) 
nan

>  <Peripheral>  (961) 
nan

>  <Num_H_Atoms_ProtBoundConf>  (961) 
nan

>  <Num_Resolved_Atoms>  (961) 
nan

>  <Num_Not_Resolved_Atoms>  (961) 
nan

$$$$
CHEMBL2347062
     RDKit          3D

  0  0  0  0  0  0  0  0  0  0999 V3000
M  V30 BEGIN CTAB
M  V30 COUNTS 29 31 0 0 0
M  V30 BEGIN ATOM
M  V30 1 C 0.108593 -2.936903 4.088976 0
M  V30 2 C 0.671607 -3.431891 2.775095 0
M  V30 3 C 0.189528 -2.631414 1.626699 0
M  V30 4 C -0.784971 -3.160504 0.811266 0
M  V30 5 C -1.270056 -2.435039 -0.285989 0
M  V30 6 C -0.733437 -1.190684 -0.504500 0
M  V30 7 C 0.219929 -0.611498 0.245594 0
M  V30 8 C 0.652201 -1.371443 1.306570 0
M  V30 9 N 1.647091 -0.664424 2.076575 0
M  V30 10 C 1.850817 0.621177 1.453219 0
M  V30 11 O 2.605559 1.549452 1.771169 0
M  V30 12 C 0.947523 0.612639 0.317446 0
M  V30 13 C 0.888252 1.549172 -0.580996 0
M  V30 14 S 1.724137 3.168256 -0.646092 0
M  V30 15 C 0.224639 4.003681 -1.294290 0
M  V30 16 S -0.666407 5.372585 -1.092918 0
M  V30 17 N -0.117167 2.979714 -2.258651 0
M  V30 18 C 0.243831 1.634883 -1.881368 0
M  V30 19 O 0.018894 0.648873 -2.625872 0
M  V30 20 H 0.847884 -2.283147 4.614161 0
M  V30 21 H -0.806414 -2.320597 3.967973 0
M  V30 22 H -0.102192 -3.780728 4.763579 0
M  V30 23 H 0.450174 -4.499406 2.594487 0
M  V30 24 H 1.773943 -3.286337 2.805767 0
M  V30 25 H -1.161857 -4.142567 1.038272 0
M  V30 26 H -2.033900 -2.950604 -0.853474 0
M  V30 27 H -1.222603 -0.742974 -1.328694 0
M  V30 28 H 2.167096 -0.955375 2.931155 0
M  V30 29 H -0.609797 3.202702 -3.186464 0
M  V30 END ATOM
M  V30 BEGIN BOND
M  V30 1 1 1 2
M  V30 2 1 2 3
M  V30 3 2 3 4
M  V30 4 1 4 5
M  V30 5 2 5 6
M  V30 6 1 6 7
M  V30 7 2 7 8
M  V30 8 1 8 9
M  V30 9 1 9 10
M  V30 10 2 10 11
M  V30 11 1 10 12
M  V30 12 2 12 13
M  V30 13 1 13 14
M  V30 14 1 14 15
M  V30 15 2 15 16
M  V30 16 1 15 17
M  V30 17 1 17 18
M  V30 18 2 18 19
M  V30 19 1 8 3
M  V30 20 1 18 13
M  V30 21 1 12 7
M  V30 22 1 1 20
M  V30 23 1 1 21
M  V30 24 1 1 22
M  V30 25 1 2 23
M  V30 26 1 2 24
M  V30 27 1 4 25
M  V30 28 1 5 26
M  V30 29 1 6 27
M  V30 30 1 9 28
M  V30 31 1 17 29
M  V30 END BOND
M  V30 END CTAB
M  END
>  <Dataset>  (962) 
ChEMBL_Kinases

>  <Ligand_Instance>  (962) 
nan

>  <PDB_ID>  (962) 
nan

>  <Standardized_SMILES>  (962) 
CCc1cccc2c1NC(=O)/C2=C1\SC(=S)NC1=O

>  <Name>  (962) 
nan

>  <Pocket>  (962) 
nan

>  <ATP_Site>  (962) 
nan

>  <Peripheral>  (962) 
nan

>  <Num_H_Atoms_ProtBoundConf>  (962) 
nan

>  <Num_Resolved_Atoms>  (962) 
nan

>  <Num_Not_Resolved_Atoms>  (962) 
nan

$$$$
CHEMBL2347073
     RDKit          3D

  0  0  0  0  0  0  0  0  0  0999 V3000
M  V30 BEGIN CTAB
M  V30 COUNTS 25 27 0 0 0
M  V30 BEGIN ATOM
M  V30 1 O 0.864800 0.152708 3.289839 0
M  V30 2 C 0.631286 -0.738588 2.401758 0
M  V30 3 N 0.670743 -2.165047 2.453518 0
M  V30 4 C 0.313862 -2.628378 1.158394 0
M  V30 5 C 0.197363 -3.923811 0.683938 0
M  V30 6 C -0.172906 -4.173148 -0.618590 0
M  V30 7 C -0.439930 -3.133593 -1.496452 0
M  V30 8 C -0.303237 -1.876023 -0.957476 0
M  V30 9 C 0.061806 -1.557893 0.330417 0
M  V30 10 C 0.253644 -0.300257 1.087267 0
M  V30 11 C 0.064137 0.849416 0.487353 0
M  V30 12 C 0.256416 2.055630 1.268193 0
M  V30 13 C 1.089179 3.034921 0.687867 0
M  V30 14 C 1.202183 4.153037 1.512539 0
M  V30 15 C 0.404805 3.763600 2.571508 0
M  V30 16 O -0.111002 2.591430 2.407608 0
M  V30 17 H 0.929273 -2.692127 3.340861 0
M  V30 18 H 0.392334 -4.801767 1.315577 0
M  V30 19 H -0.283773 -5.177050 -1.049991 0
M  V30 20 H -0.738904 -3.229361 -2.538927 0
M  V30 21 H -0.509473 -1.035396 -1.626712 0
M  V30 22 H -0.229797 0.919784 -0.571805 0
M  V30 23 H 1.631914 3.054028 -0.264138 0
M  V30 24 H 1.709159 5.098220 1.478775 0
M  V30 25 H 0.201564 4.355031 3.478641 0
M  V30 END ATOM
M  V30 BEGIN BOND
M  V30 1 2 1 2
M  V30 2 1 2 3
M  V30 3 1 3 4
M  V30 4 2 4 5
M  V30 5 1 5 6
M  V30 6 2 6 7
M  V30 7 1 7 8
M  V30 8 2 8 9
M  V30 9 1 9 10
M  V30 10 2 10 11
M  V30 11 1 11 12
M  V30 12 2 12 13
M  V30 13 1 13 14
M  V30 14 2 14 15
M  V30 15 1 15 16
M  V30 16 1 10 2
M  V30 17 1 16 12
M  V30 18 1 9 4
M  V30 19 1 3 17
M  V30 20 1 5 18
M  V30 21 1 6 19
M  V30 22 1 7 20
M  V30 23 1 8 21
M  V30 24 1 11 22
M  V30 25 1 13 23
M  V30 26 1 14 24
M  V30 27 1 15 25
M  V30 END BOND
M  V30 END CTAB
M  END
>  <Dataset>  (963) 
ChEMBL_Kinases

>  <Ligand_Instance>  (963) 
nan

>  <PDB_ID>  (963) 
nan

>  <Standardized_SMILES>  (963) 
O=C1Nc2ccccc2/C1=C/c1ccco1

>  <Name>  (963) 
nan

>  <Pocket>  (963) 
nan

>  <ATP_Site>  (963) 
nan

>  <Peripheral>  (963) 
nan

>  <Num_H_Atoms_ProtBoundConf>  (963) 
nan

>  <Num_Resolved_Atoms>  (963) 
nan

>  <Num_Not_Resolved_Atoms>  (963) 
nan

$$$$
CHEMBL2347074
     RDKit          3D

  0  0  0  0  0  0  0  0  0  0999 V3000
M  V30 BEGIN CTAB
M  V30 COUNTS 25 27 0 0 0
M  V30 BEGIN ATOM
M  V30 1 O 1.116249 -2.300501 4.050676 0
M  V30 2 C 0.992136 -2.232528 2.790566 0
M  V30 3 N 1.265194 -3.189536 1.776419 0
M  V30 4 C 0.948731 -2.596519 0.527274 0
M  V30 5 C 1.052338 -3.109833 -0.747270 0
M  V30 6 C 0.712562 -2.379289 -1.864184 0
M  V30 7 C 0.243868 -1.066247 -1.698929 0
M  V30 8 Cl -0.156886 -0.235004 -3.175566 0
M  V30 9 C 0.155731 -0.594875 -0.408800 0
M  V30 10 C 0.488255 -1.309508 0.701657 0
M  V30 11 C 0.498667 -1.038283 2.120562 0
M  V30 12 C 0.148310 0.132882 2.597684 0
M  V30 13 C -0.354624 1.344922 1.972364 0
M  V30 14 C 0.417737 2.476372 2.220001 0
M  V30 15 C -0.123645 3.583608 1.600630 0
M  V30 16 C -1.233254 3.078658 0.982671 0
M  V30 17 O -1.342412 1.801186 1.209845 0
M  V30 18 H 1.629564 -4.120893 2.046181 0
M  V30 19 H 1.412214 -4.118226 -0.872748 0
M  V30 20 H 0.813839 -2.832140 -2.839482 0
M  V30 21 H -0.194577 0.409526 -0.462804 0
M  V30 22 H 0.263763 0.168358 3.692338 0
M  V30 23 H 1.338264 2.671006 2.785067 0
M  V30 24 H 0.066055 4.639264 1.478156 0
M  V30 25 H -2.072630 3.412962 0.347653 0
M  V30 END ATOM
M  V30 BEGIN BOND
M  V30 1 2 1 2
M  V30 2 1 2 3
M  V30 3 1 3 4
M  V30 4 2 4 5
M  V30 5 1 5 6
M  V30 6 2 6 7
M  V30 7 1 7 8
M  V30 8 1 7 9
M  V30 9 2 9 10
M  V30 10 1 10 11
M  V30 11 2 11 12
M  V30 12 1 12 13
M  V30 13 2 13 14
M  V30 14 1 14 15
M  V30 15 2 15 16
M  V30 16 1 16 17
M  V30 17 1 11 2
M  V30 18 1 17 13
M  V30 19 1 10 4
M  V30 20 1 3 18
M  V30 21 1 5 19
M  V30 22 1 6 20
M  V30 23 1 9 21
M  V30 24 1 12 22
M  V30 25 1 14 23
M  V30 26 1 15 24
M  V30 27 1 16 25
M  V30 END BOND
M  V30 END CTAB
M  END
>  <Dataset>  (964) 
ChEMBL_Kinases

>  <Ligand_Instance>  (964) 
nan

>  <PDB_ID>  (964) 
nan

>  <Standardized_SMILES>  (964) 
O=C1Nc2ccc(Cl)cc2/C1=C\c1ccco1

>  <Name>  (964) 
nan

>  <Pocket>  (964) 
nan

>  <ATP_Site>  (964) 
nan

>  <Peripheral>  (964) 
nan

>  <Num_H_Atoms_ProtBoundConf>  (964) 
nan

>  <Num_Resolved_Atoms>  (964) 
nan

>  <Num_Not_Resolved_Atoms>  (964) 
nan

$$$$
CHEMBL2347075
     RDKit          3D

  0  0  0  0  0  0  0  0  0  0999 V3000
M  V30 BEGIN CTAB
M  V30 COUNTS 25 27 0 0 0
M  V30 BEGIN ATOM
M  V30 1 O 1.154670 -2.385503 3.977214 0
M  V30 2 C 1.009103 -2.270241 2.739007 0
M  V30 3 N 1.275690 -3.204659 1.700878 0
M  V30 4 C 0.943182 -2.587345 0.464710 0
M  V30 5 C 1.047644 -3.097872 -0.809907 0
M  V30 6 C 0.688770 -2.332780 -1.898418 0
M  V30 7 C 0.216580 -1.029885 -1.708145 0
M  V30 8 Br -0.239370 -0.086487 -3.297880 0
M  V30 9 C 0.131963 -0.568915 -0.415238 0
M  V30 10 C 0.480243 -1.310637 0.675513 0
M  V30 11 C 0.504251 -1.069204 2.098745 0
M  V30 12 C 0.152844 0.088227 2.601802 0
M  V30 13 C -0.363190 1.312453 2.010317 0
M  V30 14 C 0.422026 2.437487 2.285362 0
M  V30 15 C -0.107318 3.573474 1.711083 0
M  V30 16 C -1.230533 3.078600 1.089093 0
M  V30 17 O -1.350289 1.796879 1.274945 0
M  V30 18 H 1.651023 -4.156182 1.927295 0
M  V30 19 H 1.414410 -4.104766 -0.948996 0
M  V30 20 H 0.789984 -2.782345 -2.873807 0
M  V30 21 H -0.225152 0.432044 -0.448659 0
M  V30 22 H 0.280199 0.097597 3.705282 0
M  V30 23 H 1.352483 2.614808 2.848334 0
M  V30 24 H 0.117274 4.622660 1.639992 0
M  V30 25 H -2.031041 3.527953 0.481444 0
M  V30 END ATOM
M  V30 BEGIN BOND
M  V30 1 2 1 2
M  V30 2 1 2 3
M  V30 3 1 3 4
M  V30 4 2 4 5
M  V30 5 1 5 6
M  V30 6 2 6 7
M  V30 7 1 7 8
M  V30 8 1 7 9
M  V30 9 2 9 10
M  V30 10 1 10 11
M  V30 11 2 11 12
M  V30 12 1 12 13
M  V30 13 2 13 14
M  V30 14 1 14 15
M  V30 15 2 15 16
M  V30 16 1 16 17
M  V30 17 1 11 2
M  V30 18 1 17 13
M  V30 19 1 10 4
M  V30 20 1 3 18
M  V30 21 1 5 19
M  V30 22 1 6 20
M  V30 23 1 9 21
M  V30 24 1 12 22
M  V30 25 1 14 23
M  V30 26 1 15 24
M  V30 27 1 16 25
M  V30 END BOND
M  V30 END CTAB
M  END
>  <Dataset>  (965) 
ChEMBL_Kinases

>  <Ligand_Instance>  (965) 
nan

>  <PDB_ID>  (965) 
nan

>  <Standardized_SMILES>  (965) 
O=C1Nc2ccc(Br)cc2/C1=C\c1ccco1

>  <Name>  (965) 
nan

>  <Pocket>  (965) 
nan

>  <ATP_Site>  (965) 
nan

>  <Peripheral>  (965) 
nan

>  <Num_H_Atoms_ProtBoundConf>  (965) 
nan

>  <Num_Resolved_Atoms>  (965) 
nan

>  <Num_Not_Resolved_Atoms>  (965) 
nan

$$$$
CHEMBL2347811
     RDKit          3D

  0  0  0  0  0  0  0  0  0  0999 V3000
M  V30 BEGIN CTAB
M  V30 COUNTS 42 44 0 0 0
M  V30 BEGIN ATOM
M  V30 1 C 1.536648 -4.499483 -3.023526 0
M  V30 2 N 1.770316 -4.292193 -1.607085 0
M  V30 3 C 1.343994 -5.312954 -0.673912 0
M  V30 4 C 2.355811 -3.270243 -0.809901 0
M  V30 5 C 3.728979 -3.419706 -0.588203 0
M  V30 6 C 4.475536 -4.517010 -1.126270 0
M  V30 7 N 5.076253 -5.396969 -1.537395 0
M  V30 8 C 4.321551 -2.432844 0.188839 0
M  V30 9 N 3.646703 -1.391820 0.706934 0
M  V30 10 C 2.307429 -1.252994 0.486211 0
M  V30 11 C 1.583120 -0.194684 1.004373 0
M  V30 12 C 0.229699 -0.130424 0.732313 0
M  V30 13 C -0.468373 1.016662 1.315040 0
M  V30 14 C 0.197894 2.218467 1.480727 0
M  V30 15 C -0.442335 3.311771 2.027721 0
M  V30 16 C -1.761500 3.257138 2.429997 0
M  V30 17 S -2.675046 4.566640 3.131940 0
M  V30 18 C -2.536587 4.575665 4.905645 0
M  V30 19 O -2.169440 5.891246 2.606001 0
M  V30 20 O -4.116235 4.352452 2.786128 0
M  V30 21 C -2.378712 2.020153 2.237750 0
M  V30 22 C -1.791016 0.879192 1.692468 0
M  V30 23 C -0.411359 -1.092698 -0.040082 0
M  V30 24 C 0.305079 -2.158127 -0.564689 0
M  V30 25 C 1.656718 -2.202933 -0.280370 0
M  V30 26 H 2.320281 -4.050763 -3.668994 0
M  V30 27 H 1.633313 -5.603343 -3.198466 0
M  V30 28 H 0.556683 -4.088502 -3.293571 0
M  V30 29 H 2.184484 -5.698451 -0.051349 0
M  V30 30 H 0.930852 -6.198105 -1.203568 0
M  V30 31 H 0.575462 -4.966138 0.024155 0
M  V30 32 H 5.399387 -2.543990 0.366821 0
M  V30 33 H 2.126454 0.524867 1.596518 0
M  V30 34 H 1.225582 2.307858 1.182120 0
M  V30 35 H 0.050215 4.267157 2.171598 0
M  V30 36 H -2.899116 5.523846 5.331098 0
M  V30 37 H -3.131239 3.749844 5.360084 0
M  V30 38 H -1.460228 4.456553 5.189792 0
M  V30 39 H -3.431448 1.931940 2.545363 0
M  V30 40 H -2.357882 -0.013146 1.592266 0
M  V30 41 H -1.479232 -0.994888 -0.224377 0
M  V30 42 H -0.163801 -2.921587 -1.168432 0
M  V30 END ATOM
M  V30 BEGIN BOND
M  V30 1 1 1 2
M  V30 2 1 2 3
M  V30 3 1 2 4
M  V30 4 2 4 5
M  V30 5 1 5 6
M  V30 6 3 6 7
M  V30 7 1 5 8
M  V30 8 2 8 9
M  V30 9 1 9 10
M  V30 10 2 10 11
M  V30 11 1 11 12
M  V30 12 1 12 13
M  V30 13 2 13 14
M  V30 14 1 14 15
M  V30 15 2 15 16
M  V30 16 1 16 17
M  V30 17 1 17 18
M  V30 18 2 17 19
M  V30 19 2 17 20
M  V30 20 1 16 21
M  V30 21 2 21 22
M  V30 22 2 12 23
M  V30 23 1 23 24
M  V30 24 2 24 25
M  V30 25 1 25 4
M  V30 26 1 25 10
M  V30 27 1 22 13
M  V30 28 1 1 26
M  V30 29 1 1 27
M  V30 30 1 1 28
M  V30 31 1 3 29
M  V30 32 1 3 30
M  V30 33 1 3 31
M  V30 34 1 8 32
M  V30 35 1 11 33
M  V30 36 1 14 34
M  V30 37 1 15 35
M  V30 38 1 18 36
M  V30 39 1 18 37
M  V30 40 1 18 38
M  V30 41 1 21 39
M  V30 42 1 22 40
M  V30 43 1 23 41
M  V30 44 1 24 42
M  V30 END BOND
M  V30 END CTAB
M  END
>  <Dataset>  (966) 
ChEMBL_Kinases

>  <Ligand_Instance>  (966) 
nan

>  <PDB_ID>  (966) 
nan

>  <Standardized_SMILES>  (966) 
CN(C)c1c(C#N)cnc2cc(-c3ccc(S(C)(=O)=O)cc3)ccc12

>  <Name>  (966) 
nan

>  <Pocket>  (966) 
nan

>  <ATP_Site>  (966) 
nan

>  <Peripheral>  (966) 
nan

>  <Num_H_Atoms_ProtBoundConf>  (966) 
nan

>  <Num_Resolved_Atoms>  (966) 
nan

>  <Num_Not_Resolved_Atoms>  (966) 
nan

$$$$
CHEMBL2347086
     RDKit          3D

  0  0  0  0  0  0  0  0  0  0999 V3000
M  V30 BEGIN CTAB
M  V30 COUNTS 27 29 0 0 0
M  V30 BEGIN ATOM
M  V30 1 O -0.498008 -2.361969 4.354712 0
M  V30 2 C -0.153723 -1.412066 3.602991 0
M  V30 3 N 0.204377 -0.067563 3.891580 0
M  V30 4 C 0.511299 0.589692 2.669563 0
M  V30 5 C 0.918514 1.891368 2.475454 0
M  V30 6 C 1.187736 2.344806 1.212680 0
M  V30 7 C 1.047032 1.478098 0.121445 0
M  V30 8 N 1.346245 2.032771 -1.154532 0 CHG=1 VAL=4
M  V30 9 O 1.708932 3.190030 -1.323993 0
M  V30 10 O 1.229920 1.247724 -2.291806 0 CHG=-1 VAL=1
M  V30 11 C 0.638760 0.185865 0.349332 0
M  V30 12 C 0.367007 -0.271729 1.603007 0
M  V30 13 C -0.051697 -1.534826 2.166452 0
M  V30 14 C -0.249097 -2.579371 1.422605 0
M  V30 15 C -0.175895 -2.779133 -0.012373 0
M  V30 16 C -1.275054 -2.194267 -0.670770 0
M  V30 17 C -1.095123 -2.451532 -2.037130 0
M  V30 18 C 0.100498 -3.176730 -2.132189 0
M  V30 19 O 0.563470 -3.322560 -0.934614 0
M  V30 20 H 0.227167 0.339556 4.874044 0
M  V30 21 H 1.034823 2.579288 3.300314 0
M  V30 22 H 1.504043 3.366980 1.081920 0
M  V30 23 H 0.604574 -0.342452 -0.559002 0
M  V30 24 H -0.522686 -3.539760 1.824051 0
M  V30 25 H -2.166788 -1.632836 -0.413854 0
M  V30 26 H -1.717605 -2.174696 -2.903482 0
M  V30 27 H 0.556940 -3.549048 -3.038169 0
M  V30 END ATOM
M  V30 BEGIN BOND
M  V30 1 2 1 2
M  V30 2 1 2 3
M  V30 3 1 3 4
M  V30 4 2 4 5
M  V30 5 1 5 6
M  V30 6 2 6 7
M  V30 7 1 7 8
M  V30 8 2 8 9
M  V30 9 1 8 10
M  V30 10 1 7 11
M  V30 11 2 11 12
M  V30 12 1 12 13
M  V30 13 2 13 14
M  V30 14 1 14 15
M  V30 15 2 15 16
M  V30 16 1 16 17
M  V30 17 2 17 18
M  V30 18 1 18 19
M  V30 19 1 13 2
M  V30 20 1 19 15
M  V30 21 1 12 4
M  V30 22 1 3 20
M  V30 23 1 5 21
M  V30 24 1 6 22
M  V30 25 1 11 23
M  V30 26 1 14 24
M  V30 27 1 16 25
M  V30 28 1 17 26
M  V30 29 1 18 27
M  V30 END BOND
M  V30 END CTAB
M  END
>  <Dataset>  (967) 
ChEMBL_Kinases

>  <Ligand_Instance>  (967) 
nan

>  <PDB_ID>  (967) 
nan

>  <Standardized_SMILES>  (967) 
O=C1Nc2ccc([N+](=O)[O-])cc2/C1=C\c1ccco1

>  <Name>  (967) 
nan

>  <Pocket>  (967) 
nan

>  <ATP_Site>  (967) 
nan

>  <Peripheral>  (967) 
nan

>  <Num_H_Atoms_ProtBoundConf>  (967) 
nan

>  <Num_Resolved_Atoms>  (967) 
nan

>  <Num_Not_Resolved_Atoms>  (967) 
nan

$$$$
CHEMBL2347804
     RDKit          3D

  0  0  0  0  0  0  0  0  0  0999 V3000
M  V30 BEGIN CTAB
M  V30 COUNTS 54 57 0 0 0
M  V30 BEGIN ATOM
M  V30 1 C 2.778600 3.998181 5.366936 0
M  V30 2 C 3.346072 2.752972 4.705028 0
M  V30 3 C 2.708576 1.561380 5.337437 0
M  V30 4 N 3.241752 2.814489 3.271120 0
M  V30 5 C 3.514754 2.100915 2.071048 0
M  V30 6 C 4.776861 2.370146 1.563920 0
M  V30 7 C 5.714205 3.269084 2.175624 0
M  V30 8 N 6.467039 3.988193 2.687962 0
M  V30 9 C 5.214146 1.762243 0.397021 0
M  V30 10 N 4.358829 0.914992 -0.199061 0
M  V30 11 C 3.130815 0.640308 0.276190 0
M  V30 12 C 2.257360 -0.233367 -0.347029 0
M  V30 13 C 0.988291 -0.504847 0.159064 0
M  V30 14 C 0.088815 -1.433083 -0.525329 0
M  V30 15 C -0.802706 -2.164621 0.266059 0
M  V30 16 C -1.638980 -3.029051 -0.389450 0
M  V30 17 C -1.693956 -3.252902 -1.742686 0
M  V30 18 S -2.789298 -4.370116 -2.487954 0
M  V30 19 O -3.001472 -5.616656 -1.647808 0
M  V30 20 O -2.133550 -4.840757 -3.771966 0
M  V30 21 N -4.283386 -3.642371 -2.913985 0
M  V30 22 C -4.983593 -3.132697 -1.755457 0
M  V30 23 C -6.388609 -3.686199 -1.830814 0
M  V30 24 C -6.235355 -4.956699 -2.627656 0
M  V30 25 C -5.123629 -4.588238 -3.578415 0
M  V30 26 C -0.788742 -2.502144 -2.484080 0
M  V30 27 C 0.095567 -1.601566 -1.896681 0
M  V30 28 C 0.606091 0.135628 1.333121 0
M  V30 29 C 1.425035 1.020782 2.010983 0
M  V30 30 C 2.660102 1.224373 1.432910 0
M  V30 31 H 2.552461 3.716473 6.414235 0
M  V30 32 H 1.813784 4.276524 4.906323 0
M  V30 33 H 3.494803 4.831210 5.381836 0
M  V30 34 H 4.450441 2.796354 4.925110 0
M  V30 35 H 3.091420 1.488655 6.377432 0
M  V30 36 H 1.599769 1.707605 5.370968 0
M  V30 37 H 2.941091 0.605821 4.842425 0
M  V30 38 H 2.807428 3.689514 2.853538 0
M  V30 39 H 6.189951 1.931660 -0.049905 0
M  V30 40 H 2.599946 -0.710533 -1.262418 0
M  V30 41 H -0.839039 -2.059835 1.352457 0
M  V30 42 H -2.328582 -3.590686 0.255408 0
M  V30 43 H -4.482561 -3.402478 -0.806426 0
M  V30 44 H -5.059919 -2.028738 -1.844675 0
M  V30 45 H -6.814951 -3.900083 -0.819444 0
M  V30 46 H -7.068144 -3.016446 -2.399938 0
M  V30 47 H -6.002921 -5.836615 -1.994046 0
M  V30 48 H -7.182730 -5.163256 -3.203288 0
M  V30 49 H -4.587002 -5.519557 -3.845350 0
M  V30 50 H -5.579590 -4.172708 -4.517720 0
M  V30 51 H -0.757023 -2.611113 -3.570078 0
M  V30 52 H 0.790147 -1.030659 -2.505410 0
M  V30 53 H -0.378694 -0.043106 1.770841 0
M  V30 54 H 1.131241 1.520175 2.920770 0
M  V30 END ATOM
M  V30 BEGIN BOND
M  V30 1 1 1 2
M  V30 2 1 2 3
M  V30 3 1 2 4
M  V30 4 1 4 5
M  V30 5 2 5 6
M  V30 6 1 6 7
M  V30 7 3 7 8
M  V30 8 1 6 9
M  V30 9 2 9 10
M  V30 10 1 10 11
M  V30 11 2 11 12
M  V30 12 1 12 13
M  V30 13 1 13 14
M  V30 14 2 14 15
M  V30 15 1 15 16
M  V30 16 2 16 17
M  V30 17 1 17 18
M  V30 18 2 18 19
M  V30 19 2 18 20
M  V30 20 1 18 21
M  V30 21 1 21 22
M  V30 22 1 22 23
M  V30 23 1 23 24
M  V30 24 1 24 25
M  V30 25 1 17 26
M  V30 26 2 26 27
M  V30 27 2 13 28
M  V30 28 1 28 29
M  V30 29 2 29 30
M  V30 30 1 30 5
M  V30 31 1 30 11
M  V30 32 1 27 14
M  V30 33 1 25 21
M  V30 34 1 1 31
M  V30 35 1 1 32
M  V30 36 1 1 33
M  V30 37 1 2 34
M  V30 38 1 3 35
M  V30 39 1 3 36
M  V30 40 1 3 37
M  V30 41 1 4 38
M  V30 42 1 9 39
M  V30 43 1 12 40
M  V30 44 1 15 41
M  V30 45 1 16 42
M  V30 46 1 22 43
M  V30 47 1 22 44
M  V30 48 1 23 45
M  V30 49 1 23 46
M  V30 50 1 24 47
M  V30 51 1 24 48
M  V30 52 1 25 49
M  V30 53 1 25 50
M  V30 54 1 26 51
M  V30 55 1 27 52
M  V30 56 1 28 53
M  V30 57 1 29 54
M  V30 END BOND
M  V30 END CTAB
M  END
>  <Dataset>  (968) 
ChEMBL_Kinases

>  <Ligand_Instance>  (968) 
nan

>  <PDB_ID>  (968) 
nan

>  <Standardized_SMILES>  (968) 
CC(C)Nc1c(C#N)cnc2cc(-c3ccc(S(=O)(=O)N4CCCC4)cc3)ccc12

>  <Name>  (968) 
nan

>  <Pocket>  (968) 
nan

>  <ATP_Site>  (968) 
nan

>  <Peripheral>  (968) 
nan

>  <Num_H_Atoms_ProtBoundConf>  (968) 
nan

>  <Num_Resolved_Atoms>  (968) 
nan

>  <Num_Not_Resolved_Atoms>  (968) 
nan

$$$$
CHEMBL2347805
     RDKit          3D

  0  0  0  0  0  0  0  0  0  0999 V3000
M  V30 BEGIN CTAB
M  V30 COUNTS 50 52 0 0 0
M  V30 BEGIN ATOM
M  V30 1 C 5.514766 -4.391108 -1.031919 0
M  V30 2 C 5.238593 -3.098829 -0.288671 0
M  V30 3 C 4.534678 -3.468679 0.992905 0
M  V30 4 N 4.486112 -2.168202 -1.096861 0
M  V30 5 C 3.913869 -0.870645 -1.063167 0
M  V30 6 C 4.822261 0.101306 -1.490112 0
M  V30 7 C 6.166584 -0.162495 -1.911888 0
M  V30 8 N 7.237327 -0.391457 -2.250150 0
M  V30 9 C 4.400742 1.425529 -1.510021 0
M  V30 10 N 3.155788 1.745887 -1.128062 0
M  V30 11 C 2.261506 0.846135 -0.715259 0
M  V30 12 C 0.974201 1.153020 -0.319873 0
M  V30 13 C 0.139201 0.107251 0.088356 0
M  V30 14 C -1.215773 0.464759 0.500722 0
M  V30 15 C -1.576624 1.649503 1.109524 0
M  V30 16 C -2.879093 1.918958 1.473805 0
M  V30 17 C -3.866479 0.958165 1.217135 0
M  V30 18 S -5.541461 1.222133 1.646233 0
M  V30 19 O -5.893022 2.652421 1.399336 0
M  V30 20 O -6.401875 0.388176 0.707048 0
M  V30 21 N -5.905170 0.713165 3.229900 0
M  V30 22 C -5.712205 -0.671051 3.469628 0
M  V30 23 C -7.024267 1.334258 3.841636 0
M  V30 24 C -3.523776 -0.252698 0.599756 0
M  V30 25 C -2.198426 -0.474606 0.252894 0
M  V30 26 C 0.544054 -1.219514 0.113802 0
M  V30 27 C 1.834506 -1.495859 -0.286365 0
M  V30 28 C 2.661462 -0.471601 -0.688853 0
M  V30 29 H 6.020971 -5.052038 -0.300423 0
M  V30 30 H 4.549251 -4.853163 -1.318998 0
M  V30 31 H 6.138343 -4.256742 -1.933852 0
M  V30 32 H 6.261117 -2.675918 -0.074068 0
M  V30 33 H 3.992228 -2.594369 1.409484 0
M  V30 34 H 3.768201 -4.260658 0.831229 0
M  V30 35 H 5.271555 -3.891253 1.718927 0
M  V30 36 H 4.226066 -2.473134 -2.064423 0
M  V30 37 H 5.017635 2.273915 -1.822805 0
M  V30 38 H 0.668167 2.175221 -0.341436 0
M  V30 39 H -0.791874 2.370585 1.293808 0
M  V30 40 H -3.147345 2.856481 1.952822 0
M  V30 41 H -5.203187 -1.128627 2.597406 0
M  V30 42 H -6.695445 -1.172192 3.548836 0
M  V30 43 H -5.066097 -0.897316 4.343772 0
M  V30 44 H -7.488218 2.136586 3.237333 0
M  V30 45 H -6.699536 1.693419 4.845990 0
M  V30 46 H -7.785564 0.536616 4.049818 0
M  V30 47 H -4.276421 -1.014518 0.389294 0
M  V30 48 H -1.996302 -1.442522 -0.227088 0
M  V30 49 H -0.147361 -1.986465 0.439199 0
M  V30 50 H 2.137860 -2.529265 -0.267037 0
M  V30 END ATOM
M  V30 BEGIN BOND
M  V30 1 1 1 2
M  V30 2 1 2 3
M  V30 3 1 2 4
M  V30 4 1 4 5
M  V30 5 2 5 6
M  V30 6 1 6 7
M  V30 7 3 7 8
M  V30 8 1 6 9
M  V30 9 2 9 10
M  V30 10 1 10 11
M  V30 11 2 11 12
M  V30 12 1 12 13
M  V30 13 1 13 14
M  V30 14 2 14 15
M  V30 15 1 15 16
M  V30 16 2 16 17
M  V30 17 1 17 18
M  V30 18 2 18 19
M  V30 19 2 18 20
M  V30 20 1 18 21
M  V30 21 1 21 22
M  V30 22 1 21 23
M  V30 23 1 17 24
M  V30 24 2 24 25
M  V30 25 2 13 26
M  V30 26 1 26 27
M  V30 27 2 27 28
M  V30 28 1 28 5
M  V30 29 1 28 11
M  V30 30 1 25 14
M  V30 31 1 1 29
M  V30 32 1 1 30
M  V30 33 1 1 31
M  V30 34 1 2 32
M  V30 35 1 3 33
M  V30 36 1 3 34
M  V30 37 1 3 35
M  V30 38 1 4 36
M  V30 39 1 9 37
M  V30 40 1 12 38
M  V30 41 1 15 39
M  V30 42 1 16 40
M  V30 43 1 22 41
M  V30 44 1 22 42
M  V30 45 1 22 43
M  V30 46 1 23 44
M  V30 47 1 23 45
M  V30 48 1 23 46
M  V30 49 1 24 47
M  V30 50 1 25 48
M  V30 51 1 26 49
M  V30 52 1 27 50
M  V30 END BOND
M  V30 END CTAB
M  END
>  <Dataset>  (969) 
ChEMBL_Kinases

>  <Ligand_Instance>  (969) 
nan

>  <PDB_ID>  (969) 
nan

>  <Standardized_SMILES>  (969) 
CC(C)Nc1c(C#N)cnc2cc(-c3ccc(S(=O)(=O)N(C)C)cc3)ccc12

>  <Name>  (969) 
nan

>  <Pocket>  (969) 
nan

>  <ATP_Site>  (969) 
nan

>  <Peripheral>  (969) 
nan

>  <Num_H_Atoms_ProtBoundConf>  (969) 
nan

>  <Num_Resolved_Atoms>  (969) 
nan

>  <Num_Not_Resolved_Atoms>  (969) 
nan

$$$$
CHEMBL2347806
     RDKit          3D

  0  0  0  0  0  0  0  0  0  0999 V3000
M  V30 BEGIN CTAB
M  V30 COUNTS 44 46 0 0 0
M  V30 BEGIN ATOM
M  V30 1 C 3.368860 -4.705759 -2.038061 0
M  V30 2 C 2.252580 -3.819526 -2.553511 0
M  V30 3 C 0.960142 -4.354032 -2.032772 0
M  V30 4 N 2.495666 -2.431416 -2.272797 0
M  V30 5 C 2.677885 -1.584205 -1.150941 0
M  V30 6 C 3.994906 -1.443161 -0.698958 0
M  V30 7 C 5.115759 -2.115840 -1.337157 0
M  V30 8 N 5.993963 -2.661758 -1.855399 0
M  V30 9 C 4.348406 -0.657146 0.383397 0
M  V30 10 N 3.362776 -0.006862 1.015685 0
M  V30 11 C 2.073957 -0.090705 0.642191 0
M  V30 12 C 1.034267 0.575631 1.276779 0
M  V30 13 C -0.282516 0.466510 0.857795 0
M  V30 14 C -1.296984 1.210032 1.597830 0
M  V30 15 C -1.037511 1.375960 2.963828 0
M  V30 16 C -1.922729 2.061614 3.770972 0
M  V30 17 C -3.079385 2.593827 3.237492 0
M  V30 18 S -4.232937 3.463962 4.189761 0
M  V30 19 C -3.712168 3.561359 5.907672 0
M  V30 20 O -4.454838 4.871797 3.729822 0
M  V30 21 O -5.587193 2.785274 4.204801 0
M  V30 22 N -3.305547 2.420555 1.921621 0
M  V30 23 C -2.463477 1.757104 1.104490 0
M  V30 24 C -0.574522 -0.340387 -0.239473 0
M  V30 25 C 0.439443 -1.013575 -0.888044 0
M  V30 26 C 1.734475 -0.876791 -0.437465 0
M  V30 27 H 2.969174 -5.758323 -2.125166 0
M  V30 28 H 4.208648 -4.626241 -2.736924 0
M  V30 29 H 3.602209 -4.557680 -0.979245 0
M  V30 30 H 2.273460 -3.927499 -3.657753 0
M  V30 31 H 0.062088 -3.914631 -2.546354 0
M  V30 32 H 0.910670 -4.153212 -0.925806 0
M  V30 33 H 0.895355 -5.439969 -2.178689 0
M  V30 34 H 2.596961 -1.673225 -2.999085 0
M  V30 35 H 5.361162 -0.554093 0.724235 0
M  V30 36 H 1.310493 1.185100 2.117383 0
M  V30 37 H -0.170200 1.010459 3.510378 0
M  V30 38 H -1.770530 2.219654 4.837509 0
M  V30 39 H -4.522362 3.898959 6.552208 0
M  V30 40 H -3.253590 2.627134 6.246677 0
M  V30 41 H -2.926210 4.368566 5.958576 0
M  V30 42 H -2.621200 1.604937 0.049642 0
M  V30 43 H -1.612306 -0.404771 -0.542397 0
M  V30 44 H 0.180784 -1.618444 -1.727157 0
M  V30 END ATOM
M  V30 BEGIN BOND
M  V30 1 1 1 2
M  V30 2 1 2 3
M  V30 3 1 2 4
M  V30 4 1 4 5
M  V30 5 2 5 6
M  V30 6 1 6 7
M  V30 7 3 7 8
M  V30 8 1 6 9
M  V30 9 2 9 10
M  V30 10 1 10 11
M  V30 11 2 11 12
M  V30 12 1 12 13
M  V30 13 1 13 14
M  V30 14 2 14 15
M  V30 15 1 15 16
M  V30 16 2 16 17
M  V30 17 1 17 18
M  V30 18 1 18 19
M  V30 19 2 18 20
M  V30 20 2 18 21
M  V30 21 1 17 22
M  V30 22 2 22 23
M  V30 23 2 13 24
M  V30 24 1 24 25
M  V30 25 2 25 26
M  V30 26 1 26 5
M  V30 27 1 26 11
M  V30 28 1 23 14
M  V30 29 1 1 27
M  V30 30 1 1 28
M  V30 31 1 1 29
M  V30 32 1 2 30
M  V30 33 1 3 31
M  V30 34 1 3 32
M  V30 35 1 3 33
M  V30 36 1 4 34
M  V30 37 1 9 35
M  V30 38 1 12 36
M  V30 39 1 15 37
M  V30 40 1 16 38
M  V30 41 1 19 39
M  V30 42 1 19 40
M  V30 43 1 19 41
M  V30 44 1 23 42
M  V30 45 1 24 43
M  V30 46 1 25 44
M  V30 END BOND
M  V30 END CTAB
M  END
>  <Dataset>  (970) 
ChEMBL_Kinases

>  <Ligand_Instance>  (970) 
nan

>  <PDB_ID>  (970) 
nan

>  <Standardized_SMILES>  (970) 
CC(C)Nc1c(C#N)cnc2cc(-c3ccc(S(C)(=O)=O)nc3)ccc12

>  <Name>  (970) 
nan

>  <Pocket>  (970) 
nan

>  <ATP_Site>  (970) 
nan

>  <Peripheral>  (970) 
nan

>  <Num_H_Atoms_ProtBoundConf>  (970) 
nan

>  <Num_Resolved_Atoms>  (970) 
nan

>  <Num_Not_Resolved_Atoms>  (970) 
nan

$$$$
CHEMBL2347807
     RDKit          3D

  0  0  0  0  0  0  0  0  0  0999 V3000
M  V30 BEGIN CTAB
M  V30 COUNTS 36 38 0 0 0
M  V30 BEGIN ATOM
M  V30 1 C 1.326526 -4.206039 -0.836597 0
M  V30 2 C 1.912934 -3.149728 0.075577 0
M  V30 3 C 3.208443 -3.690433 0.597491 0
M  V30 4 N 1.014832 -2.804198 1.157880 0
M  V30 5 C -0.281538 -2.273159 0.922058 0
M  V30 6 C -1.466068 -2.954141 0.765587 0
M  V30 7 C -1.366942 -4.382701 0.857170 0
M  V30 8 N -1.306463 -5.548506 0.933344 0
M  V30 9 C -2.648175 -2.282518 0.539356 0
M  V30 10 N -2.620181 -0.940232 0.474327 0
M  V30 11 C -1.480890 -0.224502 0.621726 0
M  V30 12 C -1.614339 1.167105 0.528036 0
M  V30 13 C -0.439191 1.871379 0.681850 0
M  V30 14 C -0.530904 3.343375 0.590771 0
M  V30 15 C 0.467254 4.216039 0.707277 0
M  V30 16 C 0.250844 5.559093 0.602695 0
M  V30 17 C -1.202954 5.883672 0.350405 0
M  V30 18 Cl -1.733775 7.653252 0.172827 0
M  V30 19 S -2.004939 4.168392 0.309296 0
M  V30 20 C 0.781237 1.280732 0.910065 0
M  V30 21 C 0.851319 -0.094414 0.992639 0
M  V30 22 C -0.280140 -0.886591 0.850455 0
M  V30 23 H 0.411737 -3.834192 -1.363453 0
M  V30 24 H 1.170667 -5.158291 -0.309517 0
M  V30 25 H 2.133706 -4.401287 -1.601532 0
M  V30 26 H 2.106304 -2.254837 -0.585725 0
M  V30 27 H 4.012931 -3.610900 -0.158493 0
M  V30 28 H 3.502197 -3.157497 1.521919 0
M  V30 29 H 3.073529 -4.790664 0.790743 0
M  V30 30 H 1.193551 -2.894927 2.165894 0
M  V30 31 H -3.563580 -2.861413 0.421120 0
M  V30 32 H -2.579519 1.598552 0.349397 0
M  V30 33 H 1.486627 3.904938 0.888503 0
M  V30 34 H 0.931482 6.387621 0.670053 0
M  V30 35 H 1.701098 1.845383 1.029769 0
M  V30 36 H 1.796043 -0.605235 1.172073 0
M  V30 END ATOM
M  V30 BEGIN BOND
M  V30 1 1 1 2
M  V30 2 1 2 3
M  V30 3 1 2 4
M  V30 4 1 4 5
M  V30 5 2 5 6
M  V30 6 1 6 7
M  V30 7 3 7 8
M  V30 8 1 6 9
M  V30 9 2 9 10
M  V30 10 1 10 11
M  V30 11 2 11 12
M  V30 12 1 12 13
M  V30 13 1 13 14
M  V30 14 2 14 15
M  V30 15 1 15 16
M  V30 16 2 16 17
M  V30 17 1 17 18
M  V30 18 1 17 19
M  V30 19 2 13 20
M  V30 20 1 20 21
M  V30 21 2 21 22
M  V30 22 1 22 5
M  V30 23 1 22 11
M  V30 24 1 19 14
M  V30 25 1 1 23
M  V30 26 1 1 24
M  V30 27 1 1 25
M  V30 28 1 2 26
M  V30 29 1 3 27
M  V30 30 1 3 28
M  V30 31 1 3 29
M  V30 32 1 4 30
M  V30 33 1 9 31
M  V30 34 1 12 32
M  V30 35 1 15 33
M  V30 36 1 16 34
M  V30 37 1 20 35
M  V30 38 1 21 36
M  V30 END BOND
M  V30 END CTAB
M  END
>  <Dataset>  (971) 
ChEMBL_Kinases

>  <Ligand_Instance>  (971) 
nan

>  <PDB_ID>  (971) 
nan

>  <Standardized_SMILES>  (971) 
CC(C)Nc1c(C#N)cnc2cc(-c3ccc(Cl)s3)ccc12

>  <Name>  (971) 
nan

>  <Pocket>  (971) 
nan

>  <ATP_Site>  (971) 
nan

>  <Peripheral>  (971) 
nan

>  <Num_H_Atoms_ProtBoundConf>  (971) 
nan

>  <Num_Resolved_Atoms>  (971) 
nan

>  <Num_Not_Resolved_Atoms>  (971) 
nan

$$$$
CHEMBL2347808
     RDKit          3D

  0  0  0  0  0  0  0  0  0  0999 V3000
M  V30 BEGIN CTAB
M  V30 COUNTS 29 30 0 0 0
M  V30 BEGIN ATOM
M  V30 1 C -1.327622 -3.140217 1.924011 0
M  V30 2 C -0.373784 -2.132843 2.561660 0
M  V30 3 C -1.212383 -0.991983 3.083222 0
M  V30 4 N 0.628473 -1.694345 1.638468 0
M  V30 5 C 0.787713 -1.028200 0.400093 0
M  V30 6 C 0.759484 -1.838140 -0.739067 0
M  V30 7 C 0.584734 -3.277750 -0.675210 0
M  V30 8 N 0.461937 -4.427934 -0.612862 0
M  V30 9 C 0.898249 -1.337021 -2.017393 0
M  V30 10 N 1.065956 -0.010504 -2.133403 0
M  V30 11 C 1.107009 0.846379 -1.101200 0
M  V30 12 C 1.285493 2.208801 -1.236987 0
M  V30 13 C 1.320182 3.020100 -0.101103 0
M  V30 14 C 1.177161 2.476364 1.175516 0
M  V30 15 C 1.001381 1.120450 1.276411 0
M  V30 16 C 0.965775 0.316537 0.162057 0
M  V30 17 H -0.847390 -4.116793 1.835898 0
M  V30 18 H -1.708188 -2.696739 0.993362 0
M  V30 19 H -2.177282 -3.268458 2.645009 0
M  V30 20 H 0.124784 -2.679150 3.380896 0
M  V30 21 H -0.654633 -0.353346 3.800605 0
M  V30 22 H -2.132471 -1.443406 3.528305 0
M  V30 23 H -1.517683 -0.346222 2.234242 0
M  V30 24 H 1.656711 -1.856375 1.812391 0
M  V30 25 H 0.876864 -1.959338 -2.900934 0
M  V30 26 H 1.391085 2.578350 -2.245738 0
M  V30 27 H 1.465121 4.080383 -0.311285 0
M  V30 28 H 1.214622 3.166905 2.011417 0
M  V30 29 H 0.901598 0.732098 2.260313 0
M  V30 END ATOM
M  V30 BEGIN BOND
M  V30 1 1 1 2
M  V30 2 1 2 3
M  V30 3 1 2 4
M  V30 4 1 4 5
M  V30 5 2 5 6
M  V30 6 1 6 7
M  V30 7 3 7 8
M  V30 8 1 6 9
M  V30 9 2 9 10
M  V30 10 1 10 11
M  V30 11 2 11 12
M  V30 12 1 12 13
M  V30 13 2 13 14
M  V30 14 1 14 15
M  V30 15 2 15 16
M  V30 16 1 16 5
M  V30 17 1 16 11
M  V30 18 1 1 17
M  V30 19 1 1 18
M  V30 20 1 1 19
M  V30 21 1 2 20
M  V30 22 1 3 21
M  V30 23 1 3 22
M  V30 24 1 3 23
M  V30 25 1 4 24
M  V30 26 1 9 25
M  V30 27 1 12 26
M  V30 28 1 13 27
M  V30 29 1 14 28
M  V30 30 1 15 29
M  V30 END BOND
M  V30 END CTAB
M  END
>  <Dataset>  (972) 
ChEMBL_Kinases

>  <Ligand_Instance>  (972) 
nan

>  <PDB_ID>  (972) 
nan

>  <Standardized_SMILES>  (972) 
CC(C)Nc1c(C#N)cnc2ccccc12

>  <Name>  (972) 
nan

>  <Pocket>  (972) 
nan

>  <ATP_Site>  (972) 
nan

>  <Peripheral>  (972) 
nan

>  <Num_H_Atoms_ProtBoundConf>  (972) 
nan

>  <Num_Resolved_Atoms>  (972) 
nan

>  <Num_Not_Resolved_Atoms>  (972) 
nan

$$$$
CHEMBL2347809
     RDKit          3D

  0  0  0  0  0  0  0  0  0  0999 V3000
M  V30 BEGIN CTAB
M  V30 COUNTS 37 40 0 0 0
M  V30 BEGIN ATOM
M  V30 1 C -0.263392 -6.636387 3.087592 0
M  V30 2 N 0.530471 -5.504128 2.683341 0
M  V30 3 C 0.058397 -4.340294 2.204999 0
M  V30 4 C 1.126653 -3.498096 1.926582 0
M  V30 5 C 0.937655 -2.156265 1.392568 0
M  V30 6 C -0.105910 -1.821984 0.554570 0
M  V30 7 C -0.217336 -0.529627 0.089658 0
M  V30 8 C 0.645554 0.489314 0.395281 0
M  V30 9 C 0.446165 1.751210 -0.118993 0
M  V30 10 N -0.623540 2.118031 -0.992652 0
M  V30 11 C -1.766667 1.590730 -1.657325 0
M  V30 12 C -1.965753 2.883186 -2.378891 0
M  V30 13 C -0.859256 3.397889 -1.527509 0
M  V30 14 C 1.432928 2.602735 0.330021 0
M  V30 15 C 1.423856 3.997410 -0.073034 0
M  V30 16 N 1.434389 5.132369 -0.390180 0
M  V30 17 C 2.468131 2.273968 1.160869 0
M  V30 18 N 2.579280 1.022640 1.608630 0
M  V30 19 C 1.667276 0.107007 1.232469 0
M  V30 20 C 1.828182 -1.169259 1.727633 0
M  V30 21 C 2.246504 -4.205858 2.257726 0
M  V30 22 N 1.868018 -5.433427 2.720209 0
M  V30 23 H -1.017071 -6.832186 2.286939 0
M  V30 24 H 0.357664 -7.564876 3.134676 0
M  V30 25 H -0.826448 -6.472586 4.027194 0
M  V30 26 H -1.003129 -4.133086 2.072449 0
M  V30 27 H -0.778839 -2.636148 0.321202 0
M  V30 28 H -1.065948 -0.416761 -0.538998 0
M  V30 29 H -2.618601 1.288259 -0.999456 0
M  V30 30 H -1.531222 0.802904 -2.438913 0
M  V30 31 H -1.770649 2.861848 -3.476257 0
M  V30 32 H -2.976581 3.339742 -2.136847 0
M  V30 33 H -0.031168 3.749402 -2.223582 0
M  V30 34 H -1.129399 4.212277 -0.823490 0
M  V30 35 H 3.212348 2.961887 1.484588 0
M  V30 36 H 2.650140 -1.414240 2.383452 0
M  V30 37 H 3.234944 -3.774022 2.136451 0
M  V30 END ATOM
M  V30 BEGIN BOND
M  V30 1 1 1 2
M  V30 2 1 2 3
M  V30 3 2 3 4
M  V30 4 1 4 5
M  V30 5 2 5 6
M  V30 6 1 6 7
M  V30 7 2 7 8
M  V30 8 1 8 9
M  V30 9 1 9 10
M  V30 10 1 10 11
M  V30 11 1 11 12
M  V30 12 1 12 13
M  V30 13 2 9 14
M  V30 14 1 14 15
M  V30 15 3 15 16
M  V30 16 1 14 17
M  V30 17 2 17 18
M  V30 18 1 18 19
M  V30 19 2 19 20
M  V30 20 1 4 21
M  V30 21 2 21 22
M  V30 22 1 22 2
M  V30 23 1 20 5
M  V30 24 1 19 8
M  V30 25 1 13 10
M  V30 26 1 1 23
M  V30 27 1 1 24
M  V30 28 1 1 25
M  V30 29 1 3 26
M  V30 30 1 6 27
M  V30 31 1 7 28
M  V30 32 1 11 29
M  V30 33 1 11 30
M  V30 34 1 12 31
M  V30 35 1 12 32
M  V30 36 1 13 33
M  V30 37 1 13 34
M  V30 38 1 17 35
M  V30 39 1 20 36
M  V30 40 1 21 37
M  V30 END BOND
M  V30 END CTAB
M  END
>  <Dataset>  (973) 
ChEMBL_Kinases

>  <Ligand_Instance>  (973) 
nan

>  <PDB_ID>  (973) 
nan

>  <Standardized_SMILES>  (973) 
Cn1cc(-c2ccc3c(N4CCC4)c(C#N)cnc3c2)cn1

>  <Name>  (973) 
nan

>  <Pocket>  (973) 
nan

>  <ATP_Site>  (973) 
nan

>  <Peripheral>  (973) 
nan

>  <Num_H_Atoms_ProtBoundConf>  (973) 
nan

>  <Num_Resolved_Atoms>  (973) 
nan

>  <Num_Not_Resolved_Atoms>  (973) 
nan

$$$$
CHEMBL2347810
     RDKit          3D

  0  0  0  0  0  0  0  0  0  0999 V3000
M  V30 BEGIN CTAB
M  V30 COUNTS 43 46 0 0 0
M  V30 BEGIN ATOM
M  V30 1 C 0.568684 -7.863503 2.199923 0
M  V30 2 S 1.222542 -7.139914 0.703832 0
M  V30 3 O 0.505010 -7.794202 -0.438341 0
M  V30 4 O 2.687278 -7.427471 0.545992 0
M  V30 5 C 0.928598 -5.415812 0.695649 0
M  V30 6 C 1.843734 -4.510405 1.234034 0
M  V30 7 C 1.570202 -3.138117 1.207282 0
M  V30 8 C 0.375072 -2.687397 0.637513 0
M  V30 9 C 0.183175 -1.242148 0.657865 0
M  V30 10 C 1.244660 -0.351079 0.572069 0
M  V30 11 C 1.009903 0.985894 0.595690 0
M  V30 12 C -0.233384 1.567216 0.701160 0
M  V30 13 C -0.354923 2.940164 0.715153 0
M  V30 14 N 0.737869 3.853609 0.626270 0
M  V30 15 C 2.159429 3.933969 0.505486 0
M  V30 16 C 2.128597 5.415991 0.558243 0
M  V30 17 C 0.644850 5.290552 0.641459 0
M  V30 18 C -1.681178 3.305601 0.826392 0
M  V30 19 C -2.044521 4.710400 0.858126 0
M  V30 20 N -2.353205 5.827885 0.876295 0
M  V30 21 C -2.731876 2.441392 0.911444 0
M  V30 22 N -2.509930 1.119558 0.889240 0
M  V30 23 C -1.243931 0.641296 0.782621 0
M  V30 24 C -1.080683 -0.705209 0.764927 0
M  V30 25 C -0.536008 -3.574898 0.102598 0
M  V30 26 C -0.243786 -4.929305 0.140376 0
M  V30 27 H 0.838992 -7.181784 3.034697 0
M  V30 28 H 0.972109 -8.858618 2.385744 0
M  V30 29 H -0.541824 -7.844533 2.099878 0
M  V30 30 H 2.744732 -4.885218 1.660635 0
M  V30 31 H 2.336271 -2.513444 1.647066 0
M  V30 32 H 2.211073 -0.832678 0.489978 0
M  V30 33 H 1.921528 1.547293 0.520641 0
M  V30 34 H 2.544121 3.579829 -0.484814 0
M  V30 35 H 2.768741 3.555454 1.369499 0
M  V30 36 H 2.588972 5.861135 1.482388 0
M  V30 37 H 2.457016 5.940211 -0.374651 0
M  V30 38 H 0.151439 5.694285 -0.273549 0
M  V30 39 H 0.293515 5.726278 1.604183 0
M  V30 40 H -3.750731 2.756977 0.996862 0
M  V30 41 H -1.935232 -1.374939 0.833915 0
M  V30 42 H -1.445334 -3.184972 -0.327317 0
M  V30 43 H -0.976598 -5.618726 -0.287664 0
M  V30 END ATOM
M  V30 BEGIN BOND
M  V30 1 1 1 2
M  V30 2 2 2 3
M  V30 3 2 2 4
M  V30 4 1 2 5
M  V30 5 2 5 6
M  V30 6 1 6 7
M  V30 7 2 7 8
M  V30 8 1 8 9
M  V30 9 2 9 10
M  V30 10 1 10 11
M  V30 11 2 11 12
M  V30 12 1 12 13
M  V30 13 1 13 14
M  V30 14 1 14 15
M  V30 15 1 15 16
M  V30 16 1 16 17
M  V30 17 2 13 18
M  V30 18 1 18 19
M  V30 19 3 19 20
M  V30 20 1 18 21
M  V30 21 2 21 22
M  V30 22 1 22 23
M  V30 23 2 23 24
M  V30 24 1 8 25
M  V30 25 2 25 26
M  V30 26 1 26 5
M  V30 27 1 24 9
M  V30 28 1 23 12
M  V30 29 1 17 14
M  V30 30 1 1 27
M  V30 31 1 1 28
M  V30 32 1 1 29
M  V30 33 1 6 30
M  V30 34 1 7 31
M  V30 35 1 10 32
M  V30 36 1 11 33
M  V30 37 1 15 34
M  V30 38 1 15 35
M  V30 39 1 16 36
M  V30 40 1 16 37
M  V30 41 1 17 38
M  V30 42 1 17 39
M  V30 43 1 21 40
M  V30 44 1 24 41
M  V30 45 1 25 42
M  V30 46 1 26 43
M  V30 END BOND
M  V30 END CTAB
M  END
>  <Dataset>  (974) 
ChEMBL_Kinases

>  <Ligand_Instance>  (974) 
nan

>  <PDB_ID>  (974) 
nan

>  <Standardized_SMILES>  (974) 
CS(=O)(=O)c1ccc(-c2ccc3c(N4CCC4)c(C#N)cnc3c2)cc1

>  <Name>  (974) 
nan

>  <Pocket>  (974) 
nan

>  <ATP_Site>  (974) 
nan

>  <Peripheral>  (974) 
nan

>  <Num_H_Atoms_ProtBoundConf>  (974) 
nan

>  <Num_Resolved_Atoms>  (974) 
nan

>  <Num_Not_Resolved_Atoms>  (974) 
nan

$$$$
CHEMBL2347085
     RDKit          3D

  0  0  0  0  0  0  0  0  0  0999 V3000
M  V30 BEGIN CTAB
M  V30 COUNTS 27 29 0 0 0
M  V30 BEGIN ATOM
M  V30 1 N -2.458224 -2.699816 1.292811 0
M  V30 2 C -1.524212 -1.736669 1.728885 0
M  V30 3 C -1.612971 -1.502146 3.097268 0
M  V30 4 C -0.773862 -0.586101 3.712839 0
M  V30 5 C 0.161387 0.109766 2.987601 0
M  V30 6 C 0.241232 -0.125379 1.644952 0
M  V30 7 C -0.577272 -1.025115 1.028085 0
M  V30 8 C 1.296703 0.707849 1.118753 0
M  V30 9 C 1.610787 0.767206 -0.152982 0
M  V30 10 C 1.088404 0.119864 -1.344872 0
M  V30 11 C 2.025823 -0.551500 -2.115011 0
M  V30 12 C 1.436624 -1.130539 -3.233361 0
M  V30 13 C 0.119944 -0.754186 -3.059450 0
M  V30 14 O -0.040888 -0.049683 -1.984480 0
M  V30 15 C 1.850787 1.455644 2.214729 0
M  V30 16 O 2.789017 2.288565 2.164557 0
M  V30 17 N 1.128819 1.071203 3.378960 0
M  V30 18 H -1.800242 -3.500158 1.107488 0
M  V30 19 H -3.482593 -2.742000 1.152080 0
M  V30 20 H -2.302173 -1.982431 3.771941 0
M  V30 21 H -0.819603 -0.383480 4.771532 0
M  V30 22 H -0.641094 -1.346847 0.015427 0
M  V30 23 H 2.449277 1.471888 -0.342370 0
M  V30 24 H 3.113008 -0.695766 -1.988962 0
M  V30 25 H 1.878847 -1.710438 -4.018739 0
M  V30 26 H -0.624680 -1.068396 -3.806846 0
M  V30 27 H 1.312814 1.454299 4.337400 0
M  V30 END ATOM
M  V30 BEGIN BOND
M  V30 1 1 1 2
M  V30 2 2 2 3
M  V30 3 1 3 4
M  V30 4 2 4 5
M  V30 5 1 5 6
M  V30 6 2 6 7
M  V30 7 1 6 8
M  V30 8 2 8 9
M  V30 9 1 9 10
M  V30 10 2 10 11
M  V30 11 1 11 12
M  V30 12 2 12 13
M  V30 13 1 13 14
M  V30 14 1 8 15
M  V30 15 2 15 16
M  V30 16 1 15 17
M  V30 17 1 7 2
M  V30 18 1 14 10
M  V30 19 1 17 5
M  V30 20 1 1 18
M  V30 21 1 1 19
M  V30 22 1 3 20
M  V30 23 1 4 21
M  V30 24 1 7 22
M  V30 25 1 9 23
M  V30 26 1 11 24
M  V30 27 1 12 25
M  V30 28 1 13 26
M  V30 29 1 17 27
M  V30 END BOND
M  V30 END CTAB
M  END
>  <Dataset>  (975) 
ChEMBL_Kinases

>  <Ligand_Instance>  (975) 
nan

>  <PDB_ID>  (975) 
nan

>  <Standardized_SMILES>  (975) 
Nc1ccc2c(c1)/C(=C\c1ccco1)C(=O)N2

>  <Name>  (975) 
nan

>  <Pocket>  (975) 
nan

>  <ATP_Site>  (975) 
nan

>  <Peripheral>  (975) 
nan

>  <Num_H_Atoms_ProtBoundConf>  (975) 
nan

>  <Num_Resolved_Atoms>  (975) 
nan

>  <Num_Not_Resolved_Atoms>  (975) 
nan

$$$$
CHEMBL2348839
     RDKit          3D

  0  0  0  0  0  0  0  0  0  0999 V3000
M  V30 BEGIN CTAB
M  V30 COUNTS 40 42 0 0 0
M  V30 BEGIN ATOM
M  V30 1 O -4.385349 -4.279989 -1.123300 0
M  V30 2 C -3.368031 -4.403316 -0.360854 0
M  V30 3 O -3.673468 -4.667377 0.985708 0
M  V30 4 C -1.886237 -4.335945 -0.542814 0
M  V30 5 C -1.578996 -4.042928 -2.008897 0
M  V30 6 C -0.074672 -3.987384 -2.209170 0
M  V30 7 N 0.509883 -2.922334 -1.374933 0
M  V30 8 C 0.671083 -1.583230 -1.889020 0
M  V30 9 O 0.355340 -1.212226 -3.049419 0
M  V30 10 C 1.240229 -0.689711 -0.931342 0
M  V30 11 C 1.895930 0.402788 -1.081127 0
M  V30 12 C 2.478886 1.325935 -0.071854 0
M  V30 13 C 3.639413 1.961181 0.205034 0
M  V30 14 C 3.326746 2.641165 1.361606 0
M  V30 15 C 2.033597 2.422594 1.760246 0
M  V30 16 C 1.339641 2.956170 2.916496 0
M  V30 17 C 1.789534 3.831457 3.855562 0
M  V30 18 Cl 3.398843 4.475756 3.717018 0
M  V30 19 C 1.049952 4.257683 4.928264 0
M  V30 20 C -0.238724 3.805804 5.124643 0
M  V30 21 C -0.726059 2.897815 4.165093 0
M  V30 22 C 0.055208 2.502142 3.105600 0
M  V30 23 Cl -0.804311 1.367429 2.057293 0
M  V30 24 O 1.588095 1.611148 0.834389 0
M  V30 25 S 0.899583 -1.454387 0.667451 0
M  V30 26 C 0.936694 -3.150283 -0.010512 0
M  V30 27 S 1.314416 -4.645934 0.541457 0
M  V30 28 H -4.637302 -4.772410 1.315526 0
M  V30 29 H -1.455246 -5.330596 -0.333833 0
M  V30 30 H -1.519856 -3.549490 0.141707 0
M  V30 31 H -2.057867 -3.104300 -2.347202 0
M  V30 32 H -1.949441 -4.911930 -2.585284 0
M  V30 33 H 0.411073 -4.932148 -1.966188 0
M  V30 34 H 0.099309 -3.748559 -3.276136 0
M  V30 35 H 2.047728 0.703417 -2.106234 0
M  V30 36 H 4.439262 1.789968 -0.483231 0
M  V30 37 H 4.117004 3.236929 1.789572 0
M  V30 38 H 1.451606 4.947096 5.638642 0
M  V30 39 H -0.799551 4.160125 5.979222 0
M  V30 40 H -1.730465 2.579430 4.366651 0
M  V30 END ATOM
M  V30 BEGIN BOND
M  V30 1 2 1 2
M  V30 2 1 2 3
M  V30 3 1 2 4
M  V30 4 1 4 5
M  V30 5 1 5 6
M  V30 6 1 6 7
M  V30 7 1 7 8
M  V30 8 2 8 9
M  V30 9 1 8 10
M  V30 10 2 10 11
M  V30 11 1 11 12
M  V30 12 2 12 13
M  V30 13 1 13 14
M  V30 14 2 14 15
M  V30 15 1 15 16
M  V30 16 2 16 17
M  V30 17 1 17 18
M  V30 18 1 17 19
M  V30 19 2 19 20
M  V30 20 1 20 21
M  V30 21 2 21 22
M  V30 22 1 22 23
M  V30 23 1 15 24
M  V30 24 1 10 25
M  V30 25 1 25 26
M  V30 26 2 26 27
M  V30 27 1 26 7
M  V30 28 1 24 12
M  V30 29 1 22 16
M  V30 30 1 3 28
M  V30 31 1 4 29
M  V30 32 1 4 30
M  V30 33 1 5 31
M  V30 34 1 5 32
M  V30 35 1 6 33
M  V30 36 1 6 34
M  V30 37 1 11 35
M  V30 38 1 13 36
M  V30 39 1 14 37
M  V30 40 1 19 38
M  V30 41 1 20 39
M  V30 42 1 21 40
M  V30 END BOND
M  V30 END CTAB
M  END
>  <Dataset>  (976) 
ChEMBL_Kinases

>  <Ligand_Instance>  (976) 
nan

>  <PDB_ID>  (976) 
nan

>  <Standardized_SMILES>  (976) 
O=C(O)CCCN1C(=O)/C(=C/c2ccc(-c3c(Cl)cccc3Cl)o2)SC1=S

>  <Name>  (976) 
nan

>  <Pocket>  (976) 
nan

>  <ATP_Site>  (976) 
nan

>  <Peripheral>  (976) 
nan

>  <Num_H_Atoms_ProtBoundConf>  (976) 
nan

>  <Num_Resolved_Atoms>  (976) 
nan

>  <Num_Not_Resolved_Atoms>  (976) 
nan

$$$$
CHEMBL2348838
     RDKit          3D

  0  0  0  0  0  0  0  0  0  0999 V3000
M  V30 BEGIN CTAB
M  V30 COUNTS 40 42 0 0 0
M  V30 BEGIN ATOM
M  V30 1 C 0.878609 -6.845089 0.348865 0
M  V30 2 C 1.379074 -5.393247 0.375262 0
M  V30 3 C 0.118260 -4.552729 0.518920 0
M  V30 4 C -0.520295 -4.954006 1.768378 0
M  V30 5 O -0.672515 -3.920829 2.489342 0
M  V30 6 O -1.123298 -5.513213 2.881257 0
M  V30 7 N 0.383882 -3.125392 0.422457 0
M  V30 8 C -0.134783 -2.348691 -0.676931 0
M  V30 9 O -0.835652 -2.783070 -1.640239 0
M  V30 10 C 0.209514 -0.932521 -0.625169 0
M  V30 11 C 0.282648 -0.031857 -1.553527 0
M  V30 12 C 0.654780 1.380038 -1.287212 0
M  V30 13 C 1.474983 2.257247 -1.910013 0
M  V30 14 C 1.361735 3.396052 -1.142638 0
M  V30 15 C 0.498131 3.198418 -0.093980 0
M  V30 16 C 0.012448 4.020254 0.998984 0
M  V30 17 C -0.889588 3.467026 1.887780 0
M  V30 18 C -1.388885 4.212528 2.951384 0
M  V30 19 Cl -2.533296 3.487758 4.059275 0
M  V30 20 C -1.015809 5.523973 3.172792 0
M  V30 21 C -0.122342 6.077808 2.295106 0
M  V30 22 C 0.355654 5.320647 1.252386 0
M  V30 23 Cl 1.483667 6.144598 0.206467 0
M  V30 24 O 0.112682 1.959507 -0.248085 0
M  V30 25 S 0.570125 -0.679126 1.135533 0
M  V30 26 C 1.143328 -2.389650 1.374614 0
M  V30 27 S 2.247612 -3.024487 2.396717 0
M  V30 28 H 1.702245 -7.566639 0.509889 0
M  V30 29 H 0.117917 -7.016456 1.136581 0
M  V30 30 H 0.352168 -7.040296 -0.621181 0
M  V30 31 H 1.901608 -5.244073 -0.569047 0
M  V30 32 H 2.003633 -5.292385 1.280220 0
M  V30 33 H -0.531822 -4.914149 -0.333470 0
M  V30 34 H -0.715316 -6.301558 3.374239 0
M  V30 35 H 0.059827 -0.325503 -2.591030 0
M  V30 36 H 2.030063 2.011186 -2.783285 0
M  V30 37 H 1.881064 4.309963 -1.344595 0
M  V30 38 H -1.258720 2.437757 1.813682 0
M  V30 39 H -1.438228 6.051348 4.015240 0
M  V30 40 H 0.168374 7.090413 2.460862 0
M  V30 END ATOM
M  V30 BEGIN BOND
M  V30 1 1 1 2
M  V30 2 1 2 3
M  V30 3 1 3 4
M  V30 4 2 4 5
M  V30 5 1 4 6
M  V30 6 1 3 7
M  V30 7 1 7 8
M  V30 8 2 8 9
M  V30 9 1 8 10
M  V30 10 2 10 11
M  V30 11 1 11 12
M  V30 12 2 12 13
M  V30 13 1 13 14
M  V30 14 2 14 15
M  V30 15 1 15 16
M  V30 16 2 16 17
M  V30 17 1 17 18
M  V30 18 1 18 19
M  V30 19 2 18 20
M  V30 20 1 20 21
M  V30 21 2 21 22
M  V30 22 1 22 23
M  V30 23 1 15 24
M  V30 24 1 10 25
M  V30 25 1 25 26
M  V30 26 2 26 27
M  V30 27 1 26 7
M  V30 28 1 24 12
M  V30 29 1 22 16
M  V30 30 1 1 28
M  V30 31 1 1 29
M  V30 32 1 1 30
M  V30 33 1 2 31
M  V30 34 1 2 32
M  V30 35 1 3 33
M  V30 36 1 6 34
M  V30 37 1 11 35
M  V30 38 1 13 36
M  V30 39 1 14 37
M  V30 40 1 17 38
M  V30 41 1 20 39
M  V30 42 1 21 40
M  V30 END BOND
M  V30 END CTAB
M  END
>  <Dataset>  (977) 
ChEMBL_Kinases

>  <Ligand_Instance>  (977) 
nan

>  <PDB_ID>  (977) 
nan

>  <Standardized_SMILES>  (977) 
CCC(C(=O)O)N1C(=O)/C(=C/c2ccc(-c3cc(Cl)ccc3Cl)o2)SC1=S

>  <Name>  (977) 
nan

>  <Pocket>  (977) 
nan

>  <ATP_Site>  (977) 
nan

>  <Peripheral>  (977) 
nan

>  <Num_H_Atoms_ProtBoundConf>  (977) 
nan

>  <Num_Resolved_Atoms>  (977) 
nan

>  <Num_Not_Resolved_Atoms>  (977) 
nan

$$$$
CHEMBL2348837
     RDKit          3D

  0  0  0  0  0  0  0  0  0  0999 V3000
M  V30 BEGIN CTAB
M  V30 COUNTS 40 42 0 0 0
M  V30 BEGIN ATOM
M  V30 1 O -4.152108 -4.478017 -1.570382 0
M  V30 2 C -3.312273 -4.574807 -0.634236 0
M  V30 3 O -3.786341 -4.830537 0.665972 0
M  V30 4 C -1.820505 -4.464467 -0.633401 0
M  V30 5 C -1.323965 -4.215568 -2.045566 0
M  V30 6 C 0.188104 -4.100177 -2.074064 0
M  V30 7 N 0.654100 -2.972544 -1.250336 0
M  V30 8 C 0.834356 -1.665721 -1.847730 0
M  V30 9 O 0.626867 -1.382828 -3.056662 0
M  V30 10 C 1.292348 -0.671161 -0.895614 0
M  V30 11 C 1.934916 0.434081 -1.084502 0
M  V30 12 C 2.350127 1.374357 -0.046157 0
M  V30 13 C 3.442364 2.108839 0.280757 0
M  V30 14 C 3.140626 2.807415 1.428545 0
M  V30 15 C 1.850215 2.453602 1.748314 0
M  V30 16 C 1.126881 2.984606 2.924358 0
M  V30 17 C 1.729835 3.853757 3.797891 0
M  V30 18 C 1.051820 4.375022 4.910650 0
M  V30 19 Cl 1.861680 5.477294 5.995159 0
M  V30 20 C -0.272348 3.937819 5.049550 0
M  V30 21 C -0.885785 3.068956 4.182070 0
M  V30 22 C -0.199386 2.571565 3.097998 0
M  V30 23 Cl -1.006272 1.469122 2.003786 0
M  V30 24 O 1.384196 1.590240 0.855344 0
M  V30 25 S 0.784235 -1.352169 0.705532 0
M  V30 26 C 0.946310 -3.078805 0.144863 0
M  V30 27 S 1.313670 -4.480392 0.888742 0
M  V30 28 H -4.727929 -5.207875 0.840820 0
M  V30 29 H -1.564429 -3.631165 0.034229 0
M  V30 30 H -1.412147 -5.414422 -0.226415 0
M  V30 31 H -1.830083 -3.343711 -2.485940 0
M  V30 32 H -1.570123 -5.108576 -2.647481 0
M  V30 33 H 0.627671 -5.032496 -1.696533 0
M  V30 34 H 0.480250 -3.936283 -3.127834 0
M  V30 35 H 2.199369 0.710027 -2.082744 0
M  V30 36 H 4.293034 2.028936 -0.357628 0
M  V30 37 H 3.849226 3.471991 1.899395 0
M  V30 38 H 2.757415 4.173819 3.665029 0
M  V30 39 H -0.741031 4.378343 5.932345 0
M  V30 40 H -1.911407 2.823487 4.417702 0
M  V30 END ATOM
M  V30 BEGIN BOND
M  V30 1 2 1 2
M  V30 2 1 2 3
M  V30 3 1 2 4
M  V30 4 1 4 5
M  V30 5 1 5 6
M  V30 6 1 6 7
M  V30 7 1 7 8
M  V30 8 2 8 9
M  V30 9 1 8 10
M  V30 10 2 10 11
M  V30 11 1 11 12
M  V30 12 2 12 13
M  V30 13 1 13 14
M  V30 14 2 14 15
M  V30 15 1 15 16
M  V30 16 2 16 17
M  V30 17 1 17 18
M  V30 18 1 18 19
M  V30 19 2 18 20
M  V30 20 1 20 21
M  V30 21 2 21 22
M  V30 22 1 22 23
M  V30 23 1 15 24
M  V30 24 1 10 25
M  V30 25 1 25 26
M  V30 26 2 26 27
M  V30 27 1 26 7
M  V30 28 1 24 12
M  V30 29 1 22 16
M  V30 30 1 3 28
M  V30 31 1 4 29
M  V30 32 1 4 30
M  V30 33 1 5 31
M  V30 34 1 5 32
M  V30 35 1 6 33
M  V30 36 1 6 34
M  V30 37 1 11 35
M  V30 38 1 13 36
M  V30 39 1 14 37
M  V30 40 1 17 38
M  V30 41 1 20 39
M  V30 42 1 21 40
M  V30 END BOND
M  V30 END CTAB
M  END
>  <Dataset>  (978) 
ChEMBL_Kinases

>  <Ligand_Instance>  (978) 
nan

>  <PDB_ID>  (978) 
nan

>  <Standardized_SMILES>  (978) 
O=C(O)CCCN1C(=O)/C(=C/c2ccc(-c3cc(Cl)ccc3Cl)o2)SC1=S

>  <Name>  (978) 
nan

>  <Pocket>  (978) 
nan

>  <ATP_Site>  (978) 
nan

>  <Peripheral>  (978) 
nan

>  <Num_H_Atoms_ProtBoundConf>  (978) 
nan

>  <Num_Resolved_Atoms>  (978) 
nan

>  <Num_Not_Resolved_Atoms>  (978) 
nan

$$$$
CHEMBL2348836
     RDKit          3D

  0  0  0  0  0  0  0  0  0  0999 V3000
M  V30 BEGIN CTAB
M  V30 COUNTS 40 42 0 0 0
M  V30 BEGIN ATOM
M  V30 1 C -0.049653 -5.483421 0.671493 0
M  V30 2 C -0.404689 -5.069935 -0.709807 0
M  V30 3 C 0.623356 -4.209277 -1.417418 0
M  V30 4 C 1.875179 -4.957428 -1.489133 0
M  V30 5 O 1.684375 -6.104952 -1.952886 0
M  V30 6 O 3.145499 -5.511709 -1.484781 0
M  V30 7 N 0.735042 -2.871597 -0.865631 0
M  V30 8 C 0.273878 -1.777214 -1.648661 0
M  V30 9 O -0.269955 -1.703000 -2.814443 0
M  V30 10 C 0.416478 -0.440390 -1.074477 0
M  V30 11 C 0.515319 0.792205 -1.490006 0
M  V30 12 C 0.649324 1.922053 -0.568131 0
M  V30 13 C 1.399975 3.076525 -0.637846 0
M  V30 14 C 1.070996 3.720682 0.553337 0
M  V30 15 C 0.169445 2.957095 1.266050 0
M  V30 16 C -0.404958 3.323358 2.579433 0
M  V30 17 C -0.033787 4.506582 3.180888 0
M  V30 18 C -0.582316 4.850909 4.419497 0
M  V30 19 C -1.477430 3.942637 4.945877 0
M  V30 20 C -1.862973 2.756491 4.365249 0
M  V30 21 Cl -3.014080 1.723440 5.179266 0
M  V30 22 C -1.316456 2.415876 3.133694 0
M  V30 23 O -0.060347 1.881088 0.558409 0
M  V30 24 S 0.447689 -0.874359 0.696344 0
M  V30 25 C 1.275277 -2.462627 0.379610 0
M  V30 26 S 2.392127 -3.260310 1.259520 0
M  V30 27 H -0.707742 -6.347646 0.983769 0
M  V30 28 H -0.203453 -4.658173 1.366139 0
M  V30 29 H 1.011112 -5.805064 0.698046 0
M  V30 30 H -1.324446 -4.415885 -0.618391 0
M  V30 31 H -0.743822 -5.911082 -1.346543 0
M  V30 32 H 0.196921 -4.127015 -2.485109 0
M  V30 33 H 3.881524 -5.220665 -0.881911 0
M  V30 34 H 0.482298 0.839609 -2.590213 0
M  V30 35 H 2.044859 3.312253 -1.459975 0
M  V30 36 H 1.510737 4.694782 0.812348 0
M  V30 37 H 0.677241 5.163255 2.699884 0
M  V30 38 H -0.329594 5.753073 4.927315 0
M  V30 39 H -1.897984 4.231961 5.919093 0
M  V30 40 H -1.591487 1.499431 2.645929 0
M  V30 END ATOM
M  V30 BEGIN BOND
M  V30 1 1 1 2
M  V30 2 1 2 3
M  V30 3 1 3 4
M  V30 4 2 4 5
M  V30 5 1 4 6
M  V30 6 1 3 7
M  V30 7 1 7 8
M  V30 8 2 8 9
M  V30 9 1 8 10
M  V30 10 2 10 11
M  V30 11 1 11 12
M  V30 12 2 12 13
M  V30 13 1 13 14
M  V30 14 2 14 15
M  V30 15 1 15 16
M  V30 16 2 16 17
M  V30 17 1 17 18
M  V30 18 2 18 19
M  V30 19 1 19 20
M  V30 20 1 20 21
M  V30 21 2 20 22
M  V30 22 1 15 23
M  V30 23 1 10 24
M  V30 24 1 24 25
M  V30 25 2 25 26
M  V30 26 1 25 7
M  V30 27 1 23 12
M  V30 28 1 22 16
M  V30 29 1 1 27
M  V30 30 1 1 28
M  V30 31 1 1 29
M  V30 32 1 2 30
M  V30 33 1 2 31
M  V30 34 1 3 32
M  V30 35 1 6 33
M  V30 36 1 11 34
M  V30 37 1 13 35
M  V30 38 1 14 36
M  V30 39 1 17 37
M  V30 40 1 18 38
M  V30 41 1 19 39
M  V30 42 1 22 40
M  V30 END BOND
M  V30 END CTAB
M  END
>  <Dataset>  (979) 
ChEMBL_Kinases

>  <Ligand_Instance>  (979) 
nan

>  <PDB_ID>  (979) 
nan

>  <Standardized_SMILES>  (979) 
CCC(C(=O)O)N1C(=O)/C(=C/c2ccc(-c3cccc(Cl)c3)o2)SC1=S

>  <Name>  (979) 
nan

>  <Pocket>  (979) 
nan

>  <ATP_Site>  (979) 
nan

>  <Peripheral>  (979) 
nan

>  <Num_H_Atoms_ProtBoundConf>  (979) 
nan

>  <Num_Resolved_Atoms>  (979) 
nan

>  <Num_Not_Resolved_Atoms>  (979) 
nan

$$$$
CHEMBL2348835
     RDKit          3D

  0  0  0  0  0  0  0  0  0  0999 V3000
M  V30 BEGIN CTAB
M  V30 COUNTS 37 39 0 0 0
M  V30 BEGIN ATOM
M  V30 1 O 0.312349 -5.566035 -0.154761 0
M  V30 2 C 1.414000 -5.864963 0.337700 0
M  V30 3 O 1.307758 -6.672466 1.486457 0
M  V30 4 C 2.757703 -5.474417 -0.142716 0
M  V30 5 C 3.195674 -4.193914 0.517378 0
M  V30 6 N 2.294535 -3.085601 0.272550 0
M  V30 7 C 2.318728 -2.181932 -0.793667 0
M  V30 8 O 3.178142 -2.236715 -1.731279 0
M  V30 9 C 1.316120 -1.160719 -0.801267 0
M  V30 10 C 0.883901 -0.299042 -1.685408 0
M  V30 11 C -0.202272 0.658188 -1.379834 0
M  V30 12 C -1.273634 1.164297 -2.051480 0
M  V30 13 C -1.904379 2.026075 -1.182049 0
M  V30 14 C -1.195801 2.018533 -0.002643 0
M  V30 15 C -1.436686 2.749028 1.237438 0
M  V30 16 C -0.551158 2.507704 2.291394 0
M  V30 17 C -0.725510 3.174132 3.510364 0
M  V30 18 C -1.777245 4.060481 3.639578 0
M  V30 19 C -2.646072 4.288570 2.583938 0
M  V30 20 Cl -4.003587 5.389999 2.641958 0
M  V30 21 C -2.486986 3.631065 1.359031 0
M  V30 22 O -0.210177 1.201660 -0.173996 0
M  V30 23 S 0.587304 -1.235060 0.855505 0
M  V30 24 C 1.272348 -2.872711 1.221220 0
M  V30 25 S 0.554047 -3.567822 2.473573 0
M  V30 26 H 0.476017 -6.682264 2.066875 0
M  V30 27 H 2.808514 -5.415590 -1.250314 0
M  V30 28 H 3.456024 -6.305869 0.150996 0
M  V30 29 H 3.427487 -4.367621 1.575680 0
M  V30 30 H 4.213064 -3.979414 0.054942 0
M  V30 31 H 1.385710 -0.341139 -2.661351 0
M  V30 32 H -1.471093 0.868026 -3.050846 0
M  V30 33 H -2.784697 2.591659 -1.398149 0
M  V30 34 H 0.279804 1.822415 2.222023 0
M  V30 35 H -0.054612 2.999563 4.333466 0
M  V30 36 H -1.972303 4.608457 4.551571 0
M  V30 37 H -3.145371 3.787019 0.519095 0
M  V30 END ATOM
M  V30 BEGIN BOND
M  V30 1 2 1 2
M  V30 2 1 2 3
M  V30 3 1 2 4
M  V30 4 1 4 5
M  V30 5 1 5 6
M  V30 6 1 6 7
M  V30 7 2 7 8
M  V30 8 1 7 9
M  V30 9 2 9 10
M  V30 10 1 10 11
M  V30 11 2 11 12
M  V30 12 1 12 13
M  V30 13 2 13 14
M  V30 14 1 14 15
M  V30 15 2 15 16
M  V30 16 1 16 17
M  V30 17 2 17 18
M  V30 18 1 18 19
M  V30 19 1 19 20
M  V30 20 2 19 21
M  V30 21 1 14 22
M  V30 22 1 9 23
M  V30 23 1 23 24
M  V30 24 2 24 25
M  V30 25 1 24 6
M  V30 26 1 22 11
M  V30 27 1 21 15
M  V30 28 1 3 26
M  V30 29 1 4 27
M  V30 30 1 4 28
M  V30 31 1 5 29
M  V30 32 1 5 30
M  V30 33 1 10 31
M  V30 34 1 12 32
M  V30 35 1 13 33
M  V30 36 1 16 34
M  V30 37 1 17 35
M  V30 38 1 18 36
M  V30 39 1 21 37
M  V30 END BOND
M  V30 END CTAB
M  END
>  <Dataset>  (980) 
ChEMBL_Kinases

>  <Ligand_Instance>  (980) 
nan

>  <PDB_ID>  (980) 
nan

>  <Standardized_SMILES>  (980) 
O=C(O)CCN1C(=O)/C(=C/c2ccc(-c3cccc(Cl)c3)o2)SC1=S

>  <Name>  (980) 
nan

>  <Pocket>  (980) 
nan

>  <ATP_Site>  (980) 
nan

>  <Peripheral>  (980) 
nan

>  <Num_H_Atoms_ProtBoundConf>  (980) 
nan

>  <Num_Resolved_Atoms>  (980) 
nan

>  <Num_Not_Resolved_Atoms>  (980) 
nan

$$$$
CHEMBL2348834
     RDKit          3D

  0  0  0  0  0  0  0  0  0  0999 V3000
M  V30 BEGIN CTAB
M  V30 COUNTS 46 48 0 0 0
M  V30 BEGIN ATOM
M  V30 1 O 4.015641 -2.991233 5.046009 0
M  V30 2 C 2.924701 -2.752787 4.425689 0
M  V30 3 O 1.947670 -3.653836 4.747699 0
M  V30 4 C 2.448758 -1.748474 3.445029 0
M  V30 5 C 3.551753 -0.758949 3.070632 0
M  V30 6 C 4.741019 -1.409032 2.447471 0
M  V30 7 C 4.571096 -2.206754 1.231461 0
M  V30 8 C 4.108937 -1.617964 -0.047248 0
M  V30 9 N 2.829652 -0.974783 -0.095505 0
M  V30 10 C 2.467091 0.418300 0.030030 0
M  V30 11 O 3.426476 1.257751 0.185919 0
M  V30 12 C 1.074901 0.738112 -0.032021 0
M  V30 13 C 0.538849 1.875350 -0.385766 0
M  V30 14 C -0.920979 1.955716 -0.368777 0
M  V30 15 C -1.686327 3.052654 0.000718 0
M  V30 16 C -3.010083 2.677965 -0.137981 0
M  V30 17 C -3.007971 1.365191 -0.587279 0
M  V30 18 C -4.208715 0.580305 -0.864664 0
M  V30 19 C -5.473265 1.108854 -0.712799 0
M  V30 20 C -6.617681 0.347161 -0.977615 0
M  V30 21 C -6.485522 -0.960544 -1.399594 0
M  V30 22 C -5.228688 -1.475588 -1.546920 0
M  V30 23 C -4.109781 -0.716708 -1.283507 0
M  V30 24 Cl -2.578925 -1.514980 -1.520596 0
M  V30 25 O -1.749177 1.017619 -0.696415 0
M  V30 26 S 0.320366 -0.830390 0.479078 0
M  V30 27 C 1.659598 -1.817326 -0.270573 0
M  V30 28 S 1.399074 -3.270653 -0.926565 0
M  V30 29 H 1.968427 -4.221145 5.580417 0
M  V30 30 H 2.072784 -2.269987 2.537256 0
M  V30 31 H 1.653532 -1.150362 3.926734 0
M  V30 32 H 3.189113 0.161970 2.647035 0
M  V30 33 H 3.947013 -0.459941 4.125032 0
M  V30 34 H 5.168275 -2.092540 3.247343 0
M  V30 35 H 5.480591 -0.572008 2.275572 0
M  V30 36 H 3.742330 -2.971880 1.494892 0
M  V30 37 H 5.456097 -2.897735 1.060375 0
M  V30 38 H 4.882569 -0.832075 -0.385960 0
M  V30 39 H 4.167862 -2.362179 -0.894316 0
M  V30 40 H 1.168980 2.712498 -0.676142 0
M  V30 41 H -1.325827 4.037721 0.340293 0
M  V30 42 H -3.906060 3.278393 0.060585 0
M  V30 43 H -5.545659 2.147452 -0.377696 0
M  V30 44 H -7.586411 0.784958 -0.851134 0
M  V30 45 H -7.390429 -1.527016 -1.596882 0
M  V30 46 H -5.203358 -2.507569 -1.881416 0
M  V30 END ATOM
M  V30 BEGIN BOND
M  V30 1 2 1 2
M  V30 2 1 2 3
M  V30 3 1 2 4
M  V30 4 1 4 5
M  V30 5 1 5 6
M  V30 6 1 6 7
M  V30 7 1 7 8
M  V30 8 1 8 9
M  V30 9 1 9 10
M  V30 10 2 10 11
M  V30 11 1 10 12
M  V30 12 2 12 13
M  V30 13 1 13 14
M  V30 14 2 14 15
M  V30 15 1 15 16
M  V30 16 2 16 17
M  V30 17 1 17 18
M  V30 18 2 18 19
M  V30 19 1 19 20
M  V30 20 2 20 21
M  V30 21 1 21 22
M  V30 22 2 22 23
M  V30 23 1 23 24
M  V30 24 1 17 25
M  V30 25 1 12 26
M  V30 26 1 26 27
M  V30 27 2 27 28
M  V30 28 1 27 9
M  V30 29 1 25 14
M  V30 30 1 23 18
M  V30 31 1 3 29
M  V30 32 1 4 30
M  V30 33 1 4 31
M  V30 34 1 5 32
M  V30 35 1 5 33
M  V30 36 1 6 34
M  V30 37 1 6 35
M  V30 38 1 7 36
M  V30 39 1 7 37
M  V30 40 1 8 38
M  V30 41 1 8 39
M  V30 42 1 13 40
M  V30 43 1 15 41
M  V30 44 1 16 42
M  V30 45 1 19 43
M  V30 46 1 20 44
M  V30 47 1 21 45
M  V30 48 1 22 46
M  V30 END BOND
M  V30 END CTAB
M  END
>  <Dataset>  (981) 
ChEMBL_Kinases

>  <Ligand_Instance>  (981) 
nan

>  <PDB_ID>  (981) 
nan

>  <Standardized_SMILES>  (981) 
O=C(O)CCCCCN1C(=O)/C(=C/c2ccc(-c3ccccc3Cl)o2)SC1=S

>  <Name>  (981) 
nan

>  <Pocket>  (981) 
nan

>  <ATP_Site>  (981) 
nan

>  <Peripheral>  (981) 
nan

>  <Num_H_Atoms_ProtBoundConf>  (981) 
nan

>  <Num_Resolved_Atoms>  (981) 
nan

>  <Num_Not_Resolved_Atoms>  (981) 
nan

$$$$
CHEMBL2348833
     RDKit          3D

  0  0  0  0  0  0  0  0  0  0999 V3000
M  V30 BEGIN CTAB
M  V30 COUNTS 40 42 0 0 0
M  V30 BEGIN ATOM
M  V30 1 O -2.359466 -4.765221 1.057250 0
M  V30 2 C -1.887395 -5.124991 -0.076306 0
M  V30 3 O -3.013918 -5.944874 -0.133563 0
M  V30 4 C -0.630559 -4.594165 -0.653456 0
M  V30 5 C -0.764056 -4.181887 -2.108996 0
M  V30 6 C 0.619893 -3.657406 -2.533394 0
M  V30 7 N 0.975570 -2.506499 -1.679470 0
M  V30 8 C 0.601854 -1.172131 -2.102833 0
M  V30 9 O -0.017433 -0.866644 -3.180906 0
M  V30 10 C 0.968582 -0.102249 -1.223963 0
M  V30 11 C 1.239365 1.154800 -1.323595 0
M  V30 12 C 1.591723 2.009564 -0.168010 0
M  V30 13 C 2.574377 2.927541 0.096626 0
M  V30 14 C 2.257441 3.309713 1.383307 0
M  V30 15 C 1.142327 2.655145 1.862805 0
M  V30 16 C 0.499957 2.787233 3.165061 0
M  V30 17 C 0.971360 3.642983 4.137112 0
M  V30 18 C 0.362757 3.792569 5.388520 0
M  V30 19 C -0.779920 3.023245 5.640995 0
M  V30 20 C -1.245931 2.167149 4.660957 0
M  V30 21 C -0.639296 2.019729 3.416650 0
M  V30 22 Cl -1.343222 0.895453 2.275678 0
M  V30 23 O 0.785411 1.878275 0.871171 0
M  V30 24 S 1.051438 -0.984419 0.366923 0
M  V30 25 C 1.673449 -2.514613 -0.409121 0
M  V30 26 S 2.688336 -3.766574 -0.128714 0
M  V30 27 H -2.903637 -6.936412 0.039956 0
M  V30 28 H -0.426422 -3.650252 -0.069203 0
M  V30 29 H 0.165694 -5.325823 -0.493326 0
M  V30 30 H -1.500823 -3.353408 -2.144575 0
M  V30 31 H -1.061448 -5.000941 -2.759162 0
M  V30 32 H 1.350700 -4.463879 -2.346532 0
M  V30 33 H 0.659095 -3.386211 -3.587501 0
M  V30 34 H 1.187378 1.551032 -2.346808 0
M  V30 35 H 3.311414 3.156475 -0.629876 0
M  V30 36 H 2.865335 4.059845 1.912607 0
M  V30 37 H 1.862636 4.237512 3.939650 0
M  V30 38 H 0.784911 4.485196 6.103067 0
M  V30 39 H -1.281322 3.108045 6.596842 0
M  V30 40 H -2.132675 1.588650 4.889961 0
M  V30 END ATOM
M  V30 BEGIN BOND
M  V30 1 2 1 2
M  V30 2 1 2 3
M  V30 3 1 2 4
M  V30 4 1 4 5
M  V30 5 1 5 6
M  V30 6 1 6 7
M  V30 7 1 7 8
M  V30 8 2 8 9
M  V30 9 1 8 10
M  V30 10 2 10 11
M  V30 11 1 11 12
M  V30 12 2 12 13
M  V30 13 1 13 14
M  V30 14 2 14 15
M  V30 15 1 15 16
M  V30 16 2 16 17
M  V30 17 1 17 18
M  V30 18 2 18 19
M  V30 19 1 19 20
M  V30 20 2 20 21
M  V30 21 1 21 22
M  V30 22 1 15 23
M  V30 23 1 10 24
M  V30 24 1 24 25
M  V30 25 2 25 26
M  V30 26 1 25 7
M  V30 27 1 23 12
M  V30 28 1 21 16
M  V30 29 1 3 27
M  V30 30 1 4 28
M  V30 31 1 4 29
M  V30 32 1 5 30
M  V30 33 1 5 31
M  V30 34 1 6 32
M  V30 35 1 6 33
M  V30 36 1 11 34
M  V30 37 1 13 35
M  V30 38 1 14 36
M  V30 39 1 17 37
M  V30 40 1 18 38
M  V30 41 1 19 39
M  V30 42 1 20 40
M  V30 END BOND
M  V30 END CTAB
M  END
>  <Dataset>  (982) 
ChEMBL_Kinases

>  <Ligand_Instance>  (982) 
nan

>  <PDB_ID>  (982) 
nan

>  <Standardized_SMILES>  (982) 
O=C(O)CCCN1C(=O)/C(=C/c2ccc(-c3ccccc3Cl)o2)SC1=S

>  <Name>  (982) 
nan

>  <Pocket>  (982) 
nan

>  <ATP_Site>  (982) 
nan

>  <Peripheral>  (982) 
nan

>  <Num_H_Atoms_ProtBoundConf>  (982) 
nan

>  <Num_Resolved_Atoms>  (982) 
nan

>  <Num_Not_Resolved_Atoms>  (982) 
nan

$$$$
CHEMBL2348832
     RDKit          3D

  0  0  0  0  0  0  0  0  0  0999 V3000
M  V30 BEGIN CTAB
M  V30 COUNTS 37 39 0 0 0
M  V30 BEGIN ATOM
M  V30 1 O 0.398944 -5.258790 0.573620 0
M  V30 2 C 1.567149 -5.702645 0.585682 0
M  V30 3 O 1.787982 -6.580222 1.662450 0
M  V30 4 C 2.641176 -5.383375 -0.387631 0
M  V30 5 C 3.294411 -4.080325 -0.055955 0
M  V30 6 N 2.351069 -2.975472 -0.068621 0
M  V30 7 C 2.054654 -2.201101 -1.214633 0
M  V30 8 O 2.562475 -2.373508 -2.353638 0
M  V30 9 C 1.096982 -1.145612 -1.030369 0
M  V30 10 C 0.719237 -0.171912 -1.802676 0
M  V30 11 C -0.306219 0.797478 -1.361937 0
M  V30 12 C -1.302180 1.403897 -2.090552 0
M  V30 13 C -1.923908 2.188406 -1.145637 0
M  V30 14 C -1.332540 2.059956 0.085775 0
M  V30 15 C -1.548678 2.620308 1.404988 0
M  V30 16 C -0.690318 2.223387 2.436231 0
M  V30 17 C -0.873836 2.744135 3.719008 0
M  V30 18 C -1.869197 3.640361 4.028187 0
M  V30 19 C -2.713755 4.030863 3.014590 0
M  V30 20 C -2.522866 3.512014 1.757805 0
M  V30 21 Cl -3.654828 4.082334 0.560884 0
M  V30 22 O -0.366780 1.203713 -0.131731 0
M  V30 23 S 0.417683 -1.408002 0.627486 0
M  V30 24 C 1.660545 -2.604745 1.115122 0
M  V30 25 S 1.869671 -3.096749 2.654417 0
M  V30 26 H 1.268317 -6.498454 2.523447 0
M  V30 27 H 2.293883 -5.447038 -1.434425 0
M  V30 28 H 3.418920 -6.184172 -0.264512 0
M  V30 29 H 3.800621 -4.172724 0.930557 0
M  V30 30 H 4.130995 -3.872520 -0.772004 0
M  V30 31 H 1.179962 -0.100317 -2.772346 0
M  V30 32 H -1.493803 1.258568 -3.134697 0
M  V30 33 H -2.768279 2.826586 -1.333637 0
M  V30 34 H 0.120599 1.532891 2.321671 0
M  V30 35 H -0.211464 2.435968 4.511251 0
M  V30 36 H -1.977880 4.017413 5.025303 0
M  V30 37 H -3.481094 4.722981 3.259494 0
M  V30 END ATOM
M  V30 BEGIN BOND
M  V30 1 2 1 2
M  V30 2 1 2 3
M  V30 3 1 2 4
M  V30 4 1 4 5
M  V30 5 1 5 6
M  V30 6 1 6 7
M  V30 7 2 7 8
M  V30 8 1 7 9
M  V30 9 2 9 10
M  V30 10 1 10 11
M  V30 11 2 11 12
M  V30 12 1 12 13
M  V30 13 2 13 14
M  V30 14 1 14 15
M  V30 15 2 15 16
M  V30 16 1 16 17
M  V30 17 2 17 18
M  V30 18 1 18 19
M  V30 19 2 19 20
M  V30 20 1 20 21
M  V30 21 1 14 22
M  V30 22 1 9 23
M  V30 23 1 23 24
M  V30 24 2 24 25
M  V30 25 1 24 6
M  V30 26 1 22 11
M  V30 27 1 20 15
M  V30 28 1 3 26
M  V30 29 1 4 27
M  V30 30 1 4 28
M  V30 31 1 5 29
M  V30 32 1 5 30
M  V30 33 1 10 31
M  V30 34 1 12 32
M  V30 35 1 13 33
M  V30 36 1 16 34
M  V30 37 1 17 35
M  V30 38 1 18 36
M  V30 39 1 19 37
M  V30 END BOND
M  V30 END CTAB
M  END
>  <Dataset>  (983) 
ChEMBL_Kinases

>  <Ligand_Instance>  (983) 
nan

>  <PDB_ID>  (983) 
nan

>  <Standardized_SMILES>  (983) 
O=C(O)CCN1C(=O)/C(=C/c2ccc(-c3ccccc3Cl)o2)SC1=S

>  <Name>  (983) 
nan

>  <Pocket>  (983) 
nan

>  <ATP_Site>  (983) 
nan

>  <Peripheral>  (983) 
nan

>  <Num_H_Atoms_ProtBoundConf>  (983) 
nan

>  <Num_Resolved_Atoms>  (983) 
nan

>  <Num_Not_Resolved_Atoms>  (983) 
nan

$$$$
CHEMBL2348831
     RDKit          3D

  0  0  0  0  0  0  0  0  0  0999 V3000
M  V30 BEGIN CTAB
M  V30 COUNTS 34 36 0 0 0
M  V30 BEGIN ATOM
M  V30 1 O 1.786127 -7.218699 2.011192 0
M  V30 2 C 1.499085 -6.017501 1.714424 0
M  V30 3 O 0.304556 -5.947817 1.010202 0
M  V30 4 C 2.472050 -4.979513 2.169223 0
M  V30 5 N 2.012158 -3.645831 1.752856 0
M  V30 6 C 2.368294 -3.069758 0.538950 0
M  V30 7 O 3.108958 -3.573236 -0.344566 0
M  V30 8 C 1.828399 -1.775103 0.287523 0
M  V30 9 C 1.909675 -0.826202 -0.617001 0
M  V30 10 C 1.228880 0.463527 -0.652505 0
M  V30 11 C 1.796321 1.676843 -1.065808 0
M  V30 12 C 0.737470 2.544117 -0.900740 0
M  V30 13 C -0.378113 1.896066 -0.424114 0
M  V30 14 C -1.693448 2.458704 -0.119048 0
M  V30 15 C -1.975453 3.799352 -0.281711 0
M  V30 16 C -3.267578 4.226476 0.040668 0
M  V30 17 C -4.268648 3.380180 0.510301 0
M  V30 18 C -3.965603 2.052985 0.663958 0
M  V30 19 C -2.691943 1.627574 0.346897 0
M  V30 20 Cl -2.414898 -0.089441 0.577763 0
M  V30 21 O -0.029687 0.615640 -0.286045 0
M  V30 22 S 0.723328 -1.426433 1.683816 0
M  V30 23 C 1.161211 -2.897361 2.605167 0
M  V30 24 S 0.656118 -3.252839 4.109362 0
M  V30 25 H -0.446010 -6.598833 1.168615 0
M  V30 26 H 3.427499 -5.248835 1.634469 0
M  V30 27 H 2.692148 -5.026672 3.250049 0
M  V30 28 H 2.582401 -1.083543 -1.446149 0
M  V30 29 H 2.799475 1.859307 -1.415937 0
M  V30 30 H 0.805506 3.611961 -1.128952 0
M  V30 31 H -1.224359 4.476327 -0.642366 0
M  V30 32 H -3.550550 5.270367 -0.065077 0
M  V30 33 H -5.247666 3.772539 0.742035 0
M  V30 34 H -4.747308 1.402169 1.030795 0
M  V30 END ATOM
M  V30 BEGIN BOND
M  V30 1 2 1 2
M  V30 2 1 2 3
M  V30 3 1 2 4
M  V30 4 1 4 5
M  V30 5 1 5 6
M  V30 6 2 6 7
M  V30 7 1 6 8
M  V30 8 2 8 9
M  V30 9 1 9 10
M  V30 10 2 10 11
M  V30 11 1 11 12
M  V30 12 2 12 13
M  V30 13 1 13 14
M  V30 14 2 14 15
M  V30 15 1 15 16
M  V30 16 2 16 17
M  V30 17 1 17 18
M  V30 18 2 18 19
M  V30 19 1 19 20
M  V30 20 1 13 21
M  V30 21 1 8 22
M  V30 22 1 22 23
M  V30 23 2 23 24
M  V30 24 1 23 5
M  V30 25 1 21 10
M  V30 26 1 19 14
M  V30 27 1 3 25
M  V30 28 1 4 26
M  V30 29 1 4 27
M  V30 30 1 9 28
M  V30 31 1 11 29
M  V30 32 1 12 30
M  V30 33 1 15 31
M  V30 34 1 16 32
M  V30 35 1 17 33
M  V30 36 1 18 34
M  V30 END BOND
M  V30 END CTAB
M  END
>  <Dataset>  (984) 
ChEMBL_Kinases

>  <Ligand_Instance>  (984) 
nan

>  <PDB_ID>  (984) 
nan

>  <Standardized_SMILES>  (984) 
O=C(O)CN1C(=O)/C(=C/c2ccc(-c3ccccc3Cl)o2)SC1=S

>  <Name>  (984) 
nan

>  <Pocket>  (984) 
nan

>  <ATP_Site>  (984) 
nan

>  <Peripheral>  (984) 
nan

>  <Num_H_Atoms_ProtBoundConf>  (984) 
nan

>  <Num_Resolved_Atoms>  (984) 
nan

>  <Num_Not_Resolved_Atoms>  (984) 
nan

$$$$
CHEMBL2348735
     RDKit          3D

  0  0  0  0  0  0  0  0  0  0999 V3000
M  V30 BEGIN CTAB
M  V30 COUNTS 23 24 0 0 0
M  V30 BEGIN ATOM
M  V30 1 N 1.715115 1.458341 4.227152 0
M  V30 2 C 1.749627 1.380416 2.801337 0
M  V30 3 C 0.834150 0.578299 2.152786 0
M  V30 4 C 0.860635 0.497317 0.774565 0
M  V30 5 C -0.145168 -0.375831 0.170713 0
M  V30 6 C 0.337171 -1.210202 -0.827478 0
M  V30 7 C -0.487129 -2.087163 -1.488203 0
M  V30 8 C -1.810276 -2.093137 -1.108289 0
M  V30 9 C -2.350966 -1.279650 -0.114535 0
M  V30 10 C -1.489257 -0.414915 0.522710 0
M  V30 11 C 1.791338 1.208954 0.041860 0
M  V30 12 O 1.768933 1.097518 -1.204951 0
M  V30 13 N 2.666974 1.982390 0.745692 0
M  V30 14 N 2.627828 2.048568 2.065176 0
M  V30 15 H 1.281338 0.678607 4.762351 0
M  V30 16 H 2.106054 2.263330 4.755011 0
M  V30 17 H 0.121054 0.036247 2.757006 0
M  V30 18 H 1.387579 -1.215620 -1.139521 0
M  V30 19 H -0.129951 -2.747360 -2.270900 0
M  V30 20 H -2.475799 -2.776521 -1.616425 0
M  V30 21 H -3.398874 -1.318107 0.151688 0
M  V30 22 H -1.805361 0.257442 1.305897 0
M  V30 23 H 3.359629 2.507918 0.145471 0
M  V30 END ATOM
M  V30 BEGIN BOND
M  V30 1 1 1 2
M  V30 2 1 2 3
M  V30 3 2 3 4
M  V30 4 1 4 5
M  V30 5 2 5 6
M  V30 6 1 6 7
M  V30 7 2 7 8
M  V30 8 1 8 9
M  V30 9 2 9 10
M  V30 10 1 4 11
M  V30 11 2 11 12
M  V30 12 1 11 13
M  V30 13 1 13 14
M  V30 14 2 14 2
M  V30 15 1 10 5
M  V30 16 1 1 15
M  V30 17 1 1 16
M  V30 18 1 3 17
M  V30 19 1 6 18
M  V30 20 1 7 19
M  V30 21 1 8 20
M  V30 22 1 9 21
M  V30 23 1 10 22
M  V30 24 1 13 23
M  V30 END BOND
M  V30 END CTAB
M  END
>  <Dataset>  (985) 
ChEMBL_Kinases

>  <Ligand_Instance>  (985) 
nan

>  <PDB_ID>  (985) 
nan

>  <Standardized_SMILES>  (985) 
Nc1cc(-c2ccccc2)c(=O)[nH]n1

>  <Name>  (985) 
nan

>  <Pocket>  (985) 
nan

>  <ATP_Site>  (985) 
nan

>  <Peripheral>  (985) 
nan

>  <Num_H_Atoms_ProtBoundConf>  (985) 
nan

>  <Num_Resolved_Atoms>  (985) 
nan

>  <Num_Not_Resolved_Atoms>  (985) 
nan

$$$$
CHEMBL2348734
     RDKit          3D

  0  0  0  0  0  0  0  0  0  0999 V3000
M  V30 BEGIN CTAB
M  V30 COUNTS 28 29 0 0 0
M  V30 BEGIN ATOM
M  V30 1 C 0.514460 -4.889696 3.182514 0
M  V30 2 C 0.834163 -3.515808 2.712247 0
M  V30 3 O 1.618986 -3.334261 1.752814 0
M  V30 4 N 0.299926 -2.304356 3.283767 0
M  V30 5 C 0.851186 -1.192095 2.549683 0
M  V30 6 C 0.210433 -0.689536 1.432204 0
M  V30 7 C 0.741878 0.384054 0.723078 0
M  V30 8 C -0.036644 0.814615 -0.437031 0
M  V30 9 C 0.626760 1.082351 -1.638234 0
M  V30 10 C -0.063826 1.491173 -2.760117 0
M  V30 11 C -1.418437 1.620316 -2.639327 0
M  V30 12 C -2.131246 1.373166 -1.488501 0
M  V30 13 C -1.424404 0.959204 -0.355669 0
M  V30 14 C 1.940570 0.936774 1.174927 0
M  V30 15 O 2.371954 1.896501 0.502418 0
M  V30 16 N 2.527363 0.413859 2.267101 0
M  V30 17 N 2.018986 -0.609739 2.941723 0
M  V30 18 H 0.309625 -5.534969 2.279541 0
M  V30 19 H 1.409035 -5.302809 3.693839 0
M  V30 20 H -0.395102 -4.934798 3.781871 0
M  V30 21 H -0.359437 -2.417251 4.087410 0
M  V30 22 H -0.712279 -1.175796 1.151118 0
M  V30 23 H 1.703858 0.956135 -1.653090 0
M  V30 24 H 0.475307 1.689426 -3.669614 0
M  V30 25 H -1.982396 1.945715 -3.526273 0
M  V30 26 H -3.205759 1.477725 -1.400018 0
M  V30 27 H -1.948375 0.753338 0.573769 0
M  V30 28 H 3.429020 0.853775 2.580461 0
M  V30 END ATOM
M  V30 BEGIN BOND
M  V30 1 1 1 2
M  V30 2 2 2 3
M  V30 3 1 2 4
M  V30 4 1 4 5
M  V30 5 1 5 6
M  V30 6 2 6 7
M  V30 7 1 7 8
M  V30 8 2 8 9
M  V30 9 1 9 10
M  V30 10 2 10 11
M  V30 11 1 11 12
M  V30 12 2 12 13
M  V30 13 1 7 14
M  V30 14 2 14 15
M  V30 15 1 14 16
M  V30 16 1 16 17
M  V30 17 2 17 5
M  V30 18 1 13 8
M  V30 19 1 1 18
M  V30 20 1 1 19
M  V30 21 1 1 20
M  V30 22 1 4 21
M  V30 23 1 6 22
M  V30 24 1 9 23
M  V30 25 1 10 24
M  V30 26 1 11 25
M  V30 27 1 12 26
M  V30 28 1 13 27
M  V30 29 1 16 28
M  V30 END BOND
M  V30 END CTAB
M  END
>  <Dataset>  (986) 
ChEMBL_Kinases

>  <Ligand_Instance>  (986) 
nan

>  <PDB_ID>  (986) 
nan

>  <Standardized_SMILES>  (986) 
CC(=O)Nc1cc(-c2ccccc2)c(=O)[nH]n1

>  <Name>  (986) 
nan

>  <Pocket>  (986) 
nan

>  <ATP_Site>  (986) 
nan

>  <Peripheral>  (986) 
nan

>  <Num_H_Atoms_ProtBoundConf>  (986) 
nan

>  <Num_Resolved_Atoms>  (986) 
nan

>  <Num_Not_Resolved_Atoms>  (986) 
nan

$$$$
CHEMBL2348724
     RDKit          3D

  0  0  0  0  0  0  0  0  0  0999 V3000
M  V30 BEGIN CTAB
M  V30 COUNTS 19 20 0 0 0
M  V30 BEGIN ATOM
M  V30 1 N -1.735714 0.370924 2.046958 0
M  V30 2 C -0.366188 -0.080343 2.031943 0
M  V30 3 N 0.200680 -0.588937 3.160225 0
M  V30 4 N 1.459077 -1.017069 3.193973 0
M  V30 5 C 2.245799 -0.962914 2.080567 0
M  V30 6 O 3.441594 -1.376120 2.135121 0
M  V30 7 C 1.728578 -0.456482 0.901686 0
M  V30 8 C 2.493689 -0.385342 -0.246197 0
M  V30 9 C 1.988822 0.123662 -1.448544 0
M  V30 10 C 0.660283 0.557641 -1.420654 0
M  V30 11 C -0.108495 0.485497 -0.264932 0
M  V30 12 C 0.414737 -0.017496 0.894690 0
M  V30 13 H -2.032994 1.369859 2.052579 0
M  V30 14 H -1.546921 1.417497 2.047812 0
M  V30 15 H 1.804507 -1.390230 4.104469 0
M  V30 16 H 3.536933 -0.736758 -0.230665 0
M  V30 17 H 2.571115 0.188256 -2.358899 0
M  V30 18 H 0.184910 0.962848 -2.291678 0
M  V30 19 H -1.141914 0.827132 -0.257524 0
M  V30 END ATOM
M  V30 BEGIN BOND
M  V30 1 1 1 2
M  V30 2 2 2 3
M  V30 3 1 3 4
M  V30 4 1 4 5
M  V30 5 2 5 6
M  V30 6 1 5 7
M  V30 7 2 7 8
M  V30 8 1 8 9
M  V30 9 2 9 10
M  V30 10 1 10 11
M  V30 11 2 11 12
M  V30 12 1 12 2
M  V30 13 1 12 7
M  V30 14 1 1 13
M  V30 15 1 1 14
M  V30 16 1 4 15
M  V30 17 1 8 16
M  V30 18 1 9 17
M  V30 19 1 10 18
M  V30 20 1 11 19
M  V30 END BOND
M  V30 END CTAB
M  END
>  <Dataset>  (987) 
ChEMBL_Kinases

>  <Ligand_Instance>  (987) 
nan

>  <PDB_ID>  (987) 
nan

>  <Standardized_SMILES>  (987) 
Nc1n[nH]c(=O)c2ccccc12

>  <Name>  (987) 
nan

>  <Pocket>  (987) 
nan

>  <ATP_Site>  (987) 
nan

>  <Peripheral>  (987) 
nan

>  <Num_H_Atoms_ProtBoundConf>  (987) 
nan

>  <Num_Resolved_Atoms>  (987) 
nan

>  <Num_Not_Resolved_Atoms>  (987) 
nan

$$$$
CHEMBL234871
     RDKit          3D

  0  0  0  0  0  0  0  0  0  0999 V3000
M  V30 BEGIN CTAB
M  V30 COUNTS 67 72 0 0 0
M  V30 BEGIN ATOM
M  V30 1 C 6.243369 0.065080 -0.669400 0
M  V30 2 O 5.008915 -0.187651 -1.305425 0
M  V30 3 C 3.836243 -0.504685 -0.674098 0
M  V30 4 C 3.676567 -0.627504 0.691484 0
M  V30 5 C 2.463366 -0.950609 1.264603 0
M  V30 6 C 1.378651 -1.156142 0.435869 0
M  V30 7 C 1.533281 -1.034376 -0.931010 0
M  V30 8 C 2.761397 -0.706942 -1.515709 0
M  V30 9 C 2.810689 -0.599795 -3.019047 0
M  V30 10 N 2.836127 0.772169 -3.380458 0
M  V30 11 C 2.875812 1.084116 -4.765279 0 CFG=1
M  V30 12 C 1.641172 0.566875 -5.438697 0
M  V30 13 C 0.776889 1.689423 -5.982060 0
M  V30 14 C 0.571498 2.722722 -4.893305 0 CFG=2
M  V30 15 O -0.385803 3.617684 -5.312592 0
M  V30 16 C 1.894446 3.380662 -4.535013 0
M  V30 17 C 3.065700 2.561254 -5.024492 0
M  V30 18 C 0.160780 -1.493855 1.223032 0
M  V30 19 C 0.637373 -1.467474 2.651516 0
M  V30 20 C 0.203199 -1.648436 3.947171 0
M  V30 21 C -1.156307 -1.992581 4.347556 0
M  V30 22 C -1.867870 -2.997689 3.684453 0
M  V30 23 C -3.148270 -3.274027 4.110371 0
M  V30 24 C -3.772077 -2.620292 5.150875 0
M  V30 25 C -5.139559 -2.975554 5.543486 0
M  V30 26 C -5.998854 -3.420335 4.533423 0
M  V30 27 C -7.288484 -3.767356 4.833612 0
M  V30 28 C -7.766481 -3.684108 6.145383 0
M  V30 29 O -9.058098 -4.014164 6.545631 0
M  V30 30 C -6.892736 -3.239682 7.127457 0
M  V30 31 C -5.588626 -2.883490 6.854313 0
M  V30 32 C -3.083064 -1.619677 5.821859 0
M  V30 33 C -1.797732 -1.349757 5.386557 0
M  V30 34 N 1.308066 -1.433172 4.706717 0
M  V30 35 N 2.351617 -1.139071 3.922783 0
M  V30 36 C 1.980268 -1.148541 2.627898 0
M  V30 37 H 6.690045 -0.828251 -0.190998 0
M  V30 38 H 6.149078 0.929137 0.016394 0
M  V30 39 H 6.971749 0.363076 -1.478413 0
M  V30 40 H 4.530946 -0.464492 1.324540 0
M  V30 41 H 0.667765 -1.199052 -1.581064 0
M  V30 42 H 1.979352 -1.199324 -3.433255 0
M  V30 43 H 3.743243 -1.083129 -3.399594 0
M  V30 44 H 3.518091 1.268034 -2.800070 0
M  V30 45 H 3.742276 0.546336 -5.230664 0
M  V30 46 H 1.867599 -0.133990 -6.269061 0
M  V30 47 H 1.017363 0.046772 -4.687117 0
M  V30 48 H 1.213444 2.107646 -6.887684 0
M  V30 49 H -0.213169 1.250197 -6.204945 0
M  V30 50 H 0.218637 2.217766 -3.973758 0
M  V30 51 H -1.192136 3.634315 -4.726641 0
M  V30 52 H 1.900455 4.335300 -5.127474 0
M  V30 53 H 1.962990 3.683019 -3.480183 0
M  V30 54 H 3.960410 2.963180 -4.509968 0
M  V30 55 H 3.202794 2.779923 -6.100026 0
M  V30 56 H -0.268380 -2.465022 0.968404 0
M  V30 57 H -0.599158 -0.686454 1.111693 0
M  V30 58 H -1.383310 -3.521925 2.858875 0
M  V30 59 H -3.651401 -4.066803 3.554615 0
M  V30 60 H -5.698641 -3.510239 3.497976 0
M  V30 61 H -7.992660 -4.118055 4.083555 0
M  V30 62 H -9.812212 -3.625081 5.975414 0
M  V30 63 H -7.190656 -3.146758 8.176659 0
M  V30 64 H -4.901124 -2.532901 7.633016 0
M  V30 65 H -3.528968 -1.075307 6.646596 0
M  V30 66 H -1.280965 -0.557990 5.933853 0
M  V30 67 H 3.315843 -0.933162 4.294632 0
M  V30 END ATOM
M  V30 BEGIN BOND
M  V30 1 1 1 2
M  V30 2 1 2 3
M  V30 3 2 3 4
M  V30 4 1 4 5
M  V30 5 2 5 6
M  V30 6 1 6 7
M  V30 7 2 7 8
M  V30 8 1 8 9
M  V30 9 1 9 10
M  V30 10 1 10 11
M  V30 11 1 11 12
M  V30 12 1 12 13
M  V30 13 1 13 14
M  V30 14 1 14 15
M  V30 15 1 14 16
M  V30 16 1 16 17
M  V30 17 1 6 18
M  V30 18 1 18 19
M  V30 19 1 19 20
M  V30 20 1 20 21
M  V30 21 2 21 22
M  V30 22 1 22 23
M  V30 23 2 23 24
M  V30 24 1 24 25
M  V30 25 2 25 26
M  V30 26 1 26 27
M  V30 27 2 27 28
M  V30 28 1 28 29
M  V30 29 1 28 30
M  V30 30 2 30 31
M  V30 31 1 24 32
M  V30 32 2 32 33
M  V30 33 2 20 34
M  V30 34 1 34 35
M  V30 35 1 35 36
M  V30 36 1 8 3
M  V30 37 1 17 11
M  V30 38 2 36 19
M  V30 39 1 36 5
M  V30 40 1 33 21
M  V30 41 1 31 25
M  V30 42 1 1 37
M  V30 43 1 1 38
M  V30 44 1 1 39
M  V30 45 1 4 40
M  V30 46 1 7 41
M  V30 47 1 9 42
M  V30 48 1 9 43
M  V30 49 1 10 44
M  V30 50 1 11 45 CFG=3
M  V30 51 1 12 46
M  V30 52 1 12 47
M  V30 53 1 13 48
M  V30 54 1 13 49
M  V30 55 1 14 50 CFG=1
M  V30 56 1 15 51
M  V30 57 1 16 52
M  V30 58 1 16 53
M  V30 59 1 17 54
M  V30 60 1 17 55
M  V30 61 1 18 56
M  V30 62 1 18 57
M  V30 63 1 22 58
M  V30 64 1 23 59
M  V30 65 1 26 60
M  V30 66 1 27 61
M  V30 67 1 29 62
M  V30 68 1 30 63
M  V30 69 1 31 64
M  V30 70 1 32 65
M  V30 71 1 33 66
M  V30 72 1 35 67
M  V30 END BOND
M  V30 END CTAB
M  END
>  <Dataset>  (988) 
ChEMBL_Kinases

>  <Ligand_Instance>  (988) 
nan

>  <PDB_ID>  (988) 
nan

>  <Standardized_SMILES>  (988) 
COc1cc2c(cc1CN[C@H]1CC[C@H](O)CC1)Cc1c(-c3ccc(-c4ccc(O)cc4)cc3)n[nH]c1-2

>  <Name>  (988) 
nan

>  <Pocket>  (988) 
nan

>  <ATP_Site>  (988) 
nan

>  <Peripheral>  (988) 
nan

>  <Num_H_Atoms_ProtBoundConf>  (988) 
nan

>  <Num_Resolved_Atoms>  (988) 
nan

>  <Num_Not_Resolved_Atoms>  (988) 
nan

$$$$
CHEMBL234869
     RDKit          3D

  0  0  0  0  0  0  0  0  0  0999 V3000
M  V30 BEGIN CTAB
M  V30 COUNTS 67 72 0 0 0
M  V30 BEGIN ATOM
M  V30 1 C 4.938955 2.325482 2.825812 0
M  V30 2 O 4.050047 2.405777 1.736965 0
M  V30 3 C 3.063159 1.470407 1.500957 0
M  V30 4 C 2.976446 0.422120 2.396269 0
M  V30 5 C 1.989486 -0.506247 2.153769 0
M  V30 6 C 1.129155 -0.407534 1.081678 0
M  V30 7 C 1.291847 0.663084 0.251732 0
M  V30 8 C 2.251859 1.638044 0.419304 0
M  V30 9 C 2.281533 2.706149 -0.555565 0
M  V30 10 O 1.448281 2.698034 -1.497596 0
M  V30 11 N 3.117371 3.833310 -0.667427 0
M  V30 12 C 3.266948 4.954616 -1.549242 0
M  V30 13 C 2.066115 5.858903 -1.639343 0
M  V30 14 N 0.916782 5.193410 -2.169736 0
M  V30 15 C -0.287413 6.027672 -2.141502 0
M  V30 16 C -1.268305 5.136723 -2.898784 0
M  V30 17 C -0.387609 4.641287 -4.035272 0
M  V30 18 C 1.041046 5.015579 -3.626456 0
M  V30 19 C 0.178716 -1.565856 1.096830 0
M  V30 20 C 0.606821 -2.300522 2.286959 0
M  V30 21 C 0.260564 -3.444079 2.982096 0
M  V30 22 C -0.793958 -4.422529 2.713487 0
M  V30 23 C -0.871405 -4.802078 1.372815 0
M  V30 24 C -1.850658 -5.729396 1.051593 0
M  V30 25 C -2.739109 -6.287884 1.975209 0
M  V30 26 C -3.740418 -7.258667 1.559283 0
M  V30 27 C -3.475079 -8.135558 0.503339 0
M  V30 28 C -4.486450 -9.020263 0.181640 0
M  V30 29 C -5.688055 -9.088184 0.810274 0
M  V30 30 O -6.600464 -10.033415 0.368830 0
M  V30 31 C -5.970458 -8.226318 1.860621 0
M  V30 32 C -4.956787 -7.326556 2.196488 0
M  V30 33 C -2.624185 -5.882642 3.285633 0
M  V30 34 C -1.661313 -4.961450 3.641543 0
M  V30 35 N 1.130030 -3.506568 4.030620 0
M  V30 36 N 1.960761 -2.475476 3.993878 0
M  V30 37 C 1.671549 -1.701379 2.928011 0
M  V30 38 H 5.443952 1.358947 2.939253 0
M  V30 39 H 4.408847 2.551280 3.793830 0
M  V30 40 H 5.660685 3.185491 2.720837 0
M  V30 41 H 3.675361 0.363998 3.245322 0
M  V30 42 H 0.591187 0.695759 -0.575112 0
M  V30 43 H 3.843806 3.881816 0.109711 0
M  V30 44 H 4.117339 5.595945 -1.262227 0
M  V30 45 H 3.492035 4.602520 -2.593880 0
M  V30 46 H 1.829516 6.319863 -0.635942 0
M  V30 47 H 2.294602 6.714462 -2.304771 0
M  V30 48 H -0.124085 6.994266 -2.624952 0
M  V30 49 H -0.545439 6.140548 -1.083790 0
M  V30 50 H -1.567449 4.316467 -2.224592 0
M  V30 51 H -2.127221 5.728150 -3.254583 0
M  V30 52 H -0.393370 3.529807 -4.098243 0
M  V30 53 H -0.668025 5.125736 -4.975913 0
M  V30 54 H 1.751112 4.188230 -3.785362 0
M  V30 55 H 1.313205 5.936568 -4.143514 0
M  V30 56 H -0.876543 -1.267167 1.066488 0
M  V30 57 H 0.400170 -2.117858 0.148171 0
M  V30 58 H -0.224734 -4.420443 0.588891 0
M  V30 59 H -1.948555 -6.052997 0.024663 0
M  V30 60 H -2.541473 -8.127283 -0.030761 0
M  V30 61 H -4.258628 -9.689565 -0.639201 0
M  V30 62 H -7.598605 -9.897921 0.479875 0
M  V30 63 H -6.916764 -8.265221 2.369760 0
M  V30 64 H -5.184207 -6.657538 3.016336 0
M  V30 65 H -3.284341 -6.274434 4.067120 0
M  V30 66 H -1.515361 -4.595125 4.669647 0
M  V30 67 H 2.727940 -2.272513 4.673002 0
M  V30 END ATOM
M  V30 BEGIN BOND
M  V30 1 1 1 2
M  V30 2 1 2 3
M  V30 3 2 3 4
M  V30 4 1 4 5
M  V30 5 2 5 6
M  V30 6 1 6 7
M  V30 7 2 7 8
M  V30 8 1 8 9
M  V30 9 2 9 10
M  V30 10 1 9 11
M  V30 11 1 11 12
M  V30 12 1 12 13
M  V30 13 1 13 14
M  V30 14 1 14 15
M  V30 15 1 15 16
M  V30 16 1 16 17
M  V30 17 1 17 18
M  V30 18 1 6 19
M  V30 19 1 19 20
M  V30 20 1 20 21
M  V30 21 1 21 22
M  V30 22 2 22 23
M  V30 23 1 23 24
M  V30 24 2 24 25
M  V30 25 1 25 26
M  V30 26 2 26 27
M  V30 27 1 27 28
M  V30 28 2 28 29
M  V30 29 1 29 30
M  V30 30 1 29 31
M  V30 31 2 31 32
M  V30 32 1 25 33
M  V30 33 2 33 34
M  V30 34 2 21 35
M  V30 35 1 35 36
M  V30 36 1 36 37
M  V30 37 1 8 3
M  V30 38 1 18 14
M  V30 39 2 37 20
M  V30 40 1 37 5
M  V30 41 1 34 22
M  V30 42 1 32 26
M  V30 43 1 1 38
M  V30 44 1 1 39
M  V30 45 1 1 40
M  V30 46 1 4 41
M  V30 47 1 7 42
M  V30 48 1 11 43
M  V30 49 1 12 44
M  V30 50 1 12 45
M  V30 51 1 13 46
M  V30 52 1 13 47
M  V30 53 1 15 48
M  V30 54 1 15 49
M  V30 55 1 16 50
M  V30 56 1 16 51
M  V30 57 1 17 52
M  V30 58 1 17 53
M  V30 59 1 18 54
M  V30 60 1 18 55
M  V30 61 1 19 56
M  V30 62 1 19 57
M  V30 63 1 23 58
M  V30 64 1 24 59
M  V30 65 1 27 60
M  V30 66 1 28 61
M  V30 67 1 30 62
M  V30 68 1 31 63
M  V30 69 1 32 64
M  V30 70 1 33 65
M  V30 71 1 34 66
M  V30 72 1 36 67
M  V30 END BOND
M  V30 END CTAB
M  END
>  <Dataset>  (989) 
ChEMBL_Kinases

>  <Ligand_Instance>  (989) 
nan

>  <PDB_ID>  (989) 
nan

>  <Standardized_SMILES>  (989) 
COc1cc2c(cc1C(=O)NCCN1CCCC1)Cc1c(-c3ccc(-c4ccc(O)cc4)cc3)n[nH]c1-2

>  <Name>  (989) 
nan

>  <Pocket>  (989) 
nan

>  <ATP_Site>  (989) 
nan

>  <Peripheral>  (989) 
nan

>  <Num_H_Atoms_ProtBoundConf>  (989) 
nan

>  <Num_Resolved_Atoms>  (989) 
nan

>  <Num_Not_Resolved_Atoms>  (989) 
nan

$$$$
CHEMBL234868
     RDKit          3D

  0  0  0  0  0  0  0  0  0  0999 V3000
M  V30 BEGIN CTAB
M  V30 COUNTS 63 68 0 0 0
M  V30 BEGIN ATOM
M  V30 1 C 3.182532 4.529775 -1.231996 0
M  V30 2 O 3.424509 3.603106 -0.181486 0
M  V30 3 C 2.692630 2.426245 -0.156881 0
M  V30 4 C 1.733073 2.132554 -1.129984 0
M  V30 5 C 1.062731 0.932520 -1.008935 0
M  V30 6 C 1.285510 0.021318 0.005474 0
M  V30 7 C 2.238394 0.328793 0.959061 0
M  V30 8 C 2.936857 1.524107 0.877184 0
M  V30 9 C 3.926510 1.776284 1.921874 0
M  V30 10 O 5.147343 1.580361 2.163615 0
M  V30 11 N 3.318967 2.469867 3.032374 0
M  V30 12 C 4.238182 2.758379 4.115809 0
M  V30 13 C 3.619616 3.895161 4.929948 0
M  V30 14 C 2.292396 3.488391 5.519972 0
M  V30 15 O 1.502599 4.636223 5.603979 0
M  V30 16 C 1.541859 2.538867 4.605840 0
M  V30 17 C 1.930041 2.902710 3.189110 0
M  V30 18 C 0.381245 -1.168543 -0.176190 0
M  V30 19 C -0.373943 -0.819894 -1.408813 0
M  V30 20 C -1.353181 -1.301154 -2.256103 0
M  V30 21 C -2.121058 -2.545136 -2.223267 0
M  V30 22 C -2.366427 -3.362100 -3.309996 0
M  V30 23 C -3.116077 -4.505649 -3.097062 0
M  V30 24 C -3.615129 -4.845885 -1.855382 0
M  V30 25 C -4.401200 -6.063006 -1.677874 0
M  V30 26 C -4.204964 -7.215985 -2.418359 0
M  V30 27 C -4.986565 -8.333985 -2.198338 0
M  V30 28 C -5.945034 -8.211313 -1.214583 0
M  V30 29 O -6.749915 -9.339838 -0.977238 0
M  V30 30 C -6.201649 -7.101431 -0.436412 0
M  V30 31 C -5.388233 -6.017214 -0.703293 0
M  V30 32 C -3.356419 -4.011632 -0.780149 0
M  V30 33 C -2.608733 -2.861052 -0.966348 0
M  V30 34 N -1.525060 -0.386061 -3.209850 0
M  V30 35 N -0.720286 0.649883 -3.029329 0
M  V30 36 C 0.025822 0.425562 -1.907743 0
M  V30 37 H 2.128027 4.810223 -1.346677 0
M  V30 38 H 3.490584 4.075123 -2.208692 0
M  V30 39 H 3.768780 5.455639 -1.090772 0
M  V30 40 H 1.549447 2.839608 -1.930961 0
M  V30 41 H 2.409194 -0.395316 1.756987 0
M  V30 42 H 4.463929 1.890020 4.734948 0
M  V30 43 H 5.176514 3.167412 3.685858 0
M  V30 44 H 4.304926 4.127334 5.755115 0
M  V30 45 H 3.539386 4.798330 4.293376 0
M  V30 46 H 2.473824 3.062172 6.519616 0
M  V30 47 H 1.363601 4.841901 6.563983 0
M  V30 48 H 0.446815 2.584713 4.774586 0
M  V30 49 H 1.937311 1.522021 4.784685 0
M  V30 50 H 1.945947 4.011251 3.094062 0
M  V30 51 H 1.251852 2.493516 2.442628 0
M  V30 52 H 0.989159 -2.061830 -0.393455 0
M  V30 53 H -0.267203 -1.294210 0.713716 0
M  V30 54 H -1.954314 -3.052337 -4.259828 0
M  V30 55 H -3.302230 -5.138174 -3.955601 0
M  V30 56 H -3.433260 -7.230376 -3.169757 0
M  V30 57 H -4.871209 -9.256153 -2.750356 0
M  V30 58 H -7.177158 -9.516007 -0.075158 0
M  V30 59 H -6.985490 -7.127924 0.307629 0
M  V30 60 H -5.555229 -5.111295 -0.109217 0
M  V30 61 H -3.731112 -4.244966 0.210410 0
M  V30 62 H -2.438458 -2.242173 -0.077157 0
M  V30 63 H -0.626043 1.528704 -3.618304 0
M  V30 END ATOM
M  V30 BEGIN BOND
M  V30 1 1 1 2
M  V30 2 1 2 3
M  V30 3 2 3 4
M  V30 4 1 4 5
M  V30 5 2 5 6
M  V30 6 1 6 7
M  V30 7 2 7 8
M  V30 8 1 8 9
M  V30 9 2 9 10
M  V30 10 1 9 11
M  V30 11 1 11 12
M  V30 12 1 12 13
M  V30 13 1 13 14
M  V30 14 1 14 15
M  V30 15 1 14 16
M  V30 16 1 16 17
M  V30 17 1 6 18
M  V30 18 1 18 19
M  V30 19 1 19 20
M  V30 20 1 20 21
M  V30 21 2 21 22
M  V30 22 1 22 23
M  V30 23 2 23 24
M  V30 24 1 24 25
M  V30 25 2 25 26
M  V30 26 1 26 27
M  V30 27 2 27 28
M  V30 28 1 28 29
M  V30 29 1 28 30
M  V30 30 2 30 31
M  V30 31 1 24 32
M  V30 32 2 32 33
M  V30 33 2 20 34
M  V30 34 1 34 35
M  V30 35 1 35 36
M  V30 36 1 8 3
M  V30 37 1 17 11
M  V30 38 2 36 19
M  V30 39 1 36 5
M  V30 40 1 33 21
M  V30 41 1 31 25
M  V30 42 1 1 37
M  V30 43 1 1 38
M  V30 44 1 1 39
M  V30 45 1 4 40
M  V30 46 1 7 41
M  V30 47 1 12 42
M  V30 48 1 12 43
M  V30 49 1 13 44
M  V30 50 1 13 45
M  V30 51 1 14 46
M  V30 52 1 15 47
M  V30 53 1 16 48
M  V30 54 1 16 49
M  V30 55 1 17 50
M  V30 56 1 17 51
M  V30 57 1 18 52
M  V30 58 1 18 53
M  V30 59 1 22 54
M  V30 60 1 23 55
M  V30 61 1 26 56
M  V30 62 1 27 57
M  V30 63 1 29 58
M  V30 64 1 30 59
M  V30 65 1 31 60
M  V30 66 1 32 61
M  V30 67 1 33 62
M  V30 68 1 35 63
M  V30 END BOND
M  V30 END CTAB
M  END
>  <Dataset>  (990) 
ChEMBL_Kinases

>  <Ligand_Instance>  (990) 
nan

>  <PDB_ID>  (990) 
nan

>  <Standardized_SMILES>  (990) 
COc1cc2c(cc1C(=O)N1CCC(O)CC1)Cc1c(-c3ccc(-c4ccc(O)cc4)cc3)n[nH]c1-2

>  <Name>  (990) 
nan

>  <Pocket>  (990) 
nan

>  <ATP_Site>  (990) 
nan

>  <Peripheral>  (990) 
nan

>  <Num_H_Atoms_ProtBoundConf>  (990) 
nan

>  <Num_Resolved_Atoms>  (990) 
nan

>  <Num_Not_Resolved_Atoms>  (990) 
nan

$$$$
CHEMBL234811
     RDKit          3D

  0  0  0  0  0  0  0  0  0  0999 V3000
M  V30 BEGIN CTAB
M  V30 COUNTS 37 39 0 0 0
M  V30 BEGIN ATOM
M  V30 1 C -2.476127 -1.382921 1.393190 0
M  V30 2 C -1.238736 -1.769562 0.555096 0
M  V30 3 C -0.068461 -1.626897 1.360287 0
M  V30 4 C 0.968117 -0.861142 1.285682 0
M  V30 5 C 2.148632 -0.757950 2.128895 0
M  V30 6 O 2.446720 -1.431379 3.119237 0
M  V30 7 N 2.981627 0.283976 1.641556 0
M  V30 8 C 2.308125 0.812553 0.504473 0
M  V30 9 C 2.735106 1.843971 -0.286783 0
M  V30 10 C 1.949678 2.237195 -1.345022 0
M  V30 11 C 0.732676 1.591341 -1.606440 0
M  V30 12 S -0.154839 2.208401 -3.000680 0
M  V30 13 N 0.277486 1.275101 -4.382841 0
M  V30 14 O 0.191903 3.656748 -3.195954 0
M  V30 15 O -1.628487 2.018419 -2.717205 0
M  V30 16 C 0.369901 0.561656 -0.766135 0
M  V30 17 C 1.140412 0.160904 0.285502 0
M  V30 18 C -0.146075 -2.503972 2.555513 0
M  V30 19 C -0.039309 -2.254049 3.915110 0
M  V30 20 C -0.157110 -3.445865 4.588436 0
M  V30 21 C -0.341215 -4.472533 3.675888 0
M  V30 22 N -0.322732 -3.831789 2.495637 0
M  V30 23 H -2.621148 -0.303870 1.454295 0
M  V30 24 H -2.313954 -1.888131 2.382116 0
M  V30 25 H -3.352488 -1.914313 0.920499 0
M  V30 26 H -1.404312 -2.934848 0.509475 0
M  V30 27 H -1.362331 -1.515132 -0.451300 0
M  V30 28 H 3.912398 0.592555 2.052770 0
M  V30 29 H 3.662823 2.359090 -0.112030 0
M  V30 30 H 2.305843 3.053316 -1.957257 0
M  V30 31 H 1.117500 1.645508 -4.848040 0
M  V30 32 H -0.521976 1.152272 -5.019221 0
M  V30 33 H -0.571206 0.218559 -1.113817 0
M  V30 34 H 0.097199 -1.259598 4.324515 0
M  V30 35 H -0.114349 -3.575538 5.676710 0
M  V30 36 H -0.470738 -5.532778 3.831582 0
M  V30 37 H -0.442906 -4.365723 1.589235 0
M  V30 END ATOM
M  V30 BEGIN BOND
M  V30 1 1 1 2
M  V30 2 1 2 3
M  V30 3 2 3 4
M  V30 4 1 4 5
M  V30 5 2 5 6
M  V30 6 1 5 7
M  V30 7 1 7 8
M  V30 8 2 8 9
M  V30 9 1 9 10
M  V30 10 2 10 11
M  V30 11 1 11 12
M  V30 12 1 12 13
M  V30 13 2 12 14
M  V30 14 2 12 15
M  V30 15 1 11 16
M  V30 16 2 16 17
M  V30 17 1 3 18
M  V30 18 2 18 19
M  V30 19 1 19 20
M  V30 20 2 20 21
M  V30 21 1 21 22
M  V30 22 1 17 4
M  V30 23 1 22 18
M  V30 24 1 17 8
M  V30 25 1 1 23
M  V30 26 1 1 24
M  V30 27 1 1 25
M  V30 28 1 2 26
M  V30 29 1 2 27
M  V30 30 1 7 28
M  V30 31 1 9 29
M  V30 32 1 10 30
M  V30 33 1 13 31
M  V30 34 1 13 32
M  V30 35 1 16 33
M  V30 36 1 19 34
M  V30 37 1 20 35
M  V30 38 1 21 36
M  V30 39 1 22 37
M  V30 END BOND
M  V30 END CTAB
M  END
>  <Dataset>  (991) 
ChEMBL_Kinases

>  <Ligand_Instance>  (991) 
nan

>  <PDB_ID>  (991) 
nan

>  <Standardized_SMILES>  (991) 
CC/C(=C1/C(=O)Nc2ccc(S(N)(=O)=O)cc21)c1ccc[nH]1

>  <Name>  (991) 
nan

>  <Pocket>  (991) 
nan

>  <ATP_Site>  (991) 
nan

>  <Peripheral>  (991) 
nan

>  <Num_H_Atoms_ProtBoundConf>  (991) 
nan

>  <Num_Resolved_Atoms>  (991) 
nan

>  <Num_Not_Resolved_Atoms>  (991) 
nan

$$$$
CHEMBL2348152
     RDKit          3D

  0  0  0  0  0  0  0  0  0  0999 V3000
M  V30 BEGIN CTAB
M  V30 COUNTS 34 37 0 0 0
M  V30 BEGIN ATOM
M  V30 1 N -1.004515 -4.884326 3.957419 0
M  V30 2 C -0.025110 -4.081501 3.302949 0
M  V30 3 N 1.279468 -4.387086 3.548245 0
M  V30 4 C 2.199078 -3.640520 2.939611 0
M  V30 5 C 1.859484 -2.599345 2.094494 0
M  V30 6 C 0.523343 -2.285993 1.842959 0
M  V30 7 N 0.157378 -1.220029 0.977760 0
M  V30 8 C 0.821985 -0.055570 0.878636 0
M  V30 9 C 0.162998 0.713899 -0.059717 0
M  V30 10 C 0.497499 2.042376 -0.509601 0
M  V30 11 C 0.054290 3.239627 0.031242 0
M  V30 12 C 0.478419 4.421039 -0.529803 0
M  V30 13 C 1.329320 4.492097 -1.612428 0
M  V30 14 N 1.762111 3.309772 -2.140313 0
M  V30 15 C 1.347368 2.134447 -1.591308 0
M  V30 16 Cl 1.988285 0.706609 -2.379084 0
M  V30 17 C -0.920875 0.016110 -0.545266 0
M  V30 18 C -1.902135 0.306401 -1.481601 0
M  V30 19 N -2.830540 -0.637049 -1.711223 0
M  V30 20 C -2.826369 -1.833417 -1.063344 0
M  V30 21 Cl -4.040734 -3.061548 -1.366869 0
M  V30 22 C -1.870710 -2.148044 -0.134246 0
M  V30 23 C -0.893937 -1.200179 0.131444 0
M  V30 24 N -0.371246 -3.068799 2.480978 0
M  V30 25 H -1.532147 -5.379275 3.204057 0
M  V30 26 H -1.276165 -5.061161 4.950767 0
M  V30 27 H 3.284747 -3.767631 3.040410 0
M  V30 28 H 2.604551 -1.974630 1.585260 0
M  V30 29 H 1.719022 0.251806 1.426033 0
M  V30 30 H -0.611683 3.156375 0.879094 0
M  V30 31 H 0.103462 5.326224 -0.070232 0
M  V30 32 H 1.647331 5.442514 -2.034296 0
M  V30 33 H -1.882887 1.253129 -1.976357 0
M  V30 34 H -1.832694 -3.069808 0.392573 0
M  V30 END ATOM
M  V30 BEGIN BOND
M  V30 1 1 1 2
M  V30 2 2 2 3
M  V30 3 1 3 4
M  V30 4 2 4 5
M  V30 5 1 5 6
M  V30 6 1 6 7
M  V30 7 1 7 8
M  V30 8 2 8 9
M  V30 9 1 9 10
M  V30 10 2 10 11
M  V30 11 1 11 12
M  V30 12 2 12 13
M  V30 13 1 13 14
M  V30 14 2 14 15
M  V30 15 1 15 16
M  V30 16 1 9 17
M  V30 17 2 17 18
M  V30 18 1 18 19
M  V30 19 2 19 20
M  V30 20 1 20 21
M  V30 21 1 20 22
M  V30 22 2 22 23
M  V30 23 2 6 24
M  V30 24 1 24 2
M  V30 25 1 23 7
M  V30 26 1 15 10
M  V30 27 1 23 17
M  V30 28 1 1 25
M  V30 29 1 1 26
M  V30 30 1 4 27
M  V30 31 1 5 28
M  V30 32 1 8 29
M  V30 33 1 11 30
M  V30 34 1 12 31
M  V30 35 1 13 32
M  V30 36 1 18 33
M  V30 37 1 22 34
M  V30 END BOND
M  V30 END CTAB
M  END
>  <Dataset>  (992) 
ChEMBL_Kinases

>  <Ligand_Instance>  (992) 
nan

>  <PDB_ID>  (992) 
nan

>  <Standardized_SMILES>  (992) 
Nc1nccc(-n2cc(-c3cccnc3Cl)c3cnc(Cl)cc32)n1

>  <Name>  (992) 
nan

>  <Pocket>  (992) 
nan

>  <ATP_Site>  (992) 
nan

>  <Peripheral>  (992) 
nan

>  <Num_H_Atoms_ProtBoundConf>  (992) 
nan

>  <Num_Resolved_Atoms>  (992) 
nan

>  <Num_Not_Resolved_Atoms>  (992) 
nan

$$$$
CHEMBL2348153
     RDKit          3D

  0  0  0  0  0  0  0  0  0  0999 V3000
M  V30 BEGIN CTAB
M  V30 COUNTS 26 28 0 0 0
M  V30 BEGIN ATOM
M  V30 1 N -0.236220 -5.548954 0.298139 0
M  V30 2 C 0.099504 -4.553970 0.792916 0
M  V30 3 C 0.507522 -3.333080 1.424157 0
M  V30 4 C 1.105099 -3.448400 2.664658 0
M  V30 5 C 1.545271 -2.335228 3.379483 0
M  V30 6 C 1.348323 -1.111762 2.773811 0
M  V30 7 C 1.642464 0.160743 3.163689 0
M  V30 8 C 1.210947 1.008037 2.141030 0
M  V30 9 N 0.665014 0.258611 1.149662 0
M  V30 10 C 0.152822 0.912128 -0.005678 0
M  V30 11 C -1.102497 0.615492 -0.495974 0
M  V30 12 C -1.537569 1.279317 -1.611367 0
M  V30 13 N -2.804727 1.077855 -2.227114 0
M  V30 14 N -0.745453 2.192932 -2.197874 0
M  V30 15 C 0.479779 2.489491 -1.728006 0
M  V30 16 N 0.901538 1.836690 -0.635290 0
M  V30 17 C 0.748374 -1.027815 1.533663 0
M  V30 18 N 0.323463 -2.110583 0.844995 0
M  V30 19 H 1.271171 -4.400478 3.162124 0
M  V30 20 H 2.010523 -2.369172 4.335993 0
M  V30 21 H 2.122552 0.474696 4.092738 0
M  V30 22 H 1.335983 2.091207 2.216718 0
M  V30 23 H -1.740150 -0.108206 -0.038351 0
M  V30 24 H -2.928118 1.110166 -3.280249 0
M  V30 25 H -3.761682 0.882794 -1.871411 0
M  V30 26 H 1.162025 3.220560 -2.164316 0
M  V30 END ATOM
M  V30 BEGIN BOND
M  V30 1 3 1 2
M  V30 2 1 2 3
M  V30 3 2 3 4
M  V30 4 1 4 5
M  V30 5 2 5 6
M  V30 6 1 6 7
M  V30 7 2 7 8
M  V30 8 1 8 9
M  V30 9 1 9 10
M  V30 10 2 10 11
M  V30 11 1 11 12
M  V30 12 1 12 13
M  V30 13 2 12 14
M  V30 14 1 14 15
M  V30 15 2 15 16
M  V30 16 1 9 17
M  V30 17 2 17 18
M  V30 18 1 18 3
M  V30 19 1 17 6
M  V30 20 1 16 10
M  V30 21 1 4 19
M  V30 22 1 5 20
M  V30 23 1 7 21
M  V30 24 1 8 22
M  V30 25 1 11 23
M  V30 26 1 13 24
M  V30 27 1 13 25
M  V30 28 1 15 26
M  V30 END BOND
M  V30 END CTAB
M  END
>  <Dataset>  (993) 
ChEMBL_Kinases

>  <Ligand_Instance>  (993) 
nan

>  <PDB_ID>  (993) 
nan

>  <Standardized_SMILES>  (993) 
N#Cc1ccc2ccn(-c3cc(N)ncn3)c2n1

>  <Name>  (993) 
nan

>  <Pocket>  (993) 
nan

>  <ATP_Site>  (993) 
nan

>  <Peripheral>  (993) 
nan

>  <Num_H_Atoms_ProtBoundConf>  (993) 
nan

>  <Num_Resolved_Atoms>  (993) 
nan

>  <Num_Not_Resolved_Atoms>  (993) 
nan

$$$$
CHEMBL2348157
     RDKit          3D

  0  0  0  0  0  0  0  0  0  0999 V3000
M  V30 BEGIN CTAB
M  V30 COUNTS 35 38 0 0 0
M  V30 BEGIN ATOM
M  V30 1 N 0.650968 -5.142126 3.898700 0
M  V30 2 C 1.164252 -4.412890 2.780895 0
M  V30 3 N 2.251094 -4.839865 2.115371 0
M  V30 4 C 2.745307 -4.158072 1.056660 0
M  V30 5 C 2.060835 -3.014284 0.720628 0
M  V30 6 C 0.930245 -2.526201 1.375029 0
M  V30 7 N 0.286111 -1.329157 0.954641 0
M  V30 8 C 0.860280 -0.340741 0.257763 0
M  V30 9 C -0.087500 0.662933 0.034211 0
M  V30 10 C 0.216339 1.885937 -0.699485 0
M  V30 11 C -0.685957 2.336038 -1.657800 0
M  V30 12 C -0.441467 3.495519 -2.382924 0
M  V30 13 C 0.733080 4.194713 -2.123059 0
M  V30 14 C 1.648175 3.777134 -1.181048 0
M  V30 15 Cl 3.101804 4.718727 -0.918037 0
M  V30 16 C 1.376869 2.608267 -0.466914 0
M  V30 17 C -1.258410 0.229646 0.630379 0
M  V30 18 C -2.492088 0.845482 0.699442 0
M  V30 19 N -3.499184 0.224752 1.341538 0
M  V30 20 C -3.298763 -0.988078 1.910474 0
M  V30 21 C -2.053242 -1.610567 1.841133 0
M  V30 22 C -0.999441 -1.004511 1.191914 0
M  V30 23 N 0.528835 -3.283124 2.410293 0
M  V30 24 H 0.932497 -5.374786 4.877305 0
M  V30 25 H -0.273995 -5.528248 3.578211 0
M  V30 26 H 3.611844 -4.450934 0.484981 0
M  V30 27 H 2.424975 -2.432786 -0.127766 0
M  V30 28 H 1.900965 -0.328953 -0.077473 0
M  V30 29 H -1.606935 1.841025 -1.902477 0
M  V30 30 H -1.129848 3.862937 -3.132494 0
M  V30 31 H 0.945669 5.104492 -2.677928 0
M  V30 32 H 2.083332 2.276039 0.267899 0
M  V30 33 H -2.667336 1.813180 0.250373 0
M  V30 34 H -4.148959 -1.409945 2.399293 0
M  V30 35 H -1.916188 -2.573007 2.299565 0
M  V30 END ATOM
M  V30 BEGIN BOND
M  V30 1 1 1 2
M  V30 2 2 2 3
M  V30 3 1 3 4
M  V30 4 2 4 5
M  V30 5 1 5 6
M  V30 6 1 6 7
M  V30 7 1 7 8
M  V30 8 2 8 9
M  V30 9 1 9 10
M  V30 10 2 10 11
M  V30 11 1 11 12
M  V30 12 2 12 13
M  V30 13 1 13 14
M  V30 14 1 14 15
M  V30 15 2 14 16
M  V30 16 1 9 17
M  V30 17 2 17 18
M  V30 18 1 18 19
M  V30 19 2 19 20
M  V30 20 1 20 21
M  V30 21 2 21 22
M  V30 22 2 6 23
M  V30 23 1 23 2
M  V30 24 1 22 7
M  V30 25 1 16 10
M  V30 26 1 22 17
M  V30 27 1 1 24
M  V30 28 1 1 25
M  V30 29 1 4 26
M  V30 30 1 5 27
M  V30 31 1 8 28
M  V30 32 1 11 29
M  V30 33 1 12 30
M  V30 34 1 13 31
M  V30 35 1 16 32
M  V30 36 1 18 33
M  V30 37 1 20 34
M  V30 38 1 21 35
M  V30 END BOND
M  V30 END CTAB
M  END
>  <Dataset>  (994) 
ChEMBL_Kinases

>  <Ligand_Instance>  (994) 
nan

>  <PDB_ID>  (994) 
nan

>  <Standardized_SMILES>  (994) 
Nc1nccc(-n2cc(-c3cccc(Cl)c3)c3cnccc32)n1

>  <Name>  (994) 
nan

>  <Pocket>  (994) 
nan

>  <ATP_Site>  (994) 
nan

>  <Peripheral>  (994) 
nan

>  <Num_H_Atoms_ProtBoundConf>  (994) 
nan

>  <Num_Resolved_Atoms>  (994) 
nan

>  <Num_Not_Resolved_Atoms>  (994) 
nan

$$$$
CHEMBL2348163
     RDKit          3D

  0  0  0  0  0  0  0  0  0  0999 V3000
M  V30 BEGIN CTAB
M  V30 COUNTS 26 28 0 0 0
M  V30 BEGIN ATOM
M  V30 1 N -0.520065 -5.296791 -1.654913 0
M  V30 2 C -0.441465 -4.582060 -0.744102 0
M  V30 3 C -0.332824 -3.702307 0.384062 0
M  V30 4 C -0.332022 -4.231649 1.660072 0
M  V30 5 N -0.232966 -3.455490 2.750470 0
M  V30 6 C -0.130715 -2.116470 2.603671 0
M  V30 7 C -0.016687 -1.066814 3.489379 0
M  V30 8 C 0.050236 0.087560 2.735724 0
M  V30 9 N -0.020237 -0.233773 1.413832 0
M  V30 10 C 0.031571 0.818119 0.457109 0
M  V30 11 C -0.901023 1.089936 -0.524683 0
M  V30 12 C -0.671683 2.168602 -1.368873 0
M  V30 13 N 0.423028 2.941855 -1.251625 0
M  V30 14 C 1.338434 2.665557 -0.278928 0
M  V30 15 N 2.533024 3.451500 -0.096097 0
M  V30 16 N 1.106416 1.631663 0.520744 0
M  V30 17 C -0.130362 -1.575250 1.333760 0
M  V30 18 C -0.229613 -2.325137 0.175377 0
M  V30 19 H -0.408722 -5.278754 1.871155 0
M  V30 20 H 0.012072 -1.166197 4.573669 0
M  V30 21 H 0.144525 1.059966 3.220297 0
M  V30 22 H -1.749864 0.426471 -0.555096 0
M  V30 23 H -1.418804 2.357578 -2.128132 0
M  V30 24 H 3.492648 3.008970 -0.190742 0
M  V30 25 H 2.408294 4.465517 0.131343 0
M  V30 26 H -0.227239 -1.879530 -0.809328 0
M  V30 END ATOM
M  V30 BEGIN BOND
M  V30 1 3 1 2
M  V30 2 1 2 3
M  V30 3 2 3 4
M  V30 4 1 4 5
M  V30 5 2 5 6
M  V30 6 1 6 7
M  V30 7 2 7 8
M  V30 8 1 8 9
M  V30 9 1 9 10
M  V30 10 2 10 11
M  V30 11 1 11 12
M  V30 12 2 12 13
M  V30 13 1 13 14
M  V30 14 1 14 15
M  V30 15 2 14 16
M  V30 16 1 9 17
M  V30 17 2 17 18
M  V30 18 1 18 3
M  V30 19 1 17 6
M  V30 20 1 16 10
M  V30 21 1 4 19
M  V30 22 1 7 20
M  V30 23 1 8 21
M  V30 24 1 11 22
M  V30 25 1 12 23
M  V30 26 1 15 24
M  V30 27 1 15 25
M  V30 28 1 18 26
M  V30 END BOND
M  V30 END CTAB
M  END
>  <Dataset>  (995) 
ChEMBL_Kinases

>  <Ligand_Instance>  (995) 
nan

>  <PDB_ID>  (995) 
nan

>  <Standardized_SMILES>  (995) 
N#Cc1cnc2ccn(-c3ccnc(N)n3)c2c1

>  <Name>  (995) 
nan

>  <Pocket>  (995) 
nan

>  <ATP_Site>  (995) 
nan

>  <Peripheral>  (995) 
nan

>  <Num_H_Atoms_ProtBoundConf>  (995) 
nan

>  <Num_Resolved_Atoms>  (995) 
nan

>  <Num_Not_Resolved_Atoms>  (995) 
nan

$$$$
CHEMBL2348166
     RDKit          3D

  0  0  0  0  0  0  0  0  0  0999 V3000
M  V30 BEGIN CTAB
M  V30 COUNTS 26 28 0 0 0
M  V30 BEGIN ATOM
M  V30 1 N 2.555309 -4.754256 2.515698 0
M  V30 2 C 1.853044 -4.205224 1.755368 0
M  V30 3 C 0.979549 -3.547108 0.827767 0
M  V30 4 C 0.741557 -2.186477 0.862777 0
M  V30 5 C -0.095534 -1.543267 -0.023125 0
M  V30 6 C -0.717351 -2.301561 -0.982284 0
M  V30 7 C -1.479003 -1.420091 -1.716195 0
M  V30 8 C -1.277213 -0.174949 -1.161583 0
M  V30 9 N -0.421639 -0.251178 -0.114554 0
M  V30 10 C -0.023169 0.877386 0.656635 0
M  V30 11 C 0.172879 2.105050 0.063996 0
M  V30 12 C 0.558917 3.245586 0.742969 0
M  V30 13 N 0.755666 3.146889 2.072063 0
M  V30 14 C 0.567480 1.943047 2.677665 0
M  V30 15 N 0.791906 1.907598 4.082278 0
M  V30 16 N 0.191582 0.850597 1.990314 0
M  V30 17 C -0.471131 -3.659452 -1.006374 0
M  V30 18 N 0.356981 -4.272574 -0.124333 0
M  V30 19 H 1.250154 -1.643547 1.628466 0
M  V30 20 H -2.104752 -1.676709 -2.558081 0
M  V30 21 H -1.743171 0.727043 -1.522255 0
M  V30 22 H 0.031223 2.246920 -0.995246 0
M  V30 23 H 0.703517 4.193738 0.244225 0
M  V30 24 H 1.465106 1.579310 4.814336 0
M  V30 25 H 0.104799 2.333634 4.761888 0
M  V30 26 H -0.970749 -4.257334 -1.774272 0
M  V30 END ATOM
M  V30 BEGIN BOND
M  V30 1 3 1 2
M  V30 2 1 2 3
M  V30 3 2 3 4
M  V30 4 1 4 5
M  V30 5 2 5 6
M  V30 6 1 6 7
M  V30 7 2 7 8
M  V30 8 1 8 9
M  V30 9 1 9 10
M  V30 10 2 10 11
M  V30 11 1 11 12
M  V30 12 2 12 13
M  V30 13 1 13 14
M  V30 14 1 14 15
M  V30 15 2 14 16
M  V30 16 1 6 17
M  V30 17 2 17 18
M  V30 18 1 18 3
M  V30 19 1 9 5
M  V30 20 1 16 10
M  V30 21 1 4 19
M  V30 22 1 7 20
M  V30 23 1 8 21
M  V30 24 1 11 22
M  V30 25 1 12 23
M  V30 26 1 15 24
M  V30 27 1 15 25
M  V30 28 1 17 26
M  V30 END BOND
M  V30 END CTAB
M  END
>  <Dataset>  (996) 
ChEMBL_Kinases

>  <Ligand_Instance>  (996) 
nan

>  <PDB_ID>  (996) 
nan

>  <Standardized_SMILES>  (996) 
N#Cc1cc2c(ccn2-c2ccnc(N)n2)cn1

>  <Name>  (996) 
nan

>  <Pocket>  (996) 
nan

>  <ATP_Site>  (996) 
nan

>  <Peripheral>  (996) 
nan

>  <Num_H_Atoms_ProtBoundConf>  (996) 
nan

>  <Num_Resolved_Atoms>  (996) 
nan

>  <Num_Not_Resolved_Atoms>  (996) 
nan

$$$$
CHEMBL2348169
     RDKit          3D

  0  0  0  0  0  0  0  0  0  0999 V3000
M  V30 BEGIN CTAB
M  V30 COUNTS 27 29 0 0 0
M  V30 BEGIN ATOM
M  V30 1 N 1.348308 -6.310959 1.915781 0
M  V30 2 C 1.267237 -5.176660 1.699305 0
M  V30 3 C 1.140707 -3.759696 1.430349 0
M  V30 4 C 0.042834 -3.315857 0.724033 0
M  V30 5 C -0.068992 -1.953758 0.471256 0
M  V30 6 C 0.923019 -1.089464 0.935713 0
M  V30 7 C 2.015533 -1.548299 1.640939 0
M  V30 8 C 2.829940 -0.473041 1.972030 0
M  V30 9 C 2.202676 0.639368 1.450550 0
M  V30 10 N 1.060899 0.263394 0.830997 0
M  V30 11 C 0.079563 1.071363 0.143177 0
M  V30 12 C 0.328141 2.083545 -0.761838 0
M  V30 13 C -0.749612 2.746298 -1.318025 0
M  V30 14 N -2.019395 2.414061 -0.986104 0
M  V30 15 C -2.263943 1.414715 -0.092593 0
M  V30 16 N -3.578333 1.023576 0.292912 0
M  V30 17 N -1.206986 0.791613 0.429037 0
M  V30 18 C 2.130539 -2.904388 1.894758 0
M  V30 19 H -0.742708 -3.948678 0.349167 0
M  V30 20 H -0.926696 -1.569778 -0.085664 0
M  V30 21 H 3.762408 -0.513160 2.525678 0
M  V30 22 H 2.549548 1.679857 1.511590 0
M  V30 23 H 1.374703 2.270776 -0.958603 0
M  V30 24 H -0.527596 3.535357 -2.024348 0
M  V30 25 H -3.739200 1.248785 1.319762 0
M  V30 26 H -4.350865 0.572090 -0.275464 0
M  V30 27 H 2.963933 -3.335422 2.443841 0
M  V30 END ATOM
M  V30 BEGIN BOND
M  V30 1 3 1 2
M  V30 2 1 2 3
M  V30 3 2 3 4
M  V30 4 1 4 5
M  V30 5 2 5 6
M  V30 6 1 6 7
M  V30 7 1 7 8
M  V30 8 2 8 9
M  V30 9 1 9 10
M  V30 10 1 10 11
M  V30 11 2 11 12
M  V30 12 1 12 13
M  V30 13 2 13 14
M  V30 14 1 14 15
M  V30 15 1 15 16
M  V30 16 2 15 17
M  V30 17 2 7 18
M  V30 18 1 18 3
M  V30 19 1 10 6
M  V30 20 1 17 11
M  V30 21 1 4 19
M  V30 22 1 5 20
M  V30 23 1 8 21
M  V30 24 1 9 22
M  V30 25 1 12 23
M  V30 26 1 13 24
M  V30 27 1 16 25
M  V30 28 1 16 26
M  V30 29 1 18 27
M  V30 END BOND
M  V30 END CTAB
M  END
>  <Dataset>  (997) 
ChEMBL_Kinases

>  <Ligand_Instance>  (997) 
nan

>  <PDB_ID>  (997) 
nan

>  <Standardized_SMILES>  (997) 
N#Cc1ccc2c(ccn2-c2ccnc(N)n2)c1

>  <Name>  (997) 
nan

>  <Pocket>  (997) 
nan

>  <ATP_Site>  (997) 
nan

>  <Peripheral>  (997) 
nan

>  <Num_H_Atoms_ProtBoundConf>  (997) 
nan

>  <Num_Resolved_Atoms>  (997) 
nan

>  <Num_Not_Resolved_Atoms>  (997) 
nan

$$$$
CHEMBL2348174
     RDKit          3D

  0  0  0  0  0  0  0  0  0  0999 V3000
M  V30 BEGIN CTAB
M  V30 COUNTS 28 30 0 0 0
M  V30 BEGIN ATOM
M  V30 1 N -2.336382 -1.731887 4.074324 0
M  V30 2 C -1.041343 -1.908797 3.510265 0
M  V30 3 N -0.008607 -2.226781 4.342124 0
M  V30 4 C 1.236265 -2.405422 3.862115 0
M  V30 5 C 1.507223 -2.272775 2.514901 0
M  V30 6 C 0.457585 -1.950800 1.678217 0
M  V30 7 N 0.472613 -1.757561 0.256804 0
M  V30 8 C 0.413842 -2.687557 -0.730783 0
M  V30 9 C 0.463056 -1.962167 -1.905474 0
M  V30 10 C 0.550576 -0.609441 -1.643642 0
M  V30 11 C 0.622392 0.471432 -2.521685 0
M  V30 12 C 0.701007 1.697140 -1.888027 0
M  V30 13 C 0.710527 1.879678 -0.531927 0
M  V30 14 N 0.792575 3.157768 0.086930 0 CHG=1 VAL=4
M  V30 15 O 0.861986 4.207138 -0.583049 0
M  V30 16 O 0.793953 3.215602 1.459475 0 CHG=-1 VAL=1
M  V30 17 C 0.636369 0.760738 0.268696 0
M  V30 18 C 0.554791 -0.508213 -0.277514 0
M  V30 19 N -0.784361 -1.780415 2.213873 0
M  V30 20 H -2.656601 -0.892129 4.637066 0
M  V30 21 H -3.068262 -2.468601 3.948192 0
M  V30 22 H 2.101408 -2.659531 4.470119 0
M  V30 23 H 2.432599 -2.383130 1.995520 0
M  V30 24 H 0.345373 -3.733922 -0.492686 0
M  V30 25 H 0.430913 -2.481858 -2.859794 0
M  V30 26 H 0.616171 0.347128 -3.596952 0
M  V30 27 H 0.759181 2.574479 -2.530608 0
M  V30 28 H 0.640754 0.856899 1.346130 0
M  V30 END ATOM
M  V30 BEGIN BOND
M  V30 1 1 1 2
M  V30 2 2 2 3
M  V30 3 1 3 4
M  V30 4 2 4 5
M  V30 5 1 5 6
M  V30 6 1 6 7
M  V30 7 1 7 8
M  V30 8 2 8 9
M  V30 9 1 9 10
M  V30 10 2 10 11
M  V30 11 1 11 12
M  V30 12 2 12 13
M  V30 13 1 13 14
M  V30 14 2 14 15
M  V30 15 1 14 16
M  V30 16 1 13 17
M  V30 17 2 17 18
M  V30 18 2 6 19
M  V30 19 1 19 2
M  V30 20 1 18 7
M  V30 21 1 18 10
M  V30 22 1 1 20
M  V30 23 1 1 21
M  V30 24 1 4 22
M  V30 25 1 5 23
M  V30 26 1 8 24
M  V30 27 1 9 25
M  V30 28 1 11 26
M  V30 29 1 12 27
M  V30 30 1 17 28
M  V30 END BOND
M  V30 END CTAB
M  END
>  <Dataset>  (998) 
ChEMBL_Kinases

>  <Ligand_Instance>  (998) 
nan

>  <PDB_ID>  (998) 
nan

>  <Standardized_SMILES>  (998) 
Nc1nccc(-n2ccc3ccc([N+](=O)[O-])cc32)n1

>  <Name>  (998) 
nan

>  <Pocket>  (998) 
nan

>  <ATP_Site>  (998) 
nan

>  <Peripheral>  (998) 
nan

>  <Num_H_Atoms_ProtBoundConf>  (998) 
nan

>  <Num_Resolved_Atoms>  (998) 
nan

>  <Num_Not_Resolved_Atoms>  (998) 
nan

$$$$
CHEMBL234867
     RDKit          3D

  0  0  0  0  0  0  0  0  0  0999 V3000
M  V30 BEGIN CTAB
M  V30 COUNTS 60 64 0 0 0
M  V30 BEGIN ATOM
M  V30 1 C 3.997025 0.776930 3.306766 0
M  V30 2 N 5.031020 0.686162 2.321064 0
M  V30 3 C 5.066298 -0.674826 1.808736 0
M  V30 4 C 4.832952 1.593275 1.180528 0
M  V30 5 C 4.990616 3.026080 1.540982 0
M  V30 6 N 4.816284 4.007105 0.564920 0
M  V30 7 C 3.528281 4.326808 0.095010 0
M  V30 8 C 2.679921 3.211378 -0.358203 0
M  V30 9 C 2.739817 2.616921 -1.607244 0
M  V30 10 C 1.867206 1.600520 -1.957905 0
M  V30 11 C 0.903771 1.154971 -1.047767 0
M  V30 12 C 0.853223 1.754393 0.193704 0
M  V30 13 C 1.723953 2.778477 0.561878 0
M  V30 14 C -0.230440 1.114520 0.972900 0
M  V30 15 N -0.854249 1.129437 2.168517 0
M  V30 16 N -1.789738 0.199728 2.128460 0
M  V30 17 C -1.797336 -0.425777 0.937741 0
M  V30 18 C -2.653696 -1.512514 0.462542 0
M  V30 19 C -3.290240 -1.615075 -0.756579 0
M  V30 20 C -4.062338 -2.728530 -1.023386 0
M  V30 21 C -4.219882 -3.747545 -0.107470 0
M  V30 22 C -5.020302 -4.920028 -0.347821 0
M  V30 23 C -6.146232 -4.961590 -1.108425 0
M  V30 24 C -6.814635 -6.159909 -1.250380 0
M  V30 25 C -6.430374 -7.365995 -0.669369 0
M  V30 26 O -7.186035 -8.507774 -0.886019 0
M  V30 27 C -5.275432 -7.314016 0.108122 0
M  V30 28 C -4.603563 -6.109123 0.250860 0
M  V30 29 C -3.569487 -3.626970 1.119253 0
M  V30 30 C -2.779465 -2.511203 1.420956 0
M  V30 31 C -0.791485 0.139393 0.143715 0
M  V30 32 C -0.126443 0.102627 -1.176623 0
M  V30 33 H 3.235435 -0.043843 3.163594 0
M  V30 34 H 4.471006 0.587939 4.310778 0
M  V30 35 H 3.503605 1.744240 3.393488 0
M  V30 36 H 5.891913 -1.253319 2.231422 0
M  V30 37 H 5.123072 -0.661809 0.715438 0
M  V30 38 H 4.122367 -1.217022 2.100187 0
M  V30 39 H 5.730692 1.324064 0.511656 0
M  V30 40 H 3.981998 1.271746 0.612734 0
M  V30 41 H 6.024408 3.138727 1.973077 0
M  V30 42 H 4.318573 3.287162 2.406627 0
M  V30 43 H 5.528484 3.890039 -0.196774 0
M  V30 44 H 2.984429 4.938212 0.871730 0
M  V30 45 H 3.668127 5.016326 -0.788131 0
M  V30 46 H 3.516824 3.031859 -2.234822 0
M  V30 47 H 1.972102 1.176031 -2.963862 0
M  V30 48 H 1.645239 3.226511 1.563016 0
M  V30 49 H -0.653464 1.748823 2.985537 0
M  V30 50 H -3.122979 -0.782085 -1.424857 0
M  V30 51 H -4.550768 -2.784480 -1.987260 0
M  V30 52 H -6.493711 -4.056533 -1.585546 0
M  V30 53 H -7.702433 -6.107311 -1.872678 0
M  V30 54 H -7.282232 -8.904526 -1.796886 0
M  V30 55 H -4.978636 -8.237964 0.555383 0
M  V30 56 H -3.719126 -6.228706 0.887650 0
M  V30 57 H -3.692882 -4.428735 1.841495 0
M  V30 58 H -2.329886 -2.537916 2.404405 0
M  V30 59 H -0.893757 0.363088 -1.961259 0
M  V30 60 H 0.269277 -0.883333 -1.440734 0
M  V30 END ATOM
M  V30 BEGIN BOND
M  V30 1 1 1 2
M  V30 2 1 2 3
M  V30 3 1 2 4
M  V30 4 1 4 5
M  V30 5 1 5 6
M  V30 6 1 6 7
M  V30 7 1 7 8
M  V30 8 2 8 9
M  V30 9 1 9 10
M  V30 10 2 10 11
M  V30 11 1 11 12
M  V30 12 2 12 13
M  V30 13 1 12 14
M  V30 14 1 14 15
M  V30 15 1 15 16
M  V30 16 2 16 17
M  V30 17 1 17 18
M  V30 18 2 18 19
M  V30 19 1 19 20
M  V30 20 2 20 21
M  V30 21 1 21 22
M  V30 22 2 22 23
M  V30 23 1 23 24
M  V30 24 2 24 25
M  V30 25 1 25 26
M  V30 26 1 25 27
M  V30 27 2 27 28
M  V30 28 1 21 29
M  V30 29 2 29 30
M  V30 30 1 17 31
M  V30 31 1 31 32
M  V30 32 1 13 8
M  V30 33 2 31 14
M  V30 34 1 32 11
M  V30 35 1 30 18
M  V30 36 1 28 22
M  V30 37 1 1 33
M  V30 38 1 1 34
M  V30 39 1 1 35
M  V30 40 1 3 36
M  V30 41 1 3 37
M  V30 42 1 3 38
M  V30 43 1 4 39
M  V30 44 1 4 40
M  V30 45 1 5 41
M  V30 46 1 5 42
M  V30 47 1 6 43
M  V30 48 1 7 44
M  V30 49 1 7 45
M  V30 50 1 9 46
M  V30 51 1 10 47
M  V30 52 1 13 48
M  V30 53 1 15 49
M  V30 54 1 19 50
M  V30 55 1 20 51
M  V30 56 1 23 52
M  V30 57 1 24 53
M  V30 58 1 26 54
M  V30 59 1 27 55
M  V30 60 1 28 56
M  V30 61 1 29 57
M  V30 62 1 30 58
M  V30 63 1 32 59
M  V30 64 1 32 60
M  V30 END BOND
M  V30 END CTAB
M  END
>  <Dataset>  (999) 
ChEMBL_Kinases

>  <Ligand_Instance>  (999) 
nan

>  <PDB_ID>  (999) 
nan

>  <Standardized_SMILES>  (999) 
CN(C)CCNCc1ccc2c(c1)-c1[nH]nc(-c3ccc(-c4ccc(O)cc4)cc3)c1C2

>  <Name>  (999) 
nan

>  <Pocket>  (999) 
nan

>  <ATP_Site>  (999) 
nan

>  <Peripheral>  (999) 
nan

>  <Num_H_Atoms_ProtBoundConf>  (999) 
nan

>  <Num_Resolved_Atoms>  (999) 
nan

>  <Num_Not_Resolved_Atoms>  (999) 
nan

$$$$
